# generated using pymatgen
data_Cu3H16C24(N10Cl)2
_symmetry_space_group_name_H-M   'P 1'
_cell_length_a   12.17191520
_cell_length_b   15.37032173
_cell_length_c   15.66851560
_cell_angle_alpha   90.00000701
_cell_angle_beta   89.99998087
_cell_angle_gamma   90.00011103
_symmetry_Int_Tables_number   1
_chemical_formula_structural   Cu3H16C24(N10Cl)2
_chemical_formula_sum   'Cu6 H32 C48 N40 Cl4'
_cell_volume   2931.36386888
_cell_formula_units_Z   2
loop_
 _symmetry_equiv_pos_site_id
 _symmetry_equiv_pos_as_xyz
  1  'x, y, z'
loop_
 _atom_site_type_symbol
 _atom_site_label
 _atom_site_symmetry_multiplicity
 _atom_site_fract_x
 _atom_site_fract_y
 _atom_site_fract_z
 _atom_site_occupancy
  Cu  Cu0  1  0.00000000  0.99999935  0.00000000  1.0
  Cu  Cu1  1  0.50000012  0.49999964  0.49999989  1.0
  Cu  Cu2  1  0.84532424  0.81292956  0.99999973  1.0
  Cu  Cu3  1  0.15467621  0.18707031  0.99999978  1.0
  Cu  Cu4  1  0.65467563  0.31292886  0.49999986  1.0
  Cu  Cu5  1  0.34532543  0.68707108  0.49999993  1.0
  H  H6  1  0.23059279  0.91623599  0.28067414  1.0
  H  H7  1  0.33732609  0.85494784  0.40374896  1.0
  H  H8  1  0.15853636  0.62610083  0.40193833  1.0
  H  H9  1  0.04215296  0.67837551  0.27825528  1.0
  H  H10  1  0.76940755  0.08376522  0.28067402  1.0
  H  H11  1  0.66267501  0.14505273  0.40374823  1.0
  H  H12  1  0.84146391  0.37389909  0.40193822  1.0
  H  H13  1  0.95784737  0.32162505  0.27825514  1.0
  H  H14  1  0.26940777  0.41623412  0.21932624  1.0
  H  H15  1  0.16267513  0.35494709  0.09625077  1.0
  H  H16  1  0.34146348  0.12609971  0.09806137  1.0
  H  H17  1  0.45784701  0.17837458  0.22174506  1.0
  H  H18  1  0.73059012  0.58376513  0.21932363  1.0
  H  H19  1  0.83732446  0.64505474  0.09625006  1.0
  H  H20  1  0.65853529  0.87390083  0.09806201  1.0
  H  H21  1  0.54215170  0.82162533  0.22174509  1.0
  H  H22  1  0.76940745  0.08376524  0.71932629  1.0
  H  H23  1  0.66267497  0.14505275  0.59625147  1.0
  H  H24  1  0.84146387  0.37389910  0.59806146  1.0
  H  H25  1  0.95784727  0.32162508  0.72174451  1.0
  H  H26  1  0.23059269  0.91623602  0.71932577  1.0
  H  H27  1  0.33732605  0.85494785  0.59625092  1.0
  H  H28  1  0.15853632  0.62610085  0.59806156  1.0
  H  H29  1  0.04215287  0.67837553  0.72174465  1.0
  H  H30  1  0.73059000  0.58376516  0.78067611  1.0
  H  H31  1  0.83732428  0.64505414  0.90374966  1.0
  H  H32  1  0.65853511  0.87390023  0.90193842  1.0
  H  H33  1  0.54215158  0.82162471  0.77825537  1.0
  H  H34  1  0.26940765  0.41623416  0.78067360  1.0
  H  H35  1  0.16267578  0.35494649  0.90374909  1.0
  H  H36  1  0.34146331  0.12609976  0.90193841  1.0
  H  H37  1  0.45784771  0.17837461  0.77825534  1.0
  C  C38  1  0.06763314  0.83212962  0.19525508  1.0
  C  C39  1  0.12778631  0.80165145  0.26969033  1.0
  C  C40  1  0.21128925  0.85225228  0.30653938  1.0
  C  C41  1  0.26995786  0.81864536  0.37492300  1.0
  C  C42  1  0.16883146  0.69049767  0.37341489  1.0
  C  C43  1  0.10639926  0.71948075  0.30496617  1.0
  C  C44  1  0.93236723  0.16787093  0.19525493  1.0
  C  C45  1  0.87221485  0.19834910  0.26969020  1.0
  C  C46  1  0.78871107  0.14774828  0.30653863  1.0
  C  C47  1  0.73004326  0.18135456  0.37492290  1.0
  C  C48  1  0.83116965  0.30950290  0.37341542  1.0
  C  C49  1  0.89360188  0.28051982  0.30496604  1.0
  C  C50  1  0.43236721  0.33212866  0.30474464  1.0
  C  C51  1  0.37221396  0.30165170  0.23030939  1.0
  C  C52  1  0.28871197  0.35225044  0.19346098  1.0
  C  C53  1  0.23004328  0.31864472  0.12507672  1.0
  C  C54  1  0.33116936  0.19049653  0.12658482  1.0
  C  C55  1  0.39360081  0.21947906  0.19503418  1.0
  C  C56  1  0.56763229  0.66787125  0.30474400  1.0
  C  C57  1  0.62778475  0.69834951  0.23030938  1.0
  C  C58  1  0.71128675  0.64774881  0.19345967  1.0
  C  C59  1  0.76995629  0.68135582  0.12507603  1.0
  C  C60  1  0.66882939  0.80950400  0.12658481  1.0
  C  C61  1  0.60639710  0.78052083  0.19503355  1.0
  C  C62  1  0.93236710  0.16787097  0.80474470  1.0
  C  C63  1  0.87221475  0.19834913  0.73031009  1.0
  C  C64  1  0.78871181  0.14774830  0.69346169  1.0
  C  C65  1  0.73004320  0.18135458  0.62507679  1.0
  C  C66  1  0.83116960  0.30950226  0.62658426  1.0
  C  C67  1  0.89360179  0.28051984  0.69503362  1.0
  C  C68  1  0.06763301  0.83212966  0.80474486  1.0
  C  C69  1  0.12778621  0.80165148  0.73030959  1.0
  C  C70  1  0.21128916  0.85225231  0.69346053  1.0
  C  C71  1  0.26995780  0.81864537  0.62507688  1.0
  C  C72  1  0.16883141  0.69049769  0.62658565  1.0
  C  C73  1  0.10639836  0.71948077  0.69503439  1.0
  C  C74  1  0.56763220  0.66787062  0.69525579  1.0
  C  C75  1  0.62778463  0.69834889  0.76969104  1.0
  C  C76  1  0.71128662  0.64774819  0.80654072  1.0
  C  C77  1  0.76995531  0.68135587  0.87492371  1.0
  C  C78  1  0.66883005  0.80950405  0.87341497  1.0
  C  C79  1  0.60639696  0.78052022  0.80496625  1.0
  C  C80  1  0.43236713  0.33212869  0.69525515  1.0
  C  C81  1  0.37221385  0.30165043  0.76969041  1.0
  C  C82  1  0.28871184  0.35225048  0.80653884  1.0
  C  C83  1  0.23004312  0.31864411  0.87492312  1.0
  C  C84  1  0.33116920  0.19049658  0.87341562  1.0
  C  C85  1  0.39360150  0.21947910  0.80496624  1.0
  N  N86  1  0.01778243  0.90902842  0.09115142  1.0
  N  N87  1  0.96114087  0.83445881  0.08939874  1.0
  N  N88  1  0.99058562  0.78457699  0.15399451  1.0
  N  N89  1  0.08497891  0.90972202  0.15695727  1.0
  N  N90  1  0.24939402  0.73930088  0.40767850  1.0
  N  N91  1  0.98221716  0.09097211  0.09115125  1.0
  N  N92  1  0.03885955  0.16554107  0.08939818  1.0
  N  N93  1  0.00941394  0.21542355  0.15399397  1.0
  N  N94  1  0.91502230  0.09027787  0.15695711  1.0
  N  N95  1  0.75060708  0.26069905  0.40767840  1.0
  N  N96  1  0.48221811  0.40902690  0.40884831  1.0
  N  N97  1  0.53885988  0.33445856  0.41060149  1.0
  N  N98  1  0.50941336  0.28457539  0.34600635  1.0
  N  N99  1  0.41502163  0.40972104  0.34304310  1.0
  N  N100  1  0.25060692  0.23929961  0.09232122  1.0
  N  N101  1  0.51778217  0.59097237  0.40884831  1.0
  N  N102  1  0.46114039  0.66554071  0.41060152  1.0
  N  N103  1  0.49058530  0.71542322  0.34600574  1.0
  N  N104  1  0.58497785  0.59027822  0.34304246  1.0
  N  N105  1  0.74939185  0.76070157  0.09232182  1.0
  N  N106  1  0.98221699  0.09097216  0.90884900  1.0
  N  N107  1  0.03885937  0.16554112  0.91060169  1.0
  N  N108  1  0.00941461  0.21542359  0.84600591  1.0
  N  N109  1  0.91502215  0.09027791  0.84304252  1.0
  N  N110  1  0.75060704  0.26069906  0.59232129  1.0
  N  N111  1  0.01778225  0.90902782  0.90884790  1.0
  N  N112  1  0.96114069  0.83445886  0.91060097  1.0
  N  N113  1  0.99058630  0.78457639  0.84600518  1.0
  N  N114  1  0.08497876  0.90972206  0.84304268  1.0
  N  N115  1  0.24939398  0.73930024  0.59232202  1.0
  N  N116  1  0.51778213  0.59097238  0.59115148  1.0
  N  N117  1  0.46114035  0.66554072  0.58939893  1.0
  N  N118  1  0.49058523  0.71542259  0.65399471  1.0
  N  N119  1  0.58497778  0.59027759  0.65695732  1.0
  N  N120  1  0.74939249  0.76070097  0.90767857  1.0
  N  N121  1  0.48221807  0.40902756  0.59115147  1.0
  N  N122  1  0.53885984  0.33445858  0.58939890  1.0
  N  N123  1  0.50941412  0.28457541  0.65399341  1.0
  N  N124  1  0.41502156  0.40972106  0.65695670  1.0
  N  N125  1  0.25060675  0.23929966  0.90767861  1.0
  Cl  Cl126  1  0.77702293  0.96243517  0.99999975  1.0
  Cl  Cl127  1  0.22297752  0.03756536  0.99999976  1.0
  Cl  Cl128  1  0.72297731  0.46243456  0.49999986  1.0
  Cl  Cl129  1  0.27702293  0.53756602  0.49999993  1.0
