# generated using pymatgen
data_Zn4H13C24O13F
_symmetry_space_group_name_H-M   'P 1'
_cell_length_a   13.08982108
_cell_length_b   13.26226113
_cell_length_c   15.27007613
_cell_angle_alpha   78.15387181
_cell_angle_beta   84.67905623
_cell_angle_gamma   88.64840708
_symmetry_Int_Tables_number   1
_chemical_formula_structural   Zn4H13C24O13F
_chemical_formula_sum   'Zn4 H13 C24 O13 F1'
_cell_volume   2583.22921662
_cell_formula_units_Z   1
loop_
 _symmetry_equiv_pos_site_id
 _symmetry_equiv_pos_as_xyz
  1  'x, y, z'
loop_
 _atom_site_type_symbol
 _atom_site_label
 _atom_site_symmetry_multiplicity
 _atom_site_fract_x
 _atom_site_fract_y
 _atom_site_fract_z
 _atom_site_occupancy
  Zn  Zn0  1  0.42777907  0.40974796  0.44184411  1.0
  Zn  Zn1  1  0.59992091  0.41648295  0.57528818  1.0
  Zn  Zn2  1  0.41525557  0.56987366  0.58039621  1.0
  Zn  Zn3  1  0.56549872  0.60542809  0.40002878  1.0
  H  H4  1  0.45580419  0.61956843  0.83861543  1.0
  H  H5  1  0.43637725  0.68233497  0.13856041  1.0
  H  H6  1  0.53164853  0.36547399  0.16551720  1.0
  H  H7  1  0.91549240  0.45724131  0.56080504  1.0
  H  H8  1  0.90878061  0.57915971  0.36586620  1.0
  H  H9  1  0.08798187  0.44475874  0.61179037  1.0
  H  H10  1  0.44139024  0.09422942  0.45477392  1.0
  H  H11  1  0.51596107  0.89855361  0.58530348  1.0
  H  H12  1  0.57903392  0.07301211  0.61124754  1.0
  H  H13  1  0.43172345  0.93241226  0.39889394  1.0
  H  H14  1  0.58015822  0.31330179  0.86142136  1.0
  H  H15  1  0.42875723  0.69750784  0.97390325  1.0
  H  H16  1  0.57287288  0.29230842  0.02787541  1.0
  C  C17  1  0.76919310  0.53154819  0.45516992  1.0
  C  C18  1  0.05710791  0.49744202  0.47813062  1.0
  C  C19  1  0.88166964  0.53778478  0.43289638  1.0
  C  C20  1  0.23494800  0.47454511  0.52944450  1.0
  C  C21  1  0.94691655  0.49566010  0.49385451  1.0
  C  C22  1  0.45639812  0.89049991  0.46287026  1.0
  C  C23  1  0.48623703  0.94174877  0.52381256  1.0
  C  C24  1  0.53152432  0.10870418  0.55812985  1.0
  C  C25  1  0.48392600  0.05258467  0.50959830  1.0
  C  C26  1  0.52590223  0.22234475  0.53894387  1.0
  C  C27  1  0.46571306  0.77683660  0.47334951  1.0
  C  C28  1  0.45612972  0.61727873  0.10668030  1.0
  C  C29  1  0.51721910  0.47869318  0.74184724  1.0
  C  C30  1  0.48772949  0.51455630  0.25947972  1.0
  C  C31  1  0.51725144  0.46797483  0.84095348  1.0
  C  C32  1  0.48405263  0.52217474  0.16103760  1.0
  C  C33  1  0.45287028  0.62555863  0.01575522  1.0
  C  C34  1  0.51071116  0.43809916  0.12285186  1.0
  C  C35  1  0.51392208  0.44634988  0.02875845  1.0
  C  C36  1  0.48237439  0.54149349  0.97419994  1.0
  C  C37  1  0.48245347  0.54892702  0.88055879  1.0
  C  C38  1  0.55205167  0.37525760  0.89446849  1.0
  C  C39  1  0.54833105  0.36425593  0.98629396  1.0
  C  C40  1  0.12164137  0.46792719  0.54277051  1.0
  O  O41  1  0.50313533  0.50079585  0.49958060  1.0
  O  O42  1  0.57426061  0.41701100  0.70461817  1.0
  O  O43  1  0.51497719  0.59555483  0.28414216  1.0
  O  O44  1  0.45962850  0.54913284  0.70179416  1.0
  O  O45  1  0.46411432  0.42823907  0.31143290  1.0
  O  O46  1  0.45623601  0.26480704  0.48993114  1.0
  O  O47  1  0.51928677  0.74577856  0.40978750  1.0
  O  O48  1  0.73618497  0.47411282  0.52981243  1.0
  O  O49  1  0.27620987  0.51276951  0.58801166  1.0
  O  O50  1  0.71510429  0.58533883  0.39653447  1.0
  O  O51  1  0.28035456  0.44147371  0.46341334  1.0
  O  O52  1  0.59163431  0.26892806  0.57340990  1.0
  O  O53  1  0.42049114  0.72135377  0.54371341  1.0
  F  F54  1  0.09497879  0.53565907  0.39198230  1.0
