# generated using pymatgen
data_CuH28C16(N3O2)2
_symmetry_space_group_name_H-M   'P 1'
_cell_length_a   6.86126615
_cell_length_b   17.13294428
_cell_length_c   17.13294552
_cell_angle_alpha   60.00974018
_cell_angle_beta   89.99327915
_cell_angle_gamma   89.99615250
_symmetry_Int_Tables_number   1
_chemical_formula_structural   CuH28C16(N3O2)2
_chemical_formula_sum   'Cu3 H84 C48 N18 O12'
_cell_volume   1744.38180548
_cell_formula_units_Z   3
loop_
 _symmetry_equiv_pos_site_id
 _symmetry_equiv_pos_as_xyz
  1  'x, y, z'
loop_
 _atom_site_type_symbol
 _atom_site_label
 _atom_site_symmetry_multiplicity
 _atom_site_fract_x
 _atom_site_fract_y
 _atom_site_fract_z
 _atom_site_occupancy
  Cu  Cu0  1  0.49999148  0.49999731  0.49999764  1.0
  Cu  Cu1  1  0.49999355  0.50000238  0.00000217  1.0
  Cu  Cu2  1  0.50001620  0.99999507  0.50000319  1.0
  H  H3  1  0.17168869  0.52431101  0.53941600  1.0
  H  H4  1  0.17166501  0.53939255  0.93628991  1.0
  H  H5  1  0.17167166  0.93632712  0.52429565  1.0
  H  H6  1  0.82830715  0.47568444  0.46058361  1.0
  H  H7  1  0.82833229  0.46061665  0.06369622  1.0
  H  H8  1  0.82834313  0.06368430  0.47569654  1.0
  H  H9  1  0.61858890  0.65355367  0.39407493  1.0
  H  H10  1  0.61865286  0.39405934  0.95236027  1.0
  H  H11  1  0.61855072  0.95239033  0.65357679  1.0
  H  H12  1  0.38139383  0.34644362  0.60592334  1.0
  H  H13  1  0.38136193  0.60594809  0.04764340  1.0
  H  H14  1  0.38144950  0.04760670  0.34642551  1.0
  H  H15  1  0.16782061  0.30578884  0.77422622  1.0
  H  H16  1  0.16775021  0.77421391  0.92003692  1.0
  H  H17  1  0.16784298  0.91995167  0.30578856  1.0
  H  H18  1  0.83217815  0.69420975  0.22577879  1.0
  H  H19  1  0.83225875  0.22577447  0.07997684  1.0
  H  H20  1  0.83215287  0.08004311  0.69421240  1.0
  H  H21  1  0.03482554  0.40578785  0.74411432  1.0
  H  H22  1  0.03477969  0.74404874  0.85018935  1.0
  H  H23  1  0.03481078  0.85013159  0.40578682  1.0
  H  H24  1  0.96518051  0.59421133  0.25589068  1.0
  H  H25  1  0.96521907  0.25593537  0.14982711  1.0
  H  H26  1  0.96518943  0.14986276  0.59421616  1.0
  H  H27  1  0.09227665  0.37543255  0.66041779  1.0
  H  H28  1  0.09227411  0.66039310  0.96420911  1.0
  H  H29  1  0.09233050  0.96417219  0.37541449  1.0
  H  H30  1  0.90771191  0.62456503  0.33958924  1.0
  H  H31  1  0.90775380  0.33958852  0.03580533  1.0
  H  H32  1  0.90766389  0.03582158  0.62458848  1.0
  H  H33  1  0.19802677  0.54719408  0.66861646  1.0
  H  H34  1  0.19803446  0.66855485  0.78425082  1.0
  H  H35  1  0.19794226  0.78424826  0.54718034  1.0
  H  H36  1  0.80198365  0.45280788  0.33138181  1.0
  H  H37  1  0.80198033  0.33144978  0.21574678  1.0
  H  H38  1  0.80205067  0.21575411  0.45282062  1.0
  H  H39  1  0.45638614  0.55118048  0.65362066  1.0
  H  H40  1  0.45639019  0.65359093  0.79523392  1.0
  H  H41  1  0.45629403  0.79520846  0.55119146  1.0
  H  H42  1  0.54361991  0.44881675  0.34637423  1.0
  H  H43  1  0.54362606  0.34641161  0.20476435  1.0
  H  H44  1  0.54369890  0.20478838  0.44881355  1.0
  H  H45  1  0.16876430  0.68042162  0.49927179  1.0
  H  H46  1  0.16879001  0.49919506  0.82036773  1.0
  H  H47  1  0.16859076  0.82045037  0.68039462  1.0
  H  H48  1  0.83122718  0.31957693  0.50072513  1.0
  H  H49  1  0.83123789  0.50080800  0.17962717  1.0
  H  H50  1  0.83139488  0.17955251  0.31960297  1.0
  H  H51  1  0.42711788  0.67576604  0.50941753  1.0
  H  H52  1  0.42714319  0.50937207  0.81483657  1.0
  H  H53  1  0.42693046  0.81485137  0.67578924  1.0
  H  H54  1  0.57287943  0.32423161  0.49057535  1.0
  H  H55  1  0.57288180  0.49063214  0.18516304  1.0
  H  H56  1  0.57305664  0.18514608  0.32421105  1.0
  H  H57  1  0.33143274  0.74409365  0.34877588  1.0
  H  H58  1  0.33152337  0.34873053  0.90714089  1.0
  H  H59  1  0.33132481  0.90722409  0.74409541  1.0
  H  H60  1  0.66854853  0.25590056  0.65122037  1.0
  H  H61  1  0.66849288  0.65127343  0.09285805  1.0
  H  H62  1  0.66867249  0.09277234  0.25590691  1.0
  H  H63  1  0.19048760  0.64643495  0.37423067  1.0
  H  H64  1  0.19055469  0.37417939  0.97935168  1.0
  H  H65  1  0.19046681  0.97943150  0.64641996  1.0
  H  H66  1  0.80950096  0.35355709  0.62576759  1.0
  H  H67  1  0.80944990  0.62582809  0.02064255  1.0
  H  H68  1  0.80953340  0.02056743  0.35358437  1.0
  H  H69  1  0.63096576  0.41541984  0.70081700  1.0
  H  H70  1  0.63094381  0.70083171  0.88377505  1.0
  H  H71  1  0.63096206  0.88371561  0.41543054  1.0
  H  H72  1  0.36903008  0.58458315  0.29917454  1.0
  H  H73  1  0.36906369  0.29916630  0.11622995  1.0
  H  H74  1  0.36902941  0.11628451  0.58456907  1.0
  H  H75  1  0.50175089  0.31076172  0.75647511  1.0
  H  H76  1  0.50168088  0.75649493  0.93278574  1.0
  H  H77  1  0.50178839  0.93268384  0.31077600  1.0
  H  H78  1  0.49825516  0.68923690  0.24352518  1.0
  H  H79  1  0.49832517  0.24350869  0.06721388  1.0
  H  H80  1  0.49821037  0.06731386  0.68922496  1.0
  H  H81  1  0.17619698  0.49229679  0.29800871  1.0
  H  H82  1  0.17624215  0.29796684  0.20972882  1.0
  H  H83  1  0.17619752  0.20973630  0.49228566  1.0
  H  H84  1  0.82380324  0.50769884  0.70200573  1.0
  H  H85  1  0.82376972  0.70204922  0.79026809  1.0
  H  H86  1  0.82379249  0.79025666  0.50771193  1.0
  C  C87  1  0.14611674  0.37608995  0.72079150  1.0
  C  C88  1  0.14609751  0.72076058  0.90317781  1.0
  C  C89  1  0.14612410  0.90312575  0.37608255  1.0
  C  C90  1  0.85388202  0.62390790  0.27921149  1.0
  C  C91  1  0.85391291  0.27922647  0.09683393  1.0
  C  C92  1  0.85387175  0.09686961  0.62391841  1.0
  C  C93  1  0.32070892  0.52051430  0.64743812  1.0
  C  C94  1  0.32070789  0.64740159  0.83209173  1.0
  C  C95  1  0.32065141  0.83207388  0.52051272  1.0
  C  C96  1  0.67929276  0.47948382  0.35256083  1.0
  C  C97  1  0.67930544  0.35259878  0.16790856  1.0
  C  C98  1  0.67934589  0.16792440  0.47948824  1.0
  C  C99  1  0.30075232  0.64895700  0.49094733  1.0
  C  C100  1  0.30078693  0.49090013  0.86012789  1.0
  C  C101  1  0.30063914  0.86016944  0.64894916  1.0
  C  C102  1  0.69923915  0.35104079  0.50905228  1.0
  C  C103  1  0.69923369  0.50910460  0.13986834  1.0
  C  C104  1  0.69935087  0.13983252  0.35104911  1.0
  C  C105  1  0.31992554  0.67054611  0.39375186  1.0
  C  C106  1  0.31998587  0.39371306  0.93571691  1.0
  C  C107  1  0.31986277  0.93577587  0.67054285  1.0
  C  C108  1  0.68006156  0.32944983  0.60624911  1.0
  C  C109  1  0.68002746  0.60629182  0.06428136  1.0
  C  C110  1  0.68013453  0.06422324  0.32945879  1.0
  C  C111  1  0.49917104  0.38024535  0.69831559  1.0
  C  C112  1  0.49913794  0.69832606  0.92146140  1.0
  C  C113  1  0.49918811  0.92139025  0.38024925  1.0
  C  C114  1  0.50082335  0.61975495  0.30168132  1.0
  C  C115  1  0.50086665  0.30167321  0.07854225  1.0
  C  C116  1  0.50080774  0.07860744  0.61975172  1.0
  C  C117  1  0.18003995  0.37502838  0.47911833  1.0
  C  C118  1  0.18010215  0.47910203  0.14589618  1.0
  C  C119  1  0.18009446  0.14588302  0.37500235  1.0
  C  C120  1  0.81993549  0.62495618  0.52089139  1.0
  C  C121  1  0.81992722  0.52091815  0.85410883  1.0
  C  C122  1  0.81985766  0.85412620  0.62497906  1.0
  C  C123  1  0.17508530  0.35330230  0.40358405  1.0
  C  C124  1  0.17513461  0.40356848  0.24313995  1.0
  C  C125  1  0.17514038  0.24312725  0.35329725  1.0
  C  C126  1  0.82490034  0.64668803  0.59642230  1.0
  C  C127  1  0.82489767  0.59644249  0.75685899  1.0
  C  C128  1  0.82485984  0.75687121  0.64670101  1.0
  C  C129  1  0.17506635  0.42256534  0.31351041  1.0
  C  C130  1  0.17507315  0.31349893  0.26394347  1.0
  C  C131  1  0.17505173  0.26395795  0.42255051  1.0
  C  C132  1  0.82494844  0.57743869  0.68649189  1.0
  C  C133  1  0.82494019  0.68651406  0.73605142  1.0
  C  C134  1  0.82492517  0.73604195  0.57744371  1.0
  N  N135  1  0.32957380  0.42472556  0.70645955  1.0
  N  N136  1  0.32955358  0.70644436  0.86885222  1.0
  N  N137  1  0.32956857  0.86880822  0.42472411  1.0
  N  N138  1  0.67042204  0.57527349  0.29353871  1.0
  N  N139  1  0.67045101  0.29355567  0.13114875  1.0
  N  N140  1  0.67042873  0.13118889  0.57527685  1.0
  N  N141  1  0.29874482  0.54999946  0.55004622  1.0
  N  N142  1  0.29874643  0.55001205  0.89998671  1.0
  N  N143  1  0.29871303  0.90000007  0.54998890  1.0
  N  N144  1  0.70125103  0.44999624  0.44995407  1.0
  N  N145  1  0.70126399  0.44999175  0.10001021  1.0
  N  N146  1  0.70128573  0.10000063  0.45001071  1.0
  N  N147  1  0.49267095  0.62301202  0.38680241  1.0
  N  N148  1  0.49272527  0.38678573  0.99017945  1.0
  N  N149  1  0.49265110  0.99021843  0.62302462  1.0
  N  N150  1  0.50731615  0.37698518  0.61319721  1.0
  N  N151  1  0.50727932  0.61321805  0.00982218  1.0
  N  N152  1  0.50734765  0.00978068  0.37697702  1.0
  O  O153  1  0.19816166  0.30915530  0.55915435  1.0
  O  O154  1  0.19820240  0.55914174  0.13175172  1.0
  O  O155  1  0.19833328  0.13171588  0.30911494  1.0
  O  O156  1  0.80181815  0.69084090  0.44084728  1.0
  O  O157  1  0.80182405  0.44087600  0.86825935  1.0
  O  O158  1  0.80168734  0.86829570  0.69086176  1.0
  O  O159  1  0.16922669  0.45799940  0.45645161  1.0
  O  O160  1  0.16927333  0.45643098  0.08559347  1.0
  O  O161  1  0.16919590  0.08559725  0.45795366  1.0
  O  O162  1  0.83076916  0.54199744  0.54355339  1.0
  O  O163  1  0.83075604  0.54358921  0.91441153  1.0
  O  O164  1  0.83069938  0.91440787  0.54201495  1.0
