# generated using pymatgen
data_NiH24C36(NO2)2
_symmetry_space_group_name_H-M   'P 1'
_cell_length_a   16.11314679
_cell_length_b   19.18416338
_cell_length_c   19.18418512
_cell_angle_alpha   79.86534032
_cell_angle_beta   65.18199544
_cell_angle_gamma   65.18213177
_symmetry_Int_Tables_number   1
_chemical_formula_structural   NiH24C36(NO2)2
_chemical_formula_sum   'Ni4 H96 C144 N8 O16'
_cell_volume   4885.39501571
_cell_formula_units_Z   4
loop_
 _symmetry_equiv_pos_site_id
 _symmetry_equiv_pos_as_xyz
  1  'x, y, z'
loop_
 _atom_site_type_symbol
 _atom_site_label
 _atom_site_symmetry_multiplicity
 _atom_site_fract_x
 _atom_site_fract_y
 _atom_site_fract_z
 _atom_site_occupancy
  Ni  Ni0  1  0.64489404  0.00001134  0.99981392  1.0
  Ni  Ni1  1  0.89486028  0.50008349  0.50001550  1.0
  Ni  Ni2  1  0.14489836  0.99980824  0.00000953  1.0
  Ni  Ni3  1  0.39485997  0.50001205  0.50008694  1.0
  H  H4  1  0.62093441  0.61130816  0.70978138  1.0
  H  H5  1  0.94168778  0.38887029  0.29059346  1.0
  H  H6  1  0.48206794  0.20990556  0.88864848  1.0
  H  H7  1  0.58058400  0.79031559  0.11101124  1.0
  H  H8  1  0.44168689  0.29058941  0.38886668  1.0
  H  H9  1  0.12093777  0.70977690  0.61130652  1.0
  H  H10  1  0.08059210  0.11100614  0.79031260  1.0
  H  H11  1  0.98207810  0.88863561  0.20990087  1.0
  H  H12  1  0.43799854  0.67913093  0.77888240  1.0
  H  H13  1  0.89580328  0.32112127  0.22122904  1.0
  H  H14  1  0.36682541  0.27908298  0.82096498  1.0
  H  H15  1  0.46671526  0.72118151  0.17878242  1.0
  H  H16  1  0.39579510  0.22123075  0.32111937  1.0
  H  H17  1  0.93800042  0.77888134  0.67912694  1.0
  H  H18  1  0.96672186  0.17877805  0.72117863  1.0
  H  H19  1  0.86682886  0.82095519  0.27907521  1.0
  H  H20  1  0.40490097  0.72987705  0.56188049  1.0
  H  H21  1  0.69679364  0.26975474  0.43801533  1.0
  H  H22  1  0.38483551  0.06215373  0.76965613  1.0
  H  H23  1  0.21673139  0.93821525  0.23022050  1.0
  H  H24  1  0.19679063  0.43802008  0.26975488  1.0
  H  H25  1  0.90490455  0.56187758  0.72987891  1.0
  H  H26  1  0.71673816  0.23022317  0.93821437  1.0
  H  H27  1  0.88484571  0.76964614  0.06214780  1.0
  H  H28  1  0.58776655  0.66250301  0.49376661  1.0
  H  H29  1  0.74398414  0.33711719  0.50636854  1.0
  H  H30  1  0.50036365  0.99393967  0.83694961  1.0
  H  H31  1  0.33152955  0.00628961  0.16286136  1.0
  H  H32  1  0.24398742  0.50636799  0.33711911  1.0
  H  H33  1  0.08776965  0.49376566  0.66250440  1.0
  H  H34  1  0.83153367  0.16286034  0.00628607  1.0
  H  H35  1  0.00037421  0.83694000  0.99393447  1.0
  H  H36  1  0.32217751  0.80432816  0.79574256  1.0
  H  H37  1  0.92224578  0.19575296  0.20405258  1.0
  H  H38  1  0.37615460  0.29596601  0.69558072  1.0
  H  H39  1  0.36784045  0.70441693  0.30423453  1.0
  H  H40  1  0.42223868  0.20405710  0.19575109  1.0
  H  H41  1  0.82218159  0.79574208  0.80433109  1.0
  H  H42  1  0.86784430  0.30423566  0.70441651  1.0
  H  H43  1  0.87616103  0.69557353  0.29596249  1.0
  H  H44  1  0.14294370  0.87567903  0.86851138  1.0
  H  H45  1  0.88704827  0.12438736  0.13128854  1.0
  H  H46  1  0.26792911  0.36877683  0.62447782  1.0
  H  H47  1  0.26149987  0.63151270  0.37550731  1.0
  H  H48  1  0.38704076  0.13128981  0.12438761  1.0
  H  H49  1  0.64294791  0.86851187  0.87568239  1.0
  H  H50  1  0.76150532  0.37550945  0.63151431  1.0
  H  H51  1  0.76792731  0.62447567  0.36877495  1.0
  H  H52  1  0.07573009  0.77790136  0.72285489  1.0
  H  H53  1  0.57649900  0.22214718  0.27704514  1.0
  H  H54  1  0.10298278  0.22314982  0.72246984  1.0
  H  H55  1  0.04867809  0.77693176  0.27762979  1.0
  H  H56  1  0.07649300  0.27705269  0.22214481  1.0
  H  H57  1  0.57573016  0.72285746  0.77790582  1.0
  H  H58  1  0.54868055  0.27762977  0.77693162  1.0
  H  H59  1  0.60297837  0.72247183  0.22315050  1.0
  H  H60  1  0.25500877  0.70750772  0.64907493  1.0
  H  H61  1  0.61172995  0.29263709  0.35070504  1.0
  H  H62  1  0.21215431  0.14940162  0.79266122  1.0
  H  H63  1  0.15415326  0.85078199  0.20728862  1.0
  H  H64  1  0.11172484  0.35071176  0.29263581  1.0
  H  H65  1  0.75500809  0.64907875  0.70750776  1.0
  H  H66  1  0.65415396  0.20729108  0.85077988  1.0
  H  H67  1  0.71216146  0.79265758  0.14939962  1.0
  H  H68  1  0.99941043  0.98295243  0.84730196  1.0
  H  H69  1  0.82939575  0.01679693  0.15295858  1.0
  H  H70  1  0.23209542  0.34727302  0.51723773  1.0
  H  H71  1  0.09684124  0.65279721  0.48280180  1.0
  H  H72  1  0.32938035  0.15297169  0.01679479  1.0
  H  H73  1  0.49941495  0.84729973  0.98295598  1.0
  H  H74  1  0.59684635  0.48280566  0.65279585  1.0
  H  H75  1  0.73209154  0.51724324  0.34727185  1.0
  H  H76  1  0.81855248  0.04800860  0.92243197  1.0
  H  H77  1  0.78855288  0.95171545  0.07788251  1.0
  H  H78  1  0.11652663  0.42235206  0.45193476  1.0
  H  H79  1  0.99100914  0.57775653  0.54800089  1.0
  H  H80  1  0.28854346  0.07789193  0.95171266  1.0
  H  H81  1  0.31855422  0.92242711  0.04801212  1.0
  H  H82  1  0.49101293  0.54800034  0.57775474  1.0
  H  H83  1  0.61652493  0.45193828  0.42235662  1.0
  H  H84  1  0.77111736  0.84943395  0.93401194  1.0
  H  H85  1  0.55480122  0.15044108  0.06567627  1.0
  H  H86  1  0.87026893  0.43409146  0.65024952  1.0
  H  H87  1  0.95502909  0.56585843  0.34954898  1.0
  H  H88  1  0.05480275  0.06567405  0.15043970  1.0
  H  H89  1  0.27112273  0.93400812  0.84943549  1.0
  H  H90  1  0.45503679  0.34954524  0.56586031  1.0
  H  H91  1  0.37026700  0.65024740  0.43409437  1.0
  H  H92  1  0.95059030  0.77629806  0.85506745  1.0
  H  H93  1  0.58203288  0.22354778  0.14483719  1.0
  H  H94  1  0.97634941  0.35521478  0.72366468  1.0
  H  H95  1  0.05558206  0.64477432  0.27626414  1.0
  H  H96  1  0.08202971  0.14483598  0.22354500  1.0
  H  H97  1  0.45059978  0.85506852  0.77630050  1.0
  H  H98  1  0.55558993  0.27626347  0.64477720  1.0
  H  H99  1  0.47634435  0.72366419  0.35521602  1.0
  C  C100  1  0.72420179  0.59217927  0.55806944  1.0
  C  C101  1  0.87419624  0.40781084  0.44219048  1.0
  C  C102  1  0.56624778  0.05822832  0.90770413  1.0
  C  C103  1  0.53223803  0.94196133  0.09202278  1.0
  C  C104  1  0.37419380  0.44219070  0.40781162  1.0
  C  C105  1  0.22420320  0.55806651  0.59217943  1.0
  C  C106  1  0.03224358  0.09201875  0.94195962  1.0
  C  C107  1  0.06625380  0.90769609  0.05822144  1.0
  C  C108  1  0.61548863  0.63436325  0.59781051  1.0
  C  C109  1  0.84741913  0.36557176  0.40243902  1.0
  C  C110  1  0.49974268  0.09795387  0.86545392  1.0
  C  C111  1  0.46322775  0.90224443  0.13433481  1.0
  C  C112  1  0.34741641  0.40243860  0.36557535  1.0
  C  C113  1  0.11548979  0.59780773  0.63436135  1.0
  C  C114  1  0.96323493  0.13432949  0.90224417  1.0
  C  C115  1  0.99974783  0.86544552  0.09794758  1.0
  C  C116  1  0.57277663  0.63889120  0.67815232  1.0
  C  C117  1  0.88954260  0.36119651  0.32208394  1.0
  C  C118  1  0.46147719  0.17830844  0.86101937  1.0
  C  C119  1  0.50080771  0.82189896  0.13873690  1.0
  C  C120  1  0.38953591  0.32208281  0.36119833  1.0
  C  C121  1  0.07277828  0.67815084  0.63888786  1.0
  C  C122  1  0.00081370  0.13873128  0.82189819  1.0
  C  C123  1  0.96148358  0.86101158  0.17830223  1.0
  C  C124  1  0.47103970  0.67670382  0.71624298  1.0
  C  C125  1  0.86380799  0.32338194  0.28387054  1.0
  C  C126  1  0.39747695  0.21644709  0.82326872  1.0
  C  C127  1  0.43714298  0.78381582  0.17654907  1.0
  C  C128  1  0.36380224  0.28387194  0.32338201  1.0
  C  C129  1  0.97103946  0.71624139  0.67670222  1.0
  C  C130  1  0.93714807  0.17654541  0.78381461  1.0
  C  C131  1  0.89748267  0.82325975  0.21643981  1.0
  C  C132  1  0.40901290  0.71033295  0.67507466  1.0
  C  C133  1  0.79446928  0.28953102  0.32490190  1.0
  C  C134  1  0.36911708  0.17533294  0.78952689  1.0
  C  C135  1  0.33396387  0.82496952  0.21034188  1.0
  C  C136  1  0.29446331  0.32490536  0.28953096  1.0
  C  C137  1  0.90901509  0.67507346  0.71033163  1.0
  C  C138  1  0.83396717  0.21033810  0.82496674  1.0
  C  C139  1  0.86912318  0.78951925  0.17532601  1.0
  C  C140  1  0.45213693  0.70412852  0.59449663  1.0
  C  C141  1  0.75079112  0.29562513  0.40550027  1.0
  C  C142  1  0.40620421  0.09475282  0.79555619  1.0
  C  C143  1  0.29656582  0.90555707  0.20430593  1.0
  C  C144  1  0.25078467  0.40550309  0.29562777  1.0
  C  C145  1  0.95213715  0.59449690  0.70412847  1.0
  C  C146  1  0.79657161  0.20430296  0.90555337  1.0
  C  C147  1  0.90621398  0.79554516  0.09474546  1.0
  C  C148  1  0.55422981  0.66693790  0.55621560  1.0
  C  C149  1  0.77728498  0.33283677  0.44391306  1.0
  C  C150  1  0.47113605  0.05640511  0.83271263  1.0
  C  C151  1  0.36040101  0.94382931  0.16709472  1.0
  C  C152  1  0.27728173  0.44391380  0.33283843  1.0
  C  C153  1  0.05423078  0.55621526  0.66693943  1.0
  C  C154  1  0.86040547  0.16709424  0.94382466  1.0
  C  C155  1  0.97114263  0.83270424  0.05639774  1.0
  C  C156  1  0.30160704  0.75202864  0.71657091  1.0
  C  C157  1  0.77030072  0.24787427  0.28329074  1.0
  C  C158  1  0.30325513  0.21684889  0.74795478  1.0
  C  C159  1  0.26807411  0.78343106  0.25195248  1.0
  C  C160  1  0.27029075  0.28329569  0.24787498  1.0
  C  C161  1  0.80160974  0.71657047  0.75202995  1.0
  C  C162  1  0.76807979  0.25195054  0.78342896  1.0
  C  C163  1  0.80326028  0.74794803  0.21684384  1.0
  C  C164  1  0.26807771  0.79936002  0.77897137  1.0
  C  C165  1  0.84645557  0.20061610  0.22086055  1.0
  C  C166  1  0.31703906  0.27921892  0.70063096  1.0
  C  C167  1  0.29699377  0.72107567  0.29927240  1.0
  C  C168  1  0.34644714  0.22086531  0.20061597  1.0
  C  C169  1  0.76808345  0.77897013  0.79936009  1.0
  C  C170  1  0.79699710  0.29927305  0.72107542  1.0
  C  C171  1  0.81704524  0.70062467  0.27921486  1.0
  C  C172  1  0.16760724  0.84029185  0.81933488  1.0
  C  C173  1  0.82719435  0.15971310  0.18050997  1.0
  C  C174  1  0.25729616  0.31959624  0.65986066  1.0
  C  C175  1  0.23697174  0.68063586  0.34010798  1.0
  C  C176  1  0.32718854  0.18051356  0.15971241  1.0
  C  C177  1  0.66761265  0.81933348  0.84029493  1.0
  C  C178  1  0.73697554  0.34011102  0.68063679  1.0
  C  C179  1  0.75729712  0.65986030  0.31959416  1.0
  C  C180  1  0.09729460  0.83269196  0.79937941  1.0
  C  C181  1  0.72934474  0.16725073  0.20054988  1.0
  C  C182  1  0.17939070  0.29961113  0.66752200  1.0
  C  C183  1  0.14673361  0.70052770  0.33248828  1.0
  C  C184  1  0.22933718  0.20055785  0.16724925  1.0
  C  C185  1  0.59729818  0.79938024  0.83269525  1.0
  C  C186  1  0.64673509  0.33249394  0.70052936  1.0
  C  C187  1  0.67938642  0.66752593  0.29961340  1.0
  C  C188  1  0.13019677  0.78436940  0.73802991  1.0
  C  C189  1  0.65261819  0.21559986  0.26189255  1.0
  C  C190  1  0.16397208  0.23830937  0.71587272  1.0
  C  C191  1  0.11824822  0.76183593  0.28417275  1.0
  C  C192  1  0.15260947  0.26189944  0.21560160  1.0
  C  C193  1  0.63019861  0.73803078  0.78437066  1.0
  C  C194  1  0.61825001  0.28417712  0.76183506  1.0
  C  C195  1  0.66396705  0.71587392  0.23830958  1.0
  C  C196  1  0.23100659  0.74531024  0.69619247  1.0
  C  C197  1  0.67258795  0.25466708  0.30370669  1.0
  C  C198  1  0.22586615  0.19649439  0.75481925  1.0
  C  C199  1  0.17717011  0.80372902  0.24515108  1.0
  C  C200  1  0.17258072  0.30371031  0.25466851  1.0
  C  C201  1  0.73100857  0.69619408  0.74531130  1.0
  C  C202  1  0.67717519  0.24515075  0.80372557  1.0
  C  C203  1  0.72586571  0.75481647  0.19649329  1.0
  C  C204  1  0.99065648  0.87376626  0.84366605  1.0
  C  C205  1  0.70804421  0.12607388  0.15633947  1.0
  C  C206  1  0.11395424  0.34374330  0.62632952  1.0
  C  C207  1  0.08430859  0.65632234  0.37366534  1.0
  C  C208  1  0.20803757  0.15634514  0.12607052  1.0
  C  C209  1  0.49066294  0.84366562  0.87376907  1.0
  C  C210  1  0.58431449  0.37366864  0.65632296  1.0
  C  C211  1  0.61394895  0.62633374  0.34374611  1.0
  C  C212  1  0.95164727  0.95109530  0.86446620  1.0
  C  C213  1  0.76704501  0.04868167  0.13568343  1.0
  C  C214  1  0.15246253  0.36443217  0.54899601  1.0
  C  C215  1  0.06611611  0.63564957  0.45100905  1.0
  C  C216  1  0.26703468  0.13569343  0.04867985  1.0
  C  C217  1  0.45165219  0.86446376  0.95109735  1.0
  C  C218  1  0.56612293  0.45101007  0.63564766  1.0
  C  C219  1  0.65245852  0.54899981  0.36443391  1.0
  C  C220  1  0.85084384  0.98764700  0.90673812  1.0
  C  C221  1  0.74498172  0.01210963  0.09346484  1.0
  C  C222  1  0.08838770  0.40669129  0.51229999  1.0
  C  C223  1  0.00753247  0.59342065  0.48764204  1.0
  C  C224  1  0.24497481  0.09347100  0.01210528  1.0
  C  C225  1  0.35084856  0.90673591  0.98764893  1.0
  C  C226  1  0.50753835  0.48764086  0.59341996  1.0
  C  C227  1  0.58838518  0.51230217  0.40669286  1.0
  C  C228  1  0.82452490  0.87676446  0.91186839  1.0
  C  C229  1  0.61323994  0.12308490  0.08798633  1.0
  C  C230  1  0.95099820  0.41193831  0.62308561  1.0
  C  C231  1  0.98635098  0.58804794  0.37679870  1.0
  C  C232  1  0.11323626  0.08798906  0.12308043  1.0
  C  C233  1  0.32453163  0.91186727  0.87676433  1.0
  C  C234  1  0.48635930  0.37679541  0.58804993  1.0
  C  C235  1  0.45099514  0.62308469  0.41194019  1.0
  C  C236  1  0.92400505  0.83680308  0.86815571  1.0
  C  C237  1  0.62896294  0.16302844  0.13180804  1.0
  C  C238  1  0.01035123  0.36823320  0.66316240  1.0
  C  C239  1  0.04211005  0.63175202  0.33677277  1.0
  C  C240  1  0.12895624  0.13181093  0.16302799  1.0
  C  C241  1  0.42401323  0.86815447  0.83680376  1.0
  C  C242  1  0.54211905  0.33677255  0.63175311  1.0
  C  C243  1  0.51034705  0.66316320  0.36823575  1.0
  N  N244  1  0.78793965  0.95120914  0.93092301  1.0
  N  N245  1  0.67006754  0.04862302  0.06902370  1.0
  N  N246  1  0.98903749  0.43097991  0.54867588  1.0
  N  N247  1  0.96885556  0.56910518  0.45125194  1.0
  N  N248  1  0.17006137  0.06902964  0.04861984  1.0
  N  N249  1  0.28794399  0.93092089  0.95120966  1.0
  N  N250  1  0.46885827  0.45124948  0.56910780  1.0
  N  N251  1  0.48903686  0.54867606  0.43098206  1.0
  O  O252  1  0.76246127  0.58140525  0.48558925  1.0
  O  O253  1  0.82914334  0.41867425  0.51464545  1.0
  O  O254  1  0.59376400  0.98574923  0.91842234  1.0
  O  O255  1  0.49805899  0.01441954  0.08122815  1.0
  O  O256  1  0.32914351  0.51464625  0.41867289  1.0
  O  O257  1  0.26245528  0.48558895  0.58141084  1.0
  O  O258  1  0.99806528  0.08122369  0.01441788  1.0
  O  O259  1  0.09376964  0.91841334  0.98574173  1.0
  O  O260  1  0.77886203  0.56368582  0.59744703  1.0
  O  O261  1  0.93976518  0.43627437  0.40277266  1.0
  O  O262  1  0.59233310  0.09762053  0.93627852  1.0
  O  O263  1  0.62626432  0.90257077  0.06343405  1.0
  O  O264  1  0.43976318  0.40277373  0.43627587  1.0
  O  O265  1  0.27886370  0.59744379  0.56368526  1.0
  O  O266  1  0.12626932  0.06342940  0.90256907  1.0
  O  O267  1  0.09233564  0.93627160  0.09761633  1.0
