# generated using pymatgen
data_Ni2H84C61(NO)12
_symmetry_space_group_name_H-M   'P 1'
_cell_length_a   9.03212764
_cell_length_b   18.90068634
_cell_length_c   23.16508146
_cell_angle_alpha   89.50989934
_cell_angle_beta   79.28904508
_cell_angle_gamma   76.59694611
_symmetry_Int_Tables_number   1
_chemical_formula_structural   Ni2H84C61(NO)12
_chemical_formula_sum   'Ni4 H168 C122 N24 O24'
_cell_volume   3777.39088748
_cell_formula_units_Z   2
loop_
 _symmetry_equiv_pos_site_id
 _symmetry_equiv_pos_as_xyz
  1  'x, y, z'
loop_
 _atom_site_type_symbol
 _atom_site_label
 _atom_site_symmetry_multiplicity
 _atom_site_fract_x
 _atom_site_fract_y
 _atom_site_fract_z
 _atom_site_occupancy
  Ni  Ni0  1  0.99999702  0.50000108  0.49999893  1.0
  Ni  Ni1  1  0.49999751  0.99999918  0.00000048  1.0
  Ni  Ni2  1  0.49999808  0.99999945  0.50000051  1.0
  Ni  Ni3  1  0.49999273  0.50000144  0.00000130  1.0
  H  H4  1  0.50894135  0.88351107  0.44870127  1.0
  H  H5  1  0.08190792  0.40466698  0.57040448  1.0
  H  H6  1  0.66980729  0.63403141  0.72858914  1.0
  H  H7  1  0.50104002  0.67141513  0.78301023  1.0
  H  H8  1  0.84991526  0.70718713  0.68798215  1.0
  H  H9  1  0.70170392  0.76423397  0.65547061  1.0
  H  H10  1  0.30236520  0.73102768  0.62636320  1.0
  H  H11  1  0.16995669  0.64823566  0.58302518  1.0
  H  H12  1  0.34170087  0.47821480  0.69361085  1.0
  H  H13  1  0.48347885  0.55863392  0.73533354  1.0
  H  H14  1  0.93111846  0.75202115  0.59693108  1.0
  H  H15  1  0.15593533  0.78020602  0.52795238  1.0
  H  H16  1  0.18484960  0.94265309  0.65061190  1.0
  H  H17  1  0.96914491  0.91082015  0.72267569  1.0
  H  H18  1  0.84894334  0.36795187  0.61056485  1.0
  H  H19  1  0.77443337  0.40100502  0.54697122  1.0
  H  H20  1  0.12094492  0.50708842  0.36682239  1.0
  H  H21  1  0.31832905  0.50949700  0.36465011  1.0
  H  H22  1  0.36862039  0.49751373  0.47985735  1.0
  H  H23  1  0.45669228  0.43529324  0.41921558  1.0
  H  H24  1  0.51249018  0.37171442  0.50493490  1.0
  H  H25  1  0.32132635  0.40108121  0.54477614  1.0
  H  H26  1  0.09194086  0.39651187  0.39801286  1.0
  H  H27  1  0.29990882  0.36665711  0.37878337  1.0
  H  H28  1  0.08018965  0.28707400  0.52758227  1.0
  H  H29  1  0.96666005  0.33638027  0.47840709  1.0
  H  H30  1  0.44063964  0.28994074  0.44151837  1.0
  H  H31  1  0.34841783  0.27561578  0.51314127  1.0
  H  H32  1  0.50210672  0.91701142  0.60844231  1.0
  H  H33  1  0.68439420  0.90614310  0.63246587  1.0
  H  H34  1  0.75222196  0.00823952  0.67028228  1.0
  H  H35  1  0.64102341  0.09719929  0.66240612  1.0
  H  H36  1  0.89720830  0.05553309  0.58618079  1.0
  H  H37  1  0.72971976  0.09029798  0.55651911  1.0
  H  H38  1  0.87074717  0.98017420  0.49984253  1.0
  H  H39  1  0.90311413  0.93166792  0.56427196  1.0
  H  H40  1  0.63440695  0.84239931  0.53096065  1.0
  H  H41  1  0.83471997  0.84026041  0.52476325  1.0
  H  H42  1  0.81992750  0.91290067  0.43162062  1.0
  H  H43  1  0.77936605  0.82563662  0.42635897  1.0
  H  H44  1  0.68261777  0.96919305  0.36518475  1.0
  H  H45  1  0.61671059  0.89252091  0.34452195  1.0
  H  H46  1  0.34521052  0.61610396  0.05117320  1.0
  H  H47  1  0.56372483  0.09141248  0.93092221  1.0
  H  H48  1  0.53802241  0.86623009  0.76967535  1.0
  H  H49  1  0.45852280  0.82906724  0.71479208  1.0
  H  H50  1  0.74772985  0.79259662  0.81142518  1.0
  H  H51  1  0.62266700  0.73562169  0.84306913  1.0
  H  H52  1  0.16330130  0.76813111  0.86863389  1.0
  H  H53  1  0.90790900  0.85094710  0.91114061  1.0
  H  H54  1  0.02470973  0.02200109  0.80294462  1.0
  H  H55  1  0.28573996  0.94186104  0.76247543  1.0
  H  H56  1  0.78397890  0.74758812  0.90246060  1.0
  H  H57  1  0.96986237  0.71971653  0.97165134  1.0
  H  H58  1  0.27528702  0.55779531  0.84904999  1.0
  H  H59  1  0.09815615  0.58947117  0.77667843  1.0
  H  H60  1  0.33979253  0.13042119  0.88821146  1.0
  H  H61  1  0.22948655  0.09744938  0.95013802  1.0
  H  H62  1  0.48934930  0.99477401  0.13327463  1.0
  H  H63  1  0.68600864  0.99406584  0.13676791  1.0
  H  H64  1  0.83895314  0.00225601  0.02008343  1.0
  H  H65  1  0.80804687  0.06403137  0.08129079  1.0
  H  H66  1  0.88805288  0.12751637  0.99617045  1.0
  H  H67  1  0.76444269  0.09914832  0.95532119  1.0
  H  H68  1  0.38567196  0.10404837  0.10073408  1.0
  H  H69  1  0.54667034  0.13269290  0.12147363  1.0
  H  H70  1  0.40054614  0.20939933  0.96991262  1.0
  H  H71  1  0.28668395  0.16083183  0.01967952  1.0
  H  H72  1  0.67633372  0.20970596  0.05931662  1.0
  H  H73  1  0.63986865  0.22485940  0.98759771  1.0
  H  H74  1  0.52639929  0.58306858  0.89156571  1.0
  H  H75  1  0.72085034  0.59442288  0.86810614  1.0
  H  H76  1  0.92490728  0.49279760  0.83046903  1.0
  H  H77  1  0.89366569  0.40360454  0.83803568  1.0
  H  H78  1  0.03483353  0.44583822  0.91469539  1.0
  H  H79  1  0.87367067  0.41026433  0.94395664  1.0
  H  H80  1  0.85087253  0.52046237  0.00102634  1.0
  H  H81  1  0.89787229  0.56928630  0.93680500  1.0
  H  H82  1  0.51021948  0.65761343  0.96935072  1.0
  H  H83  1  0.70179310  0.66023992  0.97624554  1.0
  H  H84  1  0.66760407  0.58721485  0.06917858  1.0
  H  H85  1  0.53682160  0.67434864  0.07427864  1.0
  H  H86  1  0.52086404  0.53099314  0.13536348  1.0
  H  H87  1  0.36006513  0.60742169  0.15547479  1.0
  H  H88  1  0.49105816  0.11648910  0.55130008  1.0
  H  H89  1  0.91809082  0.59533483  0.42959346  1.0
  H  H90  1  0.33019082  0.36596494  0.27141017  1.0
  H  H91  1  0.49895640  0.32858232  0.21698963  1.0
  H  H92  1  0.15008680  0.29281033  0.31201645  1.0
  H  H93  1  0.29829449  0.23576402  0.34452824  1.0
  H  H94  1  0.69764872  0.26896871  0.37363156  1.0
  H  H95  1  0.83004683  0.35176343  0.41697158  1.0
  H  H96  1  0.65828318  0.52178698  0.30639157  1.0
  H  H97  1  0.51650462  0.44136676  0.26466936  1.0
  H  H98  1  0.06888438  0.24797467  0.40307049  1.0
  H  H99  1  0.84406502  0.21979469  0.47204934  1.0
  H  H100  1  0.81513005  0.05735304  0.34938778  1.0
  H  H101  1  0.03083781  0.08918435  0.27732379  1.0
  H  H102  1  0.15106181  0.63204831  0.38943524  1.0
  H  H103  1  0.22556640  0.59899460  0.45303054  1.0
  H  H104  1  0.87905857  0.49291285  0.63317695  1.0
  H  H105  1  0.68167272  0.49050318  0.63535065  1.0
  H  H106  1  0.63137459  0.50248426  0.52014519  1.0
  H  H107  1  0.54330722  0.56470476  0.58078492  1.0
  H  H108  1  0.48750481  0.62828138  0.49506549  1.0
  H  H109  1  0.67866584  0.59891568  0.45522401  1.0
  H  H110  1  0.90805478  0.60348939  0.60198573  1.0
  H  H111  1  0.70008511  0.63334305  0.62121578  1.0
  H  H112  1  0.91980485  0.71292725  0.47241684  1.0
  H  H113  1  0.03333191  0.66362153  0.52159305  1.0
  H  H114  1  0.55935456  0.71005670  0.55847991  1.0
  H  H115  1  0.65157188  0.72438166  0.48685646  1.0
  H  H116  1  0.49788969  0.08299256  0.39156183  1.0
  H  H117  1  0.31560249  0.09386033  0.36753738  1.0
  H  H118  1  0.24778155  0.99176611  0.32971833  1.0
  H  H119  1  0.35897842  0.90280524  0.33759375  1.0
  H  H120  1  0.10279072  0.94447035  0.41381842  1.0
  H  H121  1  0.27027896  0.90970600  0.44348142  1.0
  H  H122  1  0.12924649  0.01982868  0.50015749  1.0
  H  H123  1  0.09688683  0.06833607  0.43572927  1.0
  H  H124  1  0.36558832  0.15760248  0.46904271  1.0
  H  H125  1  0.16527585  0.15974030  0.47524051  1.0
  H  H126  1  0.18007338  0.08709896  0.56838236  1.0
  H  H127  1  0.22063201  0.17436409  0.57364550  1.0
  H  H128  1  0.31738396  0.03081148  0.63482074  1.0
  H  H129  1  0.38329401  0.10748254  0.65547947  1.0
  H  H130  1  0.65478925  0.38389567  0.94882943  1.0
  H  H131  1  0.43628202  0.90858662  0.06907690  1.0
  H  H132  1  0.46198131  0.13376628  0.23032400  1.0
  H  H133  1  0.54147952  0.17092967  0.28520780  1.0
  H  H134  1  0.25227614  0.20739758  0.18857186  1.0
  H  H135  1  0.37733925  0.26437196  0.15692919  1.0
  H  H136  1  0.83670133  0.23186962  0.13136594  1.0
  H  H137  1  0.09209591  0.14905581  0.08885905  1.0
  H  H138  1  0.97530450  0.97799694  0.19704967  1.0
  H  H139  1  0.71426664  0.05813425  0.23751984  1.0
  H  H140  1  0.21603152  0.25241535  0.09752962  1.0
  H  H141  1  0.03014637  0.28029020  0.02834070  1.0
  H  H142  1  0.72470935  0.44219777  0.15095032  1.0
  H  H143  1  0.90184299  0.41051647  0.22332084  1.0
  H  H144  1  0.66021542  0.86957573  0.11178759  1.0
  H  H145  1  0.77052200  0.90254864  0.04985969  1.0
  H  H146  1  0.51066231  0.00522455  0.86672502  1.0
  H  H147  1  0.31400270  0.00593109  0.86323047  1.0
  H  H148  1  0.16105682  0.99774581  0.97991632  1.0
  H  H149  1  0.19195943  0.93596882  0.91870836  1.0
  H  H150  1  0.11194867  0.87248653  0.00382859  1.0
  H  H151  1  0.23555743  0.90085295  0.04467838  1.0
  H  H152  1  0.61433287  0.89594800  0.89926649  1.0
  H  H153  1  0.45333565  0.86730566  0.87852598  1.0
  H  H154  1  0.59945647  0.79059921  0.03008723  1.0
  H  H155  1  0.71331865  0.83916454  0.98031990  1.0
  H  H156  1  0.32366440  0.79029476  0.94068439  1.0
  H  H157  1  0.36012861  0.77514077  0.01240336  1.0
  H  H158  1  0.47360019  0.41693377  0.10843866  1.0
  H  H159  1  0.27915136  0.40557729  0.13189851  1.0
  H  H160  1  0.07508829  0.50720365  0.16953302  1.0
  H  H161  1  0.10632960  0.59639726  0.16196682  1.0
  H  H162  1  0.96516682  0.55416250  0.08530633  1.0
  H  H163  1  0.12633053  0.58973476  0.05604374  1.0
  H  H164  1  0.14912691  0.47953562  0.99897718  1.0
  H  H165  1  0.10212717  0.43071387  0.06319895  1.0
  H  H166  1  0.48978052  0.34238565  0.03065405  1.0
  H  H167  1  0.29820522  0.33976024  0.02375935  1.0
  H  H168  1  0.33239312  0.41278532  0.93082638  1.0
  H  H169  1  0.46317616  0.32565044  0.92572586  1.0
  H  H170  1  0.47913121  0.46900865  0.86464119  1.0
  H  H171  1  0.63992763  0.39258065  0.84452832  1.0
  C  C172  1  0.57318302  0.68205482  0.74155078  1.0
  C  C173  1  0.75541802  0.75673967  0.69478207  1.0
  C  C174  1  0.40335930  0.64949740  0.68189313  1.0
  C  C175  1  0.31100383  0.67533119  0.64038713  1.0
  C  C176  1  0.23684499  0.62945375  0.61696459  1.0
  C  C177  1  0.24836506  0.55771020  0.63520488  1.0
  C  C178  1  0.33450094  0.53372121  0.67898327  1.0
  C  C179  1  0.41351745  0.57884616  0.70241732  1.0
  C  C180  1  0.93764378  0.82978347  0.66417101  1.0
  C  C181  1  0.98858489  0.79264090  0.60941403  1.0
  C  C182  1  0.11268756  0.80908063  0.57052687  1.0
  C  C183  1  0.18428615  0.86308002  0.58462665  1.0
  C  C184  1  0.31487949  0.88097136  0.54118055  1.0
  C  C185  1  0.12994897  0.90028636  0.63951446  1.0
  C  C186  1  0.00920660  0.88348488  0.67943299  1.0
  C  C187  1  0.17298943  0.50853134  0.60585198  1.0
  C  C188  1  0.85146126  0.40935752  0.57663956  1.0
  C  C189  1  0.20449485  0.51472918  0.39378884  1.0
  C  C190  1  0.36389508  0.44664669  0.45864334  1.0
  C  C191  1  0.38966685  0.38430021  0.50083572  1.0
  C  C192  1  0.20014520  0.38694737  0.41478992  1.0
  C  C193  1  0.06221994  0.33670175  0.50162486  1.0
  C  C194  1  0.35052292  0.31599956  0.47885096  1.0
  C  C195  1  0.60140062  0.94090222  0.60853264  1.0
  C  C196  1  0.68379402  0.04256540  0.64124952  1.0
  C  C197  1  0.78536604  0.04509217  0.58082899  1.0
  C  C198  1  0.81908581  0.97323054  0.54563862  1.0
  C  C199  1  0.72419670  0.87211079  0.51493491  1.0
  C  C200  1  0.73639425  0.88006744  0.44863057  1.0
  C  C201  1  0.58790587  0.94078751  0.37472056  1.0
  C  C202  1  0.50037908  0.81829702  0.75645667  1.0
  C  C203  1  0.70781698  0.74317033  0.80415265  1.0
  C  C204  1  0.24055030  0.85053035  0.81476465  1.0
  C  C205  1  0.13201342  0.82406852  0.85499906  1.0
  C  C206  1  0.99039623  0.86977835  0.87780660  1.0
  C  C207  1  0.95057331  0.94186914  0.86014380  1.0
  C  C208  1  0.05660908  0.96633353  0.81734690  1.0
  C  C209  1  0.20271140  0.92139617  0.79462974  1.0
  C  C210  1  0.93111285  0.67010662  0.83521999  1.0
  C  C211  1  0.89303344  0.70717085  0.89003588  1.0
  C  C212  1  0.99574608  0.69093740  0.92903193  1.0
  C  C213  1  0.13344072  0.63706949  0.91500237  1.0
  C  C214  1  0.23892497  0.61895307  0.95876942  1.0
  C  C215  1  0.16836989  0.59997769  0.86005326  1.0
  C  C216  1  0.06982874  0.61668313  0.81998853  1.0
  C  C217  1  0.79941571  0.99019807  0.89086887  1.0
  C  C218  1  0.34477967  0.08850541  0.92173875  1.0
  C  C219  1  0.60722126  0.98708215  0.10729064  1.0
  C  C220  1  0.76538100  0.05309743  0.04142961  1.0
  C  C221  1  0.77306792  0.11558096  0.99960755  1.0
  C  C222  1  0.50126894  0.11354820  0.08494148  1.0
  C  C223  1  0.40521391  0.16130463  0.99753074  1.0
  C  C224  1  0.64749583  0.18415364  0.02166425  1.0
  C  C225  1  0.64889919  0.55943310  0.89177764  1.0
  C  C226  1  0.86228564  0.45821069  0.85928233  1.0
  C  C227  1  0.90786135  0.45575842  0.91984103  1.0
  C  C228  1  0.83680915  0.52745814  0.95516326  1.0
  C  C229  1  0.61324744  0.62809146  0.98566159  1.0
  C  C230  1  0.56877031  0.61995116  0.05191247  1.0
  C  C231  1  0.40798000  0.55910204  0.12539852  1.0
  C  C232  1  0.42681454  0.31794262  0.25844813  1.0
  C  C233  1  0.24458377  0.24325616  0.30521526  1.0
  C  C234  1  0.59663939  0.35050005  0.31810526  1.0
  C  C235  1  0.68900337  0.32466737  0.35960808  1.0
  C  C236  1  0.76315906  0.37054208  0.38303172  1.0
  C  C237  1  0.75163502  0.44228888  0.36479514  1.0
  C  C238  1  0.66549547  0.46627841  0.32101830  1.0
  C  C239  1  0.58647393  0.42115454  0.29758330  1.0
  C  C240  1  0.06235514  0.17021779  0.33583211  1.0
  C  C241  1  0.01141493  0.20736091  0.39058686  1.0
  C  C242  1  0.88730800  0.19092062  0.42947605  1.0
  C  C243  1  0.81570889  0.13692232  0.41537414  1.0
  C  C244  1  0.68511161  0.11903206  0.45882137  1.0
  C  C245  1  0.87003965  0.09971979  0.36048589  1.0
  C  C246  1  0.99078541  0.11652128  0.32056670  1.0
  C  C247  1  0.82700623  0.49146992  0.39414532  1.0
  C  C248  1  0.14854107  0.59064157  0.42336074  1.0
  C  C249  1  0.79550497  0.48527045  0.60621033  1.0
  C  C250  1  0.63609854  0.55335184  0.54135671  1.0
  C  C251  1  0.61032617  0.61569505  0.49916438  1.0
  C  C252  1  0.79985155  0.61305389  0.58520946  1.0
  C  C253  1  0.93777200  0.66330005  0.49837615  1.0
  C  C254  1  0.64946874  0.68399625  0.52114664  1.0
  C  C255  1  0.39859522  0.05910284  0.39147196  1.0
  C  C256  1  0.31620974  0.95743969  0.35875238  1.0
  C  C257  1  0.21463185  0.95491344  0.41917158  1.0
  C  C258  1  0.18091123  0.02677453  0.45436201  1.0
  C  C259  1  0.27580081  0.12789101  0.48506873  1.0
  C  C260  1  0.26360550  0.11993219  0.55137292  1.0
  C  C261  1  0.41209448  0.05921538  0.62528245  1.0
  C  C262  1  0.49962747  0.18169826  0.24354119  1.0
  C  C263  1  0.29218900  0.25682386  0.19584526  1.0
  C  C264  1  0.75945658  0.14946875  0.18523274  1.0
  C  C265  1  0.86799290  0.17593167  0.14499879  1.0
  C  C266  1  0.00960783  0.13022401  0.12219313  1.0
  C  C267  1  0.04943274  0.05813160  0.13985364  1.0
  C  C268  1  0.94339445  0.03366774  0.18265028  1.0
  C  C269  1  0.79729635  0.07860130  0.20536500  1.0
  C  C270  1  0.06888982  0.32988976  0.16477554  1.0
  C  C271  1  0.10698394  0.29282991  0.10995645  1.0
  C  C272  1  0.00425559  0.30906333  0.07095891  1.0
  C  C273  1  0.86656251  0.36293014  0.08499484  1.0
  C  C274  1  0.76107796  0.38104493  0.04122782  1.0
  C  C275  1  0.83163359  0.40001705  0.13994309  1.0
  C  C276  1  0.93017273  0.38330888  0.18000841  1.0
  C  C277  1  0.20059571  0.00980322  0.10912690  1.0
  C  C278  1  0.65522689  0.91149205  0.07825996  1.0
  C  C279  1  0.39278924  0.01291641  0.89270823  1.0
  C  C280  1  0.23462780  0.94690222  0.95857066  1.0
  C  C281  1  0.22693697  0.88441977  0.00039170  1.0
  C  C282  1  0.49873787  0.88644872  0.91505851  1.0
  C  C283  1  0.59478813  0.83869282  0.00246872  1.0
  C  C284  1  0.35250594  0.81584654  0.97833608  1.0
  C  C285  1  0.35109888  0.44056762  0.10822553  1.0
  C  C286  1  0.13771271  0.54178947  0.14072083  1.0
  C  C287  1  0.09213814  0.54424175  0.08016162  1.0
  C  C288  1  0.16318694  0.47254203  0.04484091  1.0
  C  C289  1  0.38675175  0.37190926  0.01434193  1.0
  C  C290  1  0.43122776  0.38004955  0.94809114  1.0
  C  C291  1  0.59201384  0.44089812  0.87460538  1.0
  C  C292  1  0.63484630  0.75009151  0.74919287  1.0
  C  C293  1  0.36515802  0.24990378  0.25080385  1.0
  N  N294  1  0.55096928  0.01150059  0.63799533  1.0
  N  N295  1  0.67879176  0.94437357  0.54588231  1.0
  N  N296  1  0.58388394  0.91755775  0.43649017  1.0
  N  N297  1  0.20207713  0.33210205  0.45844024  1.0
  N  N298  1  0.00799865  0.40251986  0.54136151  1.0
  N  N299  1  0.21288308  0.45810364  0.43850421  1.0
  N  N300  1  0.69621781  0.48888525  0.86224621  1.0
  N  N301  1  0.66881758  0.55593779  0.95457650  1.0
  N  N302  1  0.44142755  0.58222359  0.06363973  1.0
  N  N303  1  0.49449469  0.16847627  0.04152194  1.0
  N  N304  1  0.45802917  0.09390385  0.95902805  1.0
  N  N305  1  0.60499786  0.04210730  0.06110772  1.0
  N  N306  1  0.44903136  0.98850394  0.36200851  1.0
  N  N307  1  0.32120608  0.05562986  0.45412000  1.0
  N  N308  1  0.41611584  0.08244405  0.56351245  1.0
  N  N309  1  0.79791816  0.66789540  0.54155969  1.0
  N  N310  1  0.99199924  0.59748141  0.45863692  1.0
  N  N311  1  0.78710775  0.54189597  0.56149473  1.0
  N  N312  1  0.30377914  0.51111546  0.13775705  1.0
  N  N313  1  0.33117656  0.44406401  0.04542781  1.0
  N  N314  1  0.55856942  0.41777712  0.93636266  1.0
  N  N315  1  0.50550538  0.83152282  0.95847852  1.0
  N  N316  1  0.54197792  0.90609252  0.04097193  1.0
  N  N317  1  0.39501262  0.95789126  0.93889201  1.0
  O  O318  1  0.33903126  0.94455424  0.54837112  1.0
  O  O319  1  0.38884149  0.83405961  0.50117771  1.0
  O  O320  1  0.15963853  0.44857234  0.62813922  1.0
  O  O321  1  0.12848181  0.53328990  0.55823497  1.0
  O  O322  1  0.48177349  0.69798888  0.69696120  1.0
  O  O323  1  0.81649651  0.81811962  0.70513955  1.0
  O  O324  1  0.33249100  0.55561540  0.95132026  1.0
  O  O325  1  0.22745358  0.66546674  0.99932962  1.0
  O  O326  1  0.74530945  0.05066474  0.86965289  1.0
  O  O327  1  0.73745926  0.96472054  0.93843444  1.0
  O  O328  1  0.38116647  0.80235917  0.80063640  1.0
  O  O329  1  0.83808882  0.68164582  0.79416662  1.0
  O  O330  1  0.66096355  0.05545300  0.45162966  1.0
  O  O331  1  0.61114027  0.16594869  0.49883045  1.0
  O  O332  1  0.84036283  0.55143329  0.37185549  1.0
  O  O333  1  0.87150855  0.46671298  0.44176096  1.0
  O  O334  1  0.51822611  0.30201130  0.30303540  1.0
  O  O335  1  0.18349851  0.18188055  0.29486168  1.0
  O  O336  1  0.66750177  0.44438258  0.04867985  1.0
  O  O337  1  0.77254685  0.33453616  0.00066863  1.0
  O  O338  1  0.25468907  0.94933979  0.13034332  1.0
  O  O339  1  0.26255559  0.03528294  0.06155978  1.0
  O  O340  1  0.61884036  0.19763775  0.19936230  1.0
  O  O341  1  0.16191412  0.31835001  0.20582933  1.0
