# generated using pymatgen
data_ScH4C8O5
_symmetry_space_group_name_H-M   'P 1'
_cell_length_a   12.51453736
_cell_length_b   12.58449701
_cell_length_c   12.59799534
_cell_angle_alpha   75.71834636
_cell_angle_beta   60.23863321
_cell_angle_gamma   60.19724977
_symmetry_Int_Tables_number   1
_chemical_formula_structural   ScH4C8O5
_chemical_formula_sum   'Sc4 H16 C32 O20'
_cell_volume   1494.55690249
_cell_formula_units_Z   4
loop_
 _symmetry_equiv_pos_site_id
 _symmetry_equiv_pos_as_xyz
  1  'x, y, z'
loop_
 _atom_site_type_symbol
 _atom_site_label
 _atom_site_symmetry_multiplicity
 _atom_site_fract_x
 _atom_site_fract_y
 _atom_site_fract_z
 _atom_site_occupancy
  Sc  Sc0  1  0.18373260  0.63127297  0.99998029  1.0
  Sc  Sc1  1  0.81757147  0.36375902  0.00002109  1.0
  Sc  Sc2  1  0.56663278  0.49759744  0.86750607  1.0
  Sc  Sc3  1  0.93413036  0.49779872  0.13292937  1.0
  H  H4  1  0.23619029  0.56306976  0.31214251  1.0
  H  H5  1  0.11138655  0.43972346  0.68784281  1.0
  H  H6  1  0.55122028  0.81014164  0.93687098  1.0
  H  H7  1  0.29992968  0.18518034  0.06436584  1.0
  H  H8  1  0.63695750  0.81072209  0.06491512  1.0
  H  H9  1  0.51532094  0.18459527  0.93415831  1.0
  H  H10  1  0.44851419  0.43770280  0.31266436  1.0
  H  H11  1  0.19942052  0.56436461  0.68724325  1.0
  H  H12  1  0.87679620  0.50070643  0.50112932  1.0
  H  H13  1  0.12884314  0.99729532  0.00109481  1.0
  H  H14  1  0.87359878  0.99740798  0.99827255  1.0
  H  H15  1  0.62205068  0.49914712  0.49926053  1.0
  H  H16  1  0.37554637  0.43623192  0.05435465  1.0
  H  H17  1  0.56039694  0.53736511  0.07125288  1.0
  H  H18  1  0.18365593  0.44010329  0.94208691  1.0
  H  H19  1  0.89306830  0.54262014  0.93277829  1.0
  C  C20  1  0.04379740  0.55763325  0.27859479  1.0
  C  C21  1  0.16792938  0.53420867  0.39512805  1.0
  C  C22  1  0.05778129  0.53144790  0.39452595  1.0
  C  C23  1  0.88043671  0.44315054  0.72272094  1.0
  C  C24  1  0.09620224  0.46880969  0.60536591  1.0
  C  C25  1  0.98262791  0.47093043  0.60677605  1.0
  C  C26  1  0.35396380  0.77608138  0.94089067  1.0
  C  C27  1  0.45358380  0.89275892  0.96640707  1.0
  C  C28  1  0.34103121  0.89172259  0.96888333  1.0
  C  C29  1  0.07197527  0.21871770  0.06197316  1.0
  C  C30  1  0.31461734  0.10265254  0.03441211  1.0
  C  C31  1  0.20325927  0.10346252  0.03256427  1.0
  C  C32  1  0.86864424  0.77659421  0.06017649  1.0
  C  C33  1  0.65252417  0.89307519  0.03456431  1.0
  C  C34  1  0.76623626  0.89207369  0.03177347  1.0
  C  C35  1  0.70991539  0.21836715  0.93610957  1.0
  C  C36  1  0.58276642  0.10238923  0.96473658  1.0
  C  C37  1  0.69339260  0.10328686  0.96634855  1.0
  C  C38  1  0.67646730  0.44069489  0.27783484  1.0
  C  C39  1  0.43458712  0.46741183  0.39484783  1.0
  C  C40  1  0.54619747  0.46908242  0.39357857  1.0
  C  C41  1  0.39744325  0.55803317  0.72128495  1.0
  C  C42  1  0.29688535  0.53450689  0.60462340  1.0
  C  C43  1  0.40989227  0.53125522  0.60544617  1.0
  C  C44  1  0.18955584  0.50166193  0.50008721  1.0
  C  C45  1  0.96378698  0.50106491  0.50084639  1.0
  C  C46  1  0.44158686  0.99780924  0.00023779  1.0
  C  C47  1  0.21586364  0.99752179  0.00081736  1.0
  C  C48  1  0.56002354  0.99782176  0.99994815  1.0
  C  C49  1  0.78623370  0.99760995  0.99880329  1.0
  C  C50  1  0.30803734  0.50137724  0.49981768  1.0
  C  C51  1  0.53461202  0.49984815  0.49938986  1.0
  O  O52  1  0.11211170  0.60962533  0.19232071  1.0
  O  O53  1  0.96697999  0.52339733  0.27219103  1.0
  O  O54  1  0.91541317  0.39205248  0.80868149  1.0
  O  O55  1  0.76346084  0.47480662  0.72963018  1.0
  O  O56  1  0.47430638  0.68999532  0.88849952  1.0
  O  O57  1  0.24316521  0.76960767  0.97401105  1.0
  O  O58  1  0.05532378  0.30494298  0.11317197  1.0
  O  O59  1  0.98613921  0.22458942  0.03141641  1.0
  O  O60  1  0.83422558  0.69061433  0.11289670  1.0
  O  O61  1  0.98593279  0.77019396  0.02683867  1.0
  O  O62  1  0.64013055  0.30445800  0.88501691  1.0
  O  O63  1  0.79033419  0.22426637  0.96603105  1.0
  O  O64  1  0.69284104  0.38927964  0.19192472  1.0
  O  O65  1  0.76172126  0.47240838  0.27101302  1.0
  O  O66  1  0.27699979  0.61025429  0.80735957  1.0
  O  O67  1  0.50837939  0.52402048  0.72776438  1.0
  O  O68  1  0.12005042  0.50354712  0.00416459  1.0
  O  O69  1  0.62882438  0.48840874  0.99767372  1.0
  O  O70  1  0.37531927  0.50228279  0.99515167  1.0
  O  O71  1  0.87848137  0.49028762  0.00423298  1.0
