# generated using pymatgen
data_NiH20C18(NO3)2
_symmetry_space_group_name_H-M   'P 1'
_cell_length_a   9.26098966
_cell_length_b   13.51280551
_cell_length_c   19.23274702
_cell_angle_alpha   69.56793870
_cell_angle_beta   77.28056650
_cell_angle_gamma   89.86159090
_symmetry_Int_Tables_number   1
_chemical_formula_structural   NiH20C18(NO3)2
_chemical_formula_sum   'Ni4 H80 C72 N8 O24'
_cell_volume   2192.74596902
_cell_formula_units_Z   4
loop_
 _symmetry_equiv_pos_site_id
 _symmetry_equiv_pos_as_xyz
  1  'x, y, z'
loop_
 _atom_site_type_symbol
 _atom_site_label
 _atom_site_symmetry_multiplicity
 _atom_site_fract_x
 _atom_site_fract_y
 _atom_site_fract_z
 _atom_site_occupancy
  Ni  Ni0  1  0.17783736  0.14756935  0.26707462  1.0
  Ni  Ni1  1  0.32359562  0.41510486  0.73403987  1.0
  Ni  Ni2  1  0.82047469  0.85295190  0.73360903  1.0
  Ni  Ni3  1  0.67905934  0.58473811  0.26574485  1.0
  H  H4  1  0.43933418  0.11561428  0.22347613  1.0
  H  H5  1  0.06193963  0.34142954  0.77750814  1.0
  H  H6  1  0.55812352  0.88372165  0.77647999  1.0
  H  H7  1  0.94088960  0.65904046  0.22277276  1.0
  H  H8  1  0.43239287  0.23610237  0.22233259  1.0
  H  H9  1  0.06903636  0.46031832  0.77932096  1.0
  H  H10  1  0.56670574  0.76279752  0.77858199  1.0
  H  H11  1  0.93410929  0.53990868  0.22119092  1.0
  H  H12  1  0.06344421  0.34368284  0.24557847  1.0
  H  H13  1  0.43892030  0.58980501  0.75469534  1.0
  H  H14  1  0.93742230  0.65740472  0.75472181  1.0
  H  H15  1  0.56438299  0.40956559  0.24536011  1.0
  H  H16  1  0.23919235  0.34507317  0.22563843  1.0
  H  H17  1  0.26316088  0.57202480  0.77488526  1.0
  H  H18  1  0.76154421  0.65531387  0.77424667  1.0
  H  H19  1  0.74025447  0.42751735  0.22518726  1.0
  H  H20  1  0.77101228  0.96995393  0.50668911  1.0
  H  H21  1  0.72745991  0.47762162  0.49256675  1.0
  H  H22  1  0.22617388  0.03003589  0.49329742  1.0
  H  H23  1  0.27214694  0.52480644  0.50531965  1.0
  H  H24  1  0.05192628  0.74203668  0.59465418  1.0
  H  H25  1  0.44822473  0.33577762  0.40599919  1.0
  H  H26  1  0.94772875  0.25797866  0.40632314  1.0
  H  H27  1  0.55280303  0.66400068  0.59419143  1.0
  H  H28  1  0.14418791  0.86119933  0.45609796  1.0
  H  H29  1  0.35653362  0.31776293  0.54475846  1.0
  H  H30  1  0.85430209  0.13889990  0.54488893  1.0
  H  H31  1  0.64344664  0.68312876  0.45568999  1.0
  H  H32  1  0.02886317  0.02121492  0.42505304  1.0
  H  H33  1  0.47027429  0.44682964  0.57527522  1.0
  H  H34  1  0.96863661  0.97959702  0.57558567  1.0
  H  H35  1  0.52993268  0.55575252  0.42339838  1.0
  H  H36  1  0.45732446  0.81698150  0.38321807  1.0
  H  H37  1  0.04341223  0.20218896  0.61747843  1.0
  H  H38  1  0.53919467  0.18168385  0.61633667  1.0
  H  H39  1  0.95724482  0.79773526  0.38300873  1.0
  H  H40  1  0.35279116  0.68573270  0.51705878  1.0
  H  H41  1  0.14737942  0.20350579  0.48404882  1.0
  H  H42  1  0.64538452  0.31365817  0.48288380  1.0
  H  H43  1  0.85322387  0.79683882  0.51642891  1.0
  H  H44  1  0.87767036  0.20454396  0.23774657  1.0
  H  H45  1  0.62457224  0.44119716  0.76238183  1.0
  H  H46  1  0.12112069  0.79710474  0.76272936  1.0
  H  H47  1  0.37918388  0.55598632  0.23657335  1.0
  H  H48  1  0.61362856  0.16193931  0.31032365  1.0
  H  H49  1  0.88800410  0.47154999  0.68864677  1.0
  H  H50  1  0.38485492  0.83910223  0.68952026  1.0
  H  H51  1  0.11524223  0.52504983  0.30957147  1.0
  H  H52  1  0.16327906  0.26184001  0.10470662  1.0
  H  H53  1  0.33937009  0.36711827  0.89686892  1.0
  H  H54  1  0.83522248  0.73864309  0.89600845  1.0
  H  H55  1  0.66020491  0.63146255  0.10327542  1.0
  H  H56  1  0.06181858  0.95348587  0.25674176  1.0
  H  H57  1  0.44103880  0.21083349  0.74397004  1.0
  H  H58  1  0.93562211  0.04715439  0.74412009  1.0
  H  H59  1  0.56395029  0.78974347  0.25519863  1.0
  H  H60  1  0.95370605  0.89863393  0.16713299  1.0
  H  H61  1  0.54773922  0.06572885  0.83353423  1.0
  H  H62  1  0.04451049  0.10193349  0.83350311  1.0
  H  H63  1  0.45634040  0.93441038  0.16596505  1.0
  H  H64  1  0.47205383  0.11693945  0.46406389  1.0
  H  H65  1  0.02556447  0.58277826  0.53389671  1.0
  H  H66  1  0.52465606  0.88240880  0.53563613  1.0
  H  H67  1  0.97522388  0.41735343  0.46379897  1.0
  H  H68  1  0.44370930  0.01981018  0.42643994  1.0
  H  H69  1  0.05710334  0.44885639  0.57201259  1.0
  H  H70  1  0.55436745  0.97948988  0.57310938  1.0
  H  H71  1  0.94436721  0.55129973  0.42557279  1.0
  H  H72  1  0.05931892  0.22093154  0.00639561  1.0
  H  H73  1  0.44188538  0.22719535  0.99516531  1.0
  H  H74  1  0.93971691  0.77958771  0.99413252  1.0
  H  H75  1  0.55638780  0.77105067  0.00538951  1.0
  H  H76  1  0.84104444  0.96838256  0.05025366  1.0
  H  H77  1  0.65961577  0.01778436  0.95070665  1.0
  H  H78  1  0.15820680  0.03210427  0.95014790  1.0
  H  H79  1  0.34121718  0.98130255  0.04957374  1.0
  H  H80  1  0.90526660  0.09535782  0.97988936  1.0
  H  H81  1  0.59339341  0.07312138  0.02197106  1.0
  H  H82  1  0.09400755  0.90520517  0.02052468  1.0
  H  H83  1  0.40710569  0.92603254  0.97821627  1.0
  C  C84  1  0.78846906  0.02243042  0.44729459  1.0
  C  C85  1  0.71077061  0.47035894  0.55210507  1.0
  C  C86  1  0.20902294  0.97792136  0.55279471  1.0
  C  C87  1  0.28976803  0.53095149  0.44598184  1.0
  C  C88  1  0.15061796  0.69892646  0.58718448  1.0
  C  C89  1  0.34944239  0.28559335  0.41362790  1.0
  C  C90  1  0.84888687  0.30099939  0.41346261  1.0
  C  C91  1  0.65115677  0.71447993  0.58671081  1.0
  C  C92  1  0.66928432  0.06304191  0.41539197  1.0
  C  C93  1  0.83051264  0.47895292  0.58366409  1.0
  C  C94  1  0.32841170  0.93721535  0.58451243  1.0
  C  C95  1  0.17084150  0.52085132  0.41431238  1.0
  C  C96  1  0.24463553  0.81870578  0.45369747  1.0
  C  C97  1  0.25599900  0.27330723  0.54712967  1.0
  C  C98  1  0.75335149  0.18094496  0.54672824  1.0
  C  C99  1  0.74443640  0.72718306  0.45321303  1.0
  C  C100  1  0.93248191  0.05036265  0.40273691  1.0
  C  C101  1  0.56716152  0.45341478  0.59727376  1.0
  C  C102  1  0.06525309  0.95045698  0.59768598  1.0
  C  C103  1  0.43372419  0.54784813  0.40130033  1.0
  C  C104  1  0.35330613  0.85505460  0.38890709  1.0
  C  C105  1  0.14743192  0.24544097  0.61197779  1.0
  C  C106  1  0.64381580  0.14425277  0.61115075  1.0
  C  C107  1  0.85318934  0.75462781  0.38846336  1.0
  C  C108  1  0.25420883  0.73004434  0.52030461  1.0
  C  C109  1  0.24606107  0.25082260  0.48057716  1.0
  C  C110  1  0.74424825  0.26955393  0.47997216  1.0
  C  C111  1  0.75451923  0.74964071  0.51977463  1.0
  C  C112  1  0.34366662  0.95392674  0.32433431  1.0
  C  C113  1  0.15706412  0.27956573  0.67679194  1.0
  C  C114  1  0.65336893  0.04563983  0.67593710  1.0
  C  C115  1  0.84411370  0.72029935  0.32368385  1.0
  C  C116  1  0.84871312  0.15305080  0.29762520  1.0
  C  C117  1  0.65260798  0.45019731  0.70227338  1.0
  C  C118  1  0.14967772  0.84816879  0.70275850  1.0
  C  C119  1  0.35026936  0.54814511  0.29643367  1.0
  C  C120  1  0.16859815  0.60804986  0.65459473  1.0
  C  C121  1  0.33162083  0.26126049  0.34640788  1.0
  C  C122  1  0.83204577  0.39208568  0.34599396  1.0
  C  C123  1  0.66849821  0.73863958  0.65404561  1.0
  C  C124  1  0.70222726  0.12913395  0.33839710  1.0
  C  C125  1  0.79870774  0.46729382  0.66090132  1.0
  C  C126  1  0.29596849  0.87168567  0.66164901  1.0
  C  C127  1  0.20383680  0.53089336  0.33736812  1.0
  C  C128  1  0.11617671  0.18268501  0.11502384  1.0
  C  C129  1  0.38620560  0.29817937  0.88629054  1.0
  C  C130  1  0.88233264  0.81782111  0.88565386  1.0
  C  C131  1  0.61449008  0.70080658  0.11370860  1.0
  C  C132  1  0.05846023  0.00983756  0.20064495  1.0
  C  C133  1  0.44412700  0.21108488  0.80018453  1.0
  C  C134  1  0.93956367  0.99068859  0.80009899  1.0
  C  C135  1  0.55972068  0.78895991  0.19924826  1.0
  C  C136  1  0.99821159  0.98052371  0.15007176  1.0
  C  C137  1  0.50340422  0.13068749  0.85079689  1.0
  C  C138  1  0.00013784  0.02001741  0.85057081  1.0
  C  C139  1  0.49968435  0.86912436  0.14883913  1.0
  C  C140  1  0.51129622  0.04155636  0.46013953  1.0
  C  C141  1  0.98804533  0.50292354  0.53841524  1.0
  C  C142  1  0.48622107  0.95802101  0.53951412  1.0
  C  C143  1  0.01308500  0.49710982  0.45936304  1.0
  C  C144  1  0.05763820  0.15917902  0.06137962  1.0
  C  C145  1  0.44402670  0.22061293  0.93997559  1.0
  C  C146  1  0.94136455  0.84132288  0.93916251  1.0
  C  C147  1  0.55592716  0.77818621  0.06025117  1.0
  C  C148  1  0.99630436  0.05635647  0.07877488  1.0
  C  C149  1  0.50469240  0.13482424  0.92238557  1.0
  C  C150  1  0.00258570  0.94416647  0.92176894  1.0
  C  C151  1  0.49653581  0.86443529  0.07761289  1.0
  C  C152  1  0.93896296  0.02568625  0.02159610  1.0
  C  C153  1  0.56091083  0.04613403  0.97944705  1.0
  C  C154  1  0.06021485  0.97487413  0.97885944  1.0
  C  C155  1  0.43978692  0.95300866  0.02069992  1.0
  N  N156  1  0.96291842  0.11495052  0.32922371  1.0
  N  N157  1  0.53782491  0.44402364  0.67101028  1.0
  N  N158  1  0.03528885  0.88626054  0.67130065  1.0
  N  N159  1  0.46423315  0.55581356  0.32786148  1.0
  N  N160  1  0.11602237  0.10928267  0.18365625  1.0
  N  N161  1  0.38665286  0.29367515  0.81743201  1.0
  N  N162  1  0.88204176  0.89123045  0.81710106  1.0
  N  N163  1  0.61607966  0.70592436  0.18219682  1.0
  O  O164  1  0.40156046  0.18719693  0.19896851  1.0
  O  O165  1  0.10014532  0.38808429  0.80223912  1.0
  O  O166  1  0.59661023  0.81254507  0.80150072  1.0
  O  O167  1  0.90316521  0.61212931  0.19808759  1.0
  O  O168  1  0.21605647  0.99181746  0.32676921  1.0
  O  O169  1  0.28499839  0.31831748  0.67488495  1.0
  O  O170  1  0.78160525  0.00883297  0.67436126  1.0
  O  O171  1  0.71656727  0.68090359  0.32558268  1.0
  O  O172  1  0.26430793  0.54396147  0.64348223  1.0
  O  O173  1  0.23519716  0.18681142  0.35762004  1.0
  O  O174  1  0.73637056  0.45627358  0.35690325  1.0
  O  O175  1  0.76334782  0.81401715  0.64284445  1.0
  O  O176  1  0.08778243  0.59883212  0.72067917  1.0
  O  O177  1  0.41349627  0.31654178  0.28037562  1.0
  O  O178  1  0.91371088  0.40156371  0.28001738  1.0
  O  O179  1  0.58786335  0.68239431  0.72017950  1.0
  O  O180  1  0.14960787  0.31944850  0.21561743  1.0
  O  O181  1  0.35280049  0.53606130  0.78471115  1.0
  O  O182  1  0.85063698  0.68151206  0.78437814  1.0
  O  O183  1  0.65045221  0.46316455  0.21523932  1.0
  O  O184  1  0.46204081  0.99445671  0.27359315  1.0
  O  O185  1  0.03836886  0.27077663  0.72718504  1.0
  O  O186  1  0.53449070  0.00421659  0.72602228  1.0
  O  O187  1  0.96291737  0.72969031  0.27323935  1.0
