# generated using pymatgen
data_Zn3P2H32C52(NO6)2
_symmetry_space_group_name_H-M   'P 1'
_cell_length_a   22.16268762
_cell_length_b   22.16274711
_cell_length_c   22.16276709
_cell_angle_alpha   72.83746551
_cell_angle_beta   73.83693458
_cell_angle_gamma   115.24843279
_symmetry_Int_Tables_number   1
_chemical_formula_structural   Zn3P2H32C52(NO6)2
_chemical_formula_sum   'Zn12 P8 H128 C208 N8 O48'
_cell_volume   8314.96872291
_cell_formula_units_Z   4
loop_
 _symmetry_equiv_pos_site_id
 _symmetry_equiv_pos_as_xyz
  1  'x, y, z'
loop_
 _atom_site_type_symbol
 _atom_site_label
 _atom_site_symmetry_multiplicity
 _atom_site_fract_x
 _atom_site_fract_y
 _atom_site_fract_z
 _atom_site_occupancy
  Zn  Zn0  1  0.75000100  0.14793630  0.10206418  1.0
  Zn  Zn1  1  0.24999950  0.35206279  0.39793673  1.0
  Zn  Zn2  1  0.25000057  0.85206376  0.89793582  1.0
  Zn  Zn3  1  0.74999957  0.64793489  0.60206462  1.0
  Zn  Zn4  1  0.89420374  0.14734947  0.02115780  1.0
  Zn  Zn5  1  0.33149375  0.35264981  0.25314503  1.0
  Zn  Zn6  1  0.60579635  0.08463771  0.24685562  1.0
  Zn  Zn7  1  0.16850622  0.41536192  0.47884260  1.0
  Zn  Zn8  1  0.10579594  0.85265192  0.97884409  1.0
  Zn  Zn9  1  0.66850658  0.64734913  0.74685393  1.0
  Zn  Zn10  1  0.39420365  0.91536110  0.75314480  1.0
  Zn  Zn11  1  0.83149346  0.58463856  0.52115929  1.0
  P  P12  1  0.53832536  0.74024969  0.04984213  1.0
  P  P13  1  0.70990916  0.75975086  0.20192374  1.0
  P  P14  1  0.96167432  0.41183201  0.29807625  1.0
  P  P15  1  0.79009176  0.08816811  0.45015576  1.0
  P  P16  1  0.46167418  0.25975200  0.95015706  1.0
  P  P17  1  0.29009100  0.24024817  0.79807766  1.0
  P  P18  1  0.03832647  0.58816906  0.70192225  1.0
  P  P19  1  0.20990826  0.91183122  0.54984294  1.0
  H  H20  1  0.89850034  0.01640546  0.03177580  1.0
  H  H21  1  0.45181888  0.48359490  0.11790451  1.0
  H  H22  1  0.60149950  0.06972438  0.38209526  1.0
  H  H23  1  0.04818055  0.43027652  0.46822401  1.0
  H  H24  1  0.10149966  0.98359463  0.96822633  1.0
  H  H25  1  0.54817908  0.51640597  0.88209513  1.0
  H  H26  1  0.39849957  0.93027471  0.61790439  1.0
  H  H27  1  0.95181961  0.56972392  0.53177569  1.0
  H  H28  1  0.06103419  0.23841505  0.96391406  1.0
  H  H29  1  0.29767070  0.26158482  0.17738160  1.0
  H  H30  1  0.43896633  0.97505131  0.32261853  1.0
  H  H31  1  0.20232947  0.52494760  0.53608609  1.0
  H  H32  1  0.93896597  0.76158494  0.03608564  1.0
  H  H33  1  0.70232946  0.73841562  0.82261811  1.0
  H  H34  1  0.56103368  0.02494846  0.67738018  1.0
  H  H35  1  0.79767022  0.47505205  0.46391408  1.0
  H  H36  1  0.16636868  0.21761865  0.92308514  1.0
  H  H37  1  0.35929574  0.28238130  0.05125088  1.0
  H  H38  1  0.33363138  0.91054565  0.44874879  1.0
  H  H39  1  0.14070428  0.58945218  0.57691495  1.0
  H  H40  1  0.83363086  0.78238033  0.07691405  1.0
  H  H41  1  0.64070458  0.71761989  0.94874810  1.0
  H  H42  1  0.66636863  0.08945412  0.55124993  1.0
  H  H43  1  0.85929541  0.41054702  0.42308522  1.0
  H  H44  1  0.13380739  0.09090447  0.94222149  1.0
  H  H45  1  0.46687345  0.40909579  0.95709773  1.0
  H  H46  1  0.36619240  0.92397018  0.54290214  1.0
  H  H47  1  0.03312620  0.57602785  0.55777903  1.0
  H  H48  1  0.86619246  0.90909546  0.05777796  1.0
  H  H49  1  0.53312639  0.59090594  0.04290173  1.0
  H  H50  1  0.63380684  0.07602876  0.45709678  1.0
  H  H51  1  0.96687381  0.42397187  0.44222139  1.0
  H  H52  1  0.77830953  0.93468342  0.02332307  1.0
  H  H53  1  0.54199414  0.56531664  0.15637442  1.0
  H  H54  1  0.72169016  0.19836609  0.34362617  1.0
  H  H55  1  0.95800613  0.30163159  0.47667713  1.0
  H  H56  1  0.22169094  0.06531759  0.97667520  1.0
  H  H57  1  0.45800618  0.43468268  0.84362626  1.0
  H  H58  1  0.27830875  0.80163317  0.65637421  1.0
  H  H59  1  0.04199309  0.69836727  0.52332351  1.0
  H  H60  1  0.69081221  0.81374800  0.02863265  1.0
  H  H61  1  0.65762077  0.68625316  0.12293503  1.0
  H  H62  1  0.80918674  0.28055480  0.37706530  1.0
  H  H63  1  0.84237946  0.21944503  0.47136632  1.0
  H  H64  1  0.30918811  0.18625318  0.97136633  1.0
  H  H65  1  0.34237970  0.31374643  0.87706492  1.0
  H  H66  1  0.19081217  0.71944490  0.62293509  1.0
  H  H67  1  0.15761993  0.78055412  0.52863358  1.0
  H  H68  1  0.52079715  0.86477627  0.06127477  1.0
  H  H69  1  0.57394974  0.63522463  0.34397888  1.0
  H  H70  1  0.97920341  0.41792865  0.15602134  1.0
  H  H71  1  0.92604966  0.08207140  0.43872410  1.0
  H  H72  1  0.47920160  0.13522360  0.93872634  1.0
  H  H73  1  0.42605026  0.36477553  0.65602155  1.0
  H  H74  1  0.02079644  0.58207174  0.84397810  1.0
  H  H75  1  0.07394957  0.91792753  0.56127483  1.0
  H  H76  1  0.60736748  0.98285622  0.06090249  1.0
  H  H77  1  0.45624099  0.51714318  0.37548892  1.0
  H  H78  1  0.89263260  0.33172987  0.12451182  1.0
  H  H79  1  0.04375880  0.16826970  0.43909720  1.0
  H  H80  1  0.39263080  0.01714286  0.93909909  1.0
  H  H81  1  0.54375824  0.48285659  0.62451171  1.0
  H  H82  1  0.10736709  0.66827023  0.87548835  1.0
  H  H83  1  0.95624074  0.83172973  0.56090199  1.0
  H  H84  1  0.40834786  0.58706433  0.12374870  1.0
  H  H85  1  0.78918806  0.91293642  0.17871506  1.0
  H  H86  1  0.09165171  0.46790264  0.32128467  1.0
  H  H87  1  0.71081193  0.03209784  0.37625005  1.0
  H  H88  1  0.59165120  0.41293611  0.87625097  1.0
  H  H89  1  0.21081320  0.08706539  0.82128468  1.0
  H  H90  1  0.90834923  0.53209820  0.67871482  1.0
  H  H91  1  0.28918761  0.96790250  0.62374914  1.0
  H  H92  1  0.31109407  0.49870224  0.25002907  1.0
  H  H93  1  0.75126891  0.00129791  0.18760839  1.0
  H  H94  1  0.18890653  0.43887674  0.31239088  1.0
  H  H95  1  0.74872963  0.06112238  0.24997022  1.0
  H  H96  1  0.68890547  0.50129810  0.74997012  1.0
  H  H97  1  0.24873062  0.99870236  0.81239251  1.0
  H  H98  1  0.81109411  0.56112457  0.68760664  1.0
  H  H99  1  0.25126944  0.93887716  0.75002943  1.0
  H  H100  1  0.40992877  0.67203082  0.30760758  1.0
  H  H101  1  0.52036197  0.82796951  0.26210234  1.0
  H  H102  1  0.09007288  0.28246451  0.23789620  1.0
  H  H103  1  0.97963735  0.21753560  0.19239096  1.0
  H  H104  1  0.59007170  0.32797013  0.69239238  1.0
  H  H105  1  0.47963819  0.17203139  0.73789737  1.0
  H  H106  1  0.90992854  0.71753578  0.76210281  1.0
  H  H107  1  0.02036204  0.78246355  0.80760894  1.0
  H  H108  1  0.50745381  0.76243808  0.18011335  1.0
  H  H109  1  0.55744891  0.73756282  0.25498269  1.0
  H  H110  1  0.99254655  0.31243259  0.24501507  1.0
  H  H111  1  0.94255180  0.18756803  0.31988461  1.0
  H  H112  1  0.49254573  0.23756225  0.81988584  1.0
  H  H113  1  0.44255250  0.26243926  0.74501634  1.0
  H  H114  1  0.00745455  0.68756808  0.75498370  1.0
  H  H115  1  0.05744805  0.81243190  0.68011483  1.0
  H  H116  1  0.57973430  0.80813294  0.90168362  1.0
  H  H117  1  0.79018342  0.69186720  0.22839912  1.0
  H  H118  1  0.92026641  0.51858202  0.27160046  1.0
  H  H119  1  0.70981781  0.98141908  0.59831479  1.0
  H  H120  1  0.42026477  0.19186750  0.09831604  1.0
  H  H121  1  0.20981798  0.30813346  0.77160161  1.0
  H  H122  1  0.07973375  0.48141842  0.72839925  1.0
  H  H123  1  0.29018345  0.01858092  0.40168494  1.0
  H  H124  1  0.52250650  0.85207768  0.83167426  1.0
  H  H125  1  0.81624683  0.64792190  0.32957222  1.0
  H  H126  1  0.97749400  0.64581806  0.17042709  1.0
  H  H127  1  0.68375400  0.85418215  0.66832390  1.0
  H  H128  1  0.47749241  0.14792202  0.16832613  1.0
  H  H129  1  0.18375474  0.35207906  0.67042778  1.0
  H  H130  1  0.02250569  0.35418249  0.82957309  1.0
  H  H131  1  0.31624616  0.14581830  0.33167581  1.0
  H  H132  1  0.33264011  0.77176256  0.02587930  1.0
  H  H133  1  0.70236248  0.72824365  0.43911940  1.0
  H  H134  1  0.16736198  0.64147888  0.06088043  1.0
  H  H135  1  0.79764197  0.85852133  0.47411782  1.0
  H  H136  1  0.66735988  0.22823894  0.97412115  1.0
  H  H137  1  0.29763924  0.27175707  0.56088158  1.0
  H  H138  1  0.83263709  0.35852066  0.93911922  1.0
  H  H139  1  0.20235772  0.14147787  0.52588235  1.0
  H  H140  1  0.38878378  0.72715604  0.09714359  1.0
  H  H141  1  0.67570267  0.77284734  0.33837018  1.0
  H  H142  1  0.11121675  0.51407128  0.16163088  1.0
  H  H143  1  0.82429928  0.98592995  0.40285408  1.0
  H  H144  1  0.61121591  0.27284497  0.90285659  1.0
  H  H145  1  0.32429702  0.22715225  0.66163169  1.0
  H  H146  1  0.88878264  0.48592833  0.83836902  1.0
  H  H147  1  0.17570167  0.01407045  0.59714540  1.0
  C  C148  1  0.01208486  0.03925949  0.99244022  1.0
  C  C149  1  0.46830202  0.46074046  0.02717491  1.0
  C  C150  1  0.48791512  0.99547684  0.47282494  1.0
  C  C151  1  0.03169759  0.50452284  0.50756188  1.0
  C  C152  1  0.98791481  0.96073957  0.00756337  1.0
  C  C153  1  0.53169751  0.53926122  0.97282429  1.0
  C  C154  1  0.51208395  0.00452315  0.52717472  1.0
  C  C155  1  0.96830132  0.49547642  0.49243850  1.0
  C  C156  1  0.95868853  0.05770527  0.00937108  1.0
  C  C157  1  0.43292489  0.44229496  0.09901685  1.0
  C  C158  1  0.54131180  0.03194215  0.40098250  1.0
  C  C159  1  0.06707531  0.46805822  0.49063017  1.0
  C  C160  1  0.04131082  0.94229367  0.99063397  1.0
  C  C161  1  0.56707214  0.55770576  0.90098202  1.0
  C  C162  1  0.45868853  0.96805723  0.59901646  1.0
  C  C163  1  0.93292360  0.53194058  0.50937021  1.0
  C  C164  1  0.05014876  0.18375111  0.96956673  1.0
  C  C165  1  0.34668245  0.31624801  0.13360384  1.0
  C  C166  1  0.44985121  0.98028462  0.36639640  1.0
  C  C167  1  0.15331719  0.51971319  0.53043495  1.0
  C  C168  1  0.94985030  0.81624650  0.03043633  1.0
  C  C169  1  0.65331708  0.68375366  0.86639536  1.0
  C  C170  1  0.55014927  0.01971408  0.63360354  1.0
  C  C171  1  0.84668173  0.48028562  0.46956542  1.0
  C  C172  1  0.10721373  0.17138131  0.94882979  1.0
  C  C173  1  0.37978936  0.32861828  0.06416859  1.0
  C  C174  1  0.39278602  0.94395611  0.43583158  1.0
  C  C175  1  0.12021049  0.55604168  0.55117198  1.0
  C  C176  1  0.89278549  0.82861749  0.05117255  1.0
  C  C177  1  0.62021064  0.67138329  0.93583015  1.0
  C  C178  1  0.60721259  0.05604271  0.56416683  1.0
  C  C179  1  0.87978857  0.44395779  0.44882938  1.0
  C  C180  1  0.08824922  0.09917979  0.95991457  1.0
  C  C181  1  0.44090630  0.40082031  0.01093149  1.0
  C  C182  1  0.41174951  0.95183586  0.48906927  1.0
  C  C183  1  0.05909316  0.54816129  0.54008802  1.0
  C  C184  1  0.91175000  0.90081901  0.04008777  1.0
  C  C185  1  0.55909245  0.59918097  0.98906793  1.0
  C  C186  1  0.58824909  0.04816334  0.51093086  1.0
  C  C187  1  0.94090575  0.45183745  0.45991406  1.0
  C  C188  1  0.74986049  0.03636293  0.04263438  1.0
  C  C189  1  0.42100432  0.46363616  0.28650439  1.0
  C  C190  1  0.75014388  0.20750802  0.21349255  1.0
  C  C191  1  0.07899719  0.29248977  0.45736674  1.0
  C  C192  1  0.25014153  0.96364061  0.95736518  1.0
  C  C193  1  0.57899663  0.53636147  0.71349679  1.0
  C  C194  1  0.24985833  0.79249042  0.78650623  1.0
  C  C195  1  0.92100393  0.70750500  0.54263368  1.0
  C  C196  1  0.69800340  0.96579959  0.04216494  1.0
  C  C197  1  0.49203809  0.53420007  0.26779777  1.0
  C  C198  1  0.80199691  0.25983333  0.23220313  1.0
  C  C199  1  0.00796256  0.24016502  0.45783634  1.0
  C  C200  1  0.30199895  0.03420363  0.95783315  1.0
  C  C201  1  0.50796285  0.46579801  0.73220342  1.0
  C  C202  1  0.19800169  0.74016587  0.76779699  1.0
  C  C203  1  0.99203620  0.75983306  0.54216476  1.0
  C  C204  1  0.72143757  0.91832660  0.03250155  1.0
  C  C205  1  0.54917363  0.58167370  0.19688883  1.0
  C  C206  1  0.77856170  0.24606064  0.30311199  1.0
  C  C207  1  0.95082659  0.25393735  0.46749888  1.0
  C  C208  1  0.27856165  0.08167457  0.96749739  1.0
  C  C209  1  0.45082763  0.41832585  0.80311091  1.0
  C  C210  1  0.22143736  0.75393928  0.69688938  1.0
  C  C211  1  0.04917248  0.74606033  0.53250247  1.0
  C  C212  1  0.67242510  0.85097186  0.03518979  1.0
  C  C213  1  0.61383817  0.64902704  0.17854799  1.0
  C  C214  1  0.82757315  0.29238476  0.32145218  1.0
  C  C215  1  0.88616245  0.20761504  0.46480907  1.0
  C  C216  1  0.32757537  0.14903005  0.96480847  1.0
  C  C217  1  0.38616246  0.35097143  0.82145294  1.0
  C  C218  1  0.17242483  0.70761479  0.67854743  1.0
  C  C219  1  0.11383724  0.79238461  0.53519110  1.0
  C  C220  1  0.59947755  0.83048667  0.04618018  1.0
  C  C221  1  0.62333497  0.66951316  0.23100818  1.0
  C  C222  1  0.90052140  0.35434300  0.26899139  1.0
  C  C223  1  0.87666651  0.14565802  0.45381887  1.0
  C  C224  1  0.40052215  0.16951441  0.95381829  1.0
  C  C225  1  0.37666692  0.33048471  0.76899205  1.0
  C  C226  1  0.09947797  0.64565840  0.73100855  1.0
  C  C227  1  0.12333256  0.85434107  0.54618078  1.0
  C  C228  1  0.57688310  0.87931625  0.05395176  1.0
  C  C229  1  0.56673235  0.62068200  0.30243345  1.0
  C  C230  1  0.92311531  0.36916523  0.19756761  1.0
  C  C231  1  0.93326763  0.13083480  0.44604840  1.0
  C  C232  1  0.42311596  0.12068463  0.94604791  1.0
  C  C233  1  0.43326782  0.37931569  0.69756793  1.0
  C  C234  1  0.07688453  0.63083606  0.80243185  1.0
  C  C235  1  0.06673144  0.86916339  0.55395125  1.0
  C  C236  1  0.62521288  0.94572196  0.05304933  1.0
  C  C237  1  0.50123090  0.55427811  0.32050808  1.0
  C  C238  1  0.87478721  0.32173951  0.17949059  1.0
  C  C239  1  0.99877038  0.17826098  0.44695138  1.0
  C  C240  1  0.37478696  0.05427933  0.94695013  1.0
  C  C241  1  0.49876942  0.44572076  0.67949259  1.0
  C  C242  1  0.12521311  0.67826212  0.82050839  1.0
  C  C243  1  0.00122979  0.82173766  0.55304830  1.0
  C  C244  1  0.46511023  0.68116311  0.14307318  1.0
  C  C245  1  0.67576392  0.81883671  0.21605163  1.0
  C  C246  1  0.03489012  0.39181697  0.28394574  1.0
  C  C247  1  0.82423687  0.10818305  0.35692578  1.0
  C  C248  1  0.53488915  0.31883694  0.85692673  1.0
  C  C249  1  0.32423781  0.18116363  0.78394764  1.0
  C  C250  1  0.96511114  0.60818495  0.71605060  1.0
  C  C251  1  0.17576331  0.89181515  0.64307389  1.0
  C  C252  1  0.40891052  0.60650748  0.16366397  1.0
  C  C253  1  0.72983112  0.89349500  0.19759393  1.0
  C  C254  1  0.09108942  0.42742466  0.30240324  1.0
  C  C255  1  0.77016975  0.07257488  0.33633497  1.0
  C  C256  1  0.59108839  0.39349268  0.83633642  1.0
  C  C257  1  0.27017185  0.10650742  0.80240468  1.0
  C  C258  1  0.90891137  0.57257686  0.69759527  1.0
  C  C259  1  0.22982963  0.92742472  0.66366494  1.0
  C  C260  1  0.35378386  0.55671056  0.23446452  1.0
  C  C261  1  0.70882648  0.94329093  0.20292559  1.0
  C  C262  1  0.14621643  0.41175129  0.29707259  1.0
  C  C263  1  0.79117295  0.08824784  0.26553505  1.0
  C  C264  1  0.64621536  0.44329017  0.76553442  1.0
  C  C265  1  0.29117602  0.05671154  0.79707518  1.0
  C  C266  1  0.85378515  0.58825070  0.70292400  1.0
  C  C267  1  0.20882518  0.91175102  0.73446554  1.0
  C  C268  1  0.35466052  0.58011165  0.28671181  1.0
  C  C269  1  0.63317588  0.91988835  0.22545090  1.0
  C  C270  1  0.14534045  0.35862774  0.27454768  1.0
  C  C271  1  0.86682256  0.14137281  0.21328711  1.0
  C  C272  1  0.64533729  0.41988850  0.71328854  1.0
  C  C273  1  0.36682286  0.08011009  0.77455192  1.0
  C  C274  1  0.85466254  0.64137572  0.72544751  1.0
  C  C275  1  0.13317604  0.85862594  0.78671301  1.0
  C  C276  1  0.41029859  0.65449064  0.26648813  1.0
  C  C277  1  0.57902183  0.84550996  0.24419113  1.0
  C  C278  1  0.08970274  0.32321480  0.25580616  1.0
  C  C279  1  0.92097766  0.17678618  0.23351067  1.0
  C  C280  1  0.58970125  0.34551065  0.73351133  1.0
  C  C281  1  0.42097880  0.15449076  0.75580980  1.0
  C  C282  1  0.91030009  0.67678883  0.74418975  1.0
  C  C283  1  0.07902173  0.82321252  0.76648923  1.0
  C  C284  1  0.46468952  0.70462683  0.19532843  1.0
  C  C285  1  0.60004467  0.79537325  0.23993614  1.0
  C  C286  1  0.03531196  0.33998293  0.26006087  1.0
  C  C287  1  0.89995593  0.16001706  0.30466996  1.0
  C  C288  1  0.53531080  0.29537480  0.80467056  1.0
  C  C289  1  0.39995486  0.20462657  0.76006476  1.0
  C  C290  1  0.96469165  0.66002064  0.73993483  1.0
  C  C291  1  0.10004440  0.83998097  0.69532900  1.0
  C  C292  1  0.29702777  0.52782497  0.36321871  1.0
  C  C293  1  0.60895819  0.97217578  0.23079876  1.0
  C  C294  1  0.20297330  0.33975491  0.26920412  1.0
  C  C295  1  0.89103464  0.16023908  0.13678593  1.0
  C  C296  1  0.70297033  0.47217690  0.63678533  1.0
  C  C297  1  0.39103992  0.02782340  0.76920526  1.0
  C  C298  1  0.79702874  0.66024690  0.73079371  1.0
  C  C299  1  0.10895880  0.83975418  0.86321762  1.0
  C  C300  1  0.48868663  0.76571032  0.00420763  1.0
  C  C301  1  0.73008210  0.73429052  0.27702314  1.0
  C  C302  1  0.01131282  0.50710423  0.22297706  1.0
  C  C303  1  0.76991921  0.99289627  0.49579035  1.0
  C  C304  1  0.51131399  0.23429271  0.99579162  1.0
  C  C305  1  0.26991758  0.26570861  0.72297874  1.0
  C  C306  1  0.98868563  0.49289521  0.77702208  1.0
  C  C307  1  0.23008174  0.00710368  0.50420913  1.0
  C  C308  1  0.52559139  0.80026862  0.92921877  1.0
  C  C309  1  0.77051289  0.69973179  0.27467664  1.0
  C  C310  1  0.97440948  0.54518916  0.22532289  1.0
  C  C311  1  0.72948881  0.95481134  0.57078019  1.0
  C  C312  1  0.47440829  0.19973328  0.07078142  1.0
  C  C313  1  0.22948790  0.30026832  0.72532357  1.0
  C  C314  1  0.02559162  0.45481242  0.77467588  1.0
  C  C315  1  0.27051167  0.04518827  0.42921976  1.0
  C  C316  1  0.49408767  0.82496626  0.88980591  1.0
  C  C317  1  0.78522842  0.67503457  0.33087764  1.0
  C  C318  1  0.00591260  0.61610469  0.16912125  1.0
  C  C319  1  0.71477488  0.88389713  0.61019168  1.0
  C  C320  1  0.50591139  0.17503553  0.11019376  1.0
  C  C321  1  0.21477330  0.32496525  0.66912333  1.0
  C  C322  1  0.99408725  0.38389570  0.83087820  1.0
  C  C323  1  0.28522653  0.11610405  0.38980734  1.0
  C  C324  1  0.42454316  0.81499802  0.92466578  1.0
  C  C325  1  0.76033716  0.68500372  0.39045443  1.0
  C  C326  1  0.07545637  0.65078888  0.10954486  1.0
  C  C327  1  0.73966625  0.84921141  0.57533262  1.0
  C  C328  1  0.57545684  0.18500304  0.07533465  1.0
  C  C329  1  0.23966519  0.31499854  0.60954536  1.0
  C  C330  1  0.92454114  0.34920942  0.89045522  1.0
  C  C331  1  0.26033391  0.15078903  0.42466709  1.0
  C  C332  1  0.38671924  0.77924777  0.99947087  1.0
  C  C333  1  0.72128358  0.72075602  0.39252720  1.0
  C  C334  1  0.11328299  0.61380894  0.10747120  1.0
  C  C335  1  0.77872026  0.88619275  0.50052586  1.0
  C  C336  1  0.61328169  0.22075441  0.00052863  1.0
  C  C337  1  0.27871814  0.27924470  0.60747378  1.0
  C  C338  1  0.88671546  0.38619050  0.89252794  1.0
  C  C339  1  0.22128068  0.11380764  0.49947363  1.0
  C  C340  1  0.41844751  0.75466295  0.03894266  1.0
  C  C341  1  0.70639512  0.74534052  0.33621397  1.0
  C  C342  1  0.08155343  0.54260778  0.16378593  1.0
  C  C343  1  0.79360673  0.95739211  0.46105474  1.0
  C  C344  1  0.58155264  0.24533974  0.96105707  1.0
  C  C345  1  0.29360473  0.25465890  0.66378718  1.0
  C  C346  1  0.91844549  0.45739245  0.83621275  1.0
  C  C347  1  0.20639406  0.04260755  0.53894547  1.0
  C  C348  1  0.39140052  0.84278444  0.88200512  1.0
  C  C349  1  0.77521029  0.65721448  0.45138283  1.0
  C  C350  1  0.10859881  0.72659134  0.04861555  1.0
  C  C351  1  0.72479115  0.77340773  0.61799407  1.0
  C  C352  1  0.60859932  0.15721639  0.11799433  1.0
  C  C353  1  0.22479410  0.34278666  0.54861605  1.0
  C  C354  1  0.89140198  0.27340883  0.95138296  1.0
  C  C355  1  0.27520463  0.22659039  0.38200717  1.0
  N  N356  1  0.97724349  0.12753724  0.99815915  1.0
  N  N357  1  0.37430482  0.37246247  0.15029376  1.0
  N  N358  1  0.52275672  0.02459736  0.34970586  1.0
  N  N359  1  0.12569534  0.47540034  0.50184195  1.0
  N  N360  1  0.02275650  0.87246234  0.00184469  1.0
  N  N361  1  0.62569441  0.62753923  0.84970348  1.0
  N  N362  1  0.47724267  0.97539954  0.65029403  1.0
  N  N363  1  0.87430373  0.52459824  0.49815940  1.0
  O  O364  1  0.81898905  0.05713439  0.02036294  1.0
  O  O365  1  0.42250385  0.44286284  0.23814791  1.0
  O  O366  1  0.68101262  0.16064745  0.26185470  1.0
  O  O367  1  0.07749564  0.33934820  0.47964061  1.0
  O  O368  1  0.18101313  0.94286893  0.97963759  1.0
  O  O369  1  0.57749459  0.55713145  0.76185632  1.0
  O  O370  1  0.31898865  0.83935031  0.73814501  1.0
  O  O371  1  0.92250389  0.66064924  0.52036369  1.0
  O  O372  1  0.72208227  0.06954699  0.06529667  1.0
  O  O373  1  0.36515870  0.43045659  0.34746459  1.0
  O  O374  1  0.77791934  0.21262428  0.15253408  1.0
  O  O375  1  0.13484209  0.28737539  0.43470509  1.0
  O  O376  1  0.27792163  0.93045740  0.93470272  1.0
  O  O377  1  0.63484270  0.56954588  0.65253615  1.0
  O  O378  1  0.22208271  0.78737291  0.84746712  1.0
  O  O379  1  0.86515730  0.71262190  0.56529650  1.0
  O  O380  1  0.24558573  0.45828205  0.37928287  1.0
  O  O381  1  0.66243548  0.04171693  0.21270048  1.0
  O  O382  1  0.25441418  0.37512992  0.28730460  1.0
  O  O383  1  0.83756233  0.12486458  0.12071883  1.0
  O  O384  1  0.75441536  0.54171946  0.62071761  1.0
  O  O385  1  0.33756701  0.95828271  0.78730370  1.0
  O  O386  1  0.74558568  0.62486822  0.71269483  1.0
  O  O387  1  0.16243470  0.87513285  0.87928343  1.0
  O  O388  1  0.29515548  0.54939898  0.40924940  1.0
  O  O389  1  0.54135111  0.95060110  0.25424497  1.0
  O  O390  1  0.20484732  0.29559298  0.24575569  1.0
  O  O391  1  0.95865005  0.20440556  0.09074685  1.0
  O  O392  1  0.70484218  0.45060191  0.59074826  1.0
  O  O393  1  0.45865343  0.04940072  0.74575490  1.0
  O  O394  1  0.79515710  0.70440882  0.75423806  1.0
  O  O395  1  0.04134982  0.79558989  0.90925256  1.0
  O  O396  1  0.42899542  0.87219386  0.81374281  1.0
  O  O397  1  0.81405625  0.62780068  0.44320220  1.0
  O  O398  1  0.07100100  0.75725651  0.05679922  1.0
  O  O399  1  0.68594154  0.74274280  0.68625477  1.0
  O  O400  1  0.57100459  0.12780541  0.18625760  1.0
  O  O401  1  0.18594328  0.37220049  0.55679870  1.0
  O  O402  1  0.92899806  0.24274432  0.94320215  1.0
  O  O403  1  0.31405332  0.25725386  0.31374398  1.0
  O  O404  1  0.33044599  0.83598669  0.91502749  1.0
  O  O405  1  0.74898708  0.66401632  0.50553911  1.0
  O  O406  1  0.16955535  0.75452460  0.99446210  1.0
  O  O407  1  0.75101262  0.74547554  0.58497030  1.0
  O  O408  1  0.66955416  0.16401510  0.08497223  1.0
  O  O409  1  0.25101761  0.33598758  0.49446005  1.0
  O  O410  1  0.83044153  0.24547352  0.00553917  1.0
  O  O411  1  0.24898536  0.25452452  0.41502762  1.0
