# generated using pymatgen
data_Zn4H12C44O21F8
_symmetry_space_group_name_H-M   'P 1'
_cell_length_a   23.68294802
_cell_length_b   23.68300557
_cell_length_c   23.68096672
_cell_angle_alpha   65.76829164
_cell_angle_beta   72.85106009
_cell_angle_gamma   107.14379229
_symmetry_Int_Tables_number   1
_chemical_formula_structural   Zn4H12C44O21F8
_chemical_formula_sum   'Zn8 H24 C88 O42 F16'
_cell_volume   10170.90007727
_cell_formula_units_Z   2
loop_
 _symmetry_equiv_pos_site_id
 _symmetry_equiv_pos_as_xyz
  1  'x, y, z'
loop_
 _atom_site_type_symbol
 _atom_site_label
 _atom_site_symmetry_multiplicity
 _atom_site_fract_x
 _atom_site_fract_y
 _atom_site_fract_z
 _atom_site_occupancy
  Zn  Zn0  1  0.05679774  0.10043916  0.45858048  1.0
  Zn  Zn1  1  0.05680839  0.95637403  0.48461297  1.0
  Zn  Zn2  1  0.94318612  0.95858140  0.60044546  1.0
  Zn  Zn3  1  0.94320026  0.98461749  0.45636335  1.0
  Zn  Zn4  1  0.94097602  0.39956843  0.04363504  1.0
  Zn  Zn5  1  0.05902553  0.54364024  0.89954755  1.0
  Zn  Zn6  1  0.94098171  0.54141886  0.01538848  1.0
  Zn  Zn7  1  0.05901270  0.51538024  0.04142023  1.0
  H  H8  1  0.93331989  0.20602384  0.90646380  1.0
  H  H9  1  0.06667797  0.40645197  0.70598185  1.0
  H  H10  1  0.91332349  0.10033100  0.78961378  1.0
  H  H11  1  0.08666796  0.28959887  0.60031331  1.0
  H  H12  1  0.06669232  0.66025684  0.22728946  1.0
  H  H13  1  0.93331723  0.72731340  0.16022375  1.0
  H  H14  1  0.08667926  0.79708524  0.31298164  1.0
  H  H15  1  0.91330699  0.81297855  0.29711095  1.0
  H  H16  1  0.61008018  0.21040766  0.20292170  1.0
  H  H17  1  0.61006843  0.39966884  0.18700984  1.0
  H  H18  1  0.38753943  0.09354565  0.33979622  1.0
  H  H19  1  0.38754491  0.29398817  0.27271202  1.0
  H  H20  1  0.38994376  0.70295117  0.71038107  1.0
  H  H21  1  0.38990331  0.68699070  0.89968878  1.0
  H  H22  1  0.61247257  0.83980400  0.59353313  1.0
  H  H23  1  0.61244069  0.77267853  0.79400797  1.0
  H  H24  1  0.83781645  0.09903404  0.35453711  1.0
  H  H25  1  0.04642812  0.40093668  0.26124189  1.0
  H  H26  1  0.95355385  0.19235107  0.14547347  1.0
  H  H27  1  0.16217315  0.30765418  0.23876670  1.0
  H  H28  1  0.83781953  0.73877007  0.80769555  1.0
  H  H29  1  0.04644229  0.64549919  0.69231442  1.0
  H  H30  1  0.95356007  0.76119139  0.90098819  1.0
  H  H31  1  0.16217950  0.85452840  0.59901944  1.0
  C  C32  1  0.17877325  0.08938992  0.41062726  1.0
  C  C33  1  0.99999476  0.86280496  0.63722953  1.0
  C  C34  1  0.99997480  0.09055327  0.59055072  1.0
  C  C35  1  0.82122078  0.91061227  0.58939449  1.0
  C  C36  1  0.00000549  0.13720887  0.36278145  1.0
  C  C37  1  0.00001120  0.90945183  0.40944903  1.0
  C  C38  1  0.99999418  0.41062939  0.91059604  1.0
  C  C39  1  0.00001412  0.63721401  0.86277605  1.0
  C  C40  1  0.81889492  0.40945269  0.09056316  1.0
  C  C41  1  0.00000485  0.58939263  0.08938118  1.0
  C  C42  1  0.99998020  0.36277948  0.13721787  1.0
  C  C43  1  0.18110158  0.59055600  0.90943581  1.0
  C  C44  1  0.99999505  0.19547744  0.30451945  1.0
  C  C45  1  0.99998896  0.30451357  0.19548345  1.0
  C  C46  1  0.95756138  0.17940378  0.27642906  1.0
  C  C47  1  0.04415724  0.32058928  0.22184228  1.0
  C  C48  1  0.95582133  0.23398638  0.22358281  1.0
  C  C49  1  0.04243037  0.26600347  0.27815711  1.0
  C  C50  1  0.99999155  0.80452181  0.69549000  1.0
  C  C51  1  0.99999919  0.69548051  0.80451495  1.0
  C  C52  1  0.95756248  0.77815308  0.76602678  1.0
  C  C53  1  0.04416564  0.72358735  0.73397777  1.0
  C  C54  1  0.95583004  0.72183284  0.82060768  1.0
  C  C55  1  0.04243209  0.77643965  0.67939485  1.0
  C  C56  1  0.00000188  0.37312584  0.87309098  1.0
  C  C57  1  0.96348769  0.29915614  0.90911883  1.0
  C  C58  1  0.96249921  0.26319798  0.87547293  1.0
  C  C59  1  0.00000309  0.30151520  0.80150043  1.0
  C  C60  1  0.03750049  0.37548053  0.76316462  1.0
  C  C61  1  0.03651676  0.40913862  0.79911390  1.0
  C  C62  1  0.00000284  0.26597467  0.76597518  1.0
  C  C63  1  0.00000018  0.23531433  0.73530952  1.0
  C  C64  1  0.99999535  0.19975936  0.69975514  1.0
  C  C65  1  0.95157315  0.12886491  0.73495454  1.0
  C  C66  1  0.95243271  0.09514092  0.69902328  1.0
  C  C67  1  0.99998501  0.12806822  0.62805395  1.0
  C  C68  1  0.04754374  0.19902746  0.59511466  1.0
  C  C69  1  0.04840999  0.23495012  0.62884853  1.0
  C  C70  1  0.00000716  0.62690296  0.12687975  1.0
  C  C71  1  0.03653023  0.62741833  0.16432313  1.0
  C  C72  1  0.03751374  0.66205261  0.19929369  1.0
  C  C73  1  0.00000145  0.69850090  0.19848057  1.0
  C  C74  1  0.96250336  0.69932389  0.16201445  1.0
  C  C75  1  0.96349167  0.66435406  0.12737955  1.0
  C  C76  1  0.99999663  0.73402613  0.23401933  1.0
  C  C77  1  0.99998883  0.76468442  0.26469433  1.0
  C  C78  1  0.99999483  0.80024100  0.30024518  1.0
  C  C79  1  0.04841970  0.81347298  0.32271538  1.0
  C  C80  1  0.04755502  0.84853264  0.35730925  1.0
  C  C81  1  0.99999951  0.87192847  0.37195124  1.0
  C  C82  1  0.95244007  0.85729858  0.34855884  1.0
  C  C83  1  0.95157817  0.82271680  0.31348351  1.0
  C  C84  1  0.74387615  0.37194011  0.12806776  1.0
  C  C85  1  0.70584882  0.30098513  0.15146834  1.0
  C  C86  1  0.63619405  0.26505581  0.18653254  1.0
  C  C87  1  0.60048326  0.30024250  0.19976493  1.0
  C  C88  1  0.63618704  0.37113686  0.17728703  1.0
  C  C89  1  0.70584120  0.40486119  0.14269643  1.0
  C  C90  1  0.52937574  0.26469038  0.23531788  1.0
  C  C91  1  0.46804086  0.23401656  0.26598967  1.0
  C  C92  1  0.39697711  0.19848366  0.30152730  1.0
  C  C93  1  0.36133262  0.12451573  0.33800764  1.0
  C  C94  1  0.29172661  0.09086742  0.37264443  1.0
  C  C95  1  0.25378092  0.12688987  0.37313402  1.0
  C  C96  1  0.29173658  0.20085472  0.33568225  1.0
  C  C97  1  0.36134218  0.23680891  0.30071223  1.0
  C  C98  1  0.25611788  0.62807286  0.87192685  1.0
  C  C99  1  0.29415903  0.65148327  0.80096178  1.0
  C  C100  1  0.36381277  0.68653998  0.76504175  1.0
  C  C101  1  0.39950798  0.69976144  0.80024218  1.0
  C  C102  1  0.36379233  0.67726414  0.87114949  1.0
  C  C103  1  0.29413659  0.64268050  0.90486978  1.0
  C  C104  1  0.47061891  0.73531613  0.76469266  1.0
  C  C105  1  0.53194806  0.76597947  0.73402005  1.0
  C  C106  1  0.60301470  0.80151279  0.69849195  1.0
  C  C107  1  0.63866627  0.83799449  0.62451740  1.0
  C  C108  1  0.70827021  0.87263009  0.59086766  1.0
  C  C109  1  0.74621323  0.87310963  0.62689554  1.0
  C  C110  1  0.70824876  0.83564780  0.70087084  1.0
  C  C111  1  0.63864525  0.80068036  0.73682436  1.0
  C  C112  1  0.91843922  0.10489246  0.29604200  1.0
  C  C113  1  0.09904833  0.39510392  0.18644782  1.0
  C  C114  1  0.90092277  0.21447676  0.20397213  1.0
  C  C115  1  0.08155315  0.28550936  0.31354307  1.0
  C  C116  1  0.91843423  0.81353029  0.78555675  1.0
  C  C117  1  0.09907154  0.70398872  0.71444376  1.0
  C  C118  1  0.90093777  0.68643130  0.89513120  1.0
  C  C119  1  0.08155595  0.79607789  0.60486729  1.0
  O  O120  1  0.00000026  0.00000247  0.49999858  1.0
  O  O121  1  0.14993786  0.11908558  0.43331396  1.0
  O  O122  1  0.05131783  0.89770796  0.57681817  1.0
  O  O123  1  0.97500278  0.02373298  0.62832942  1.0
  O  O124  1  0.14995311  0.03086782  0.41676286  1.0
  O  O125  1  0.02494643  0.12833128  0.52372028  1.0
  O  O126  1  0.94867314  0.87188254  0.65366394  1.0
  O  O127  1  0.85003959  0.93328470  0.61910804  1.0
  O  O128  1  0.94868373  0.07680674  0.39767887  1.0
  O  O129  1  0.85005165  0.91676319  0.53085827  1.0
  O  O130  1  0.05132449  0.15363620  0.37185989  1.0
  O  O131  1  0.02498192  0.89665307  0.45130327  1.0
  O  O132  1  0.97504667  0.95130548  0.39664183  1.0
  O  O133  1  0.00000030  0.50000240  0.99999657  1.0
  O  O134  1  0.94760256  0.38093034  0.96912860  1.0
  O  O135  1  0.02553328  0.60233556  0.84633453  1.0
  O  O136  1  0.84794998  0.47627450  0.04870945  1.0
  O  O137  1  0.05238394  0.46915417  0.88088999  1.0
  O  O138  1  0.84794414  0.37168170  0.10337142  1.0
  O  O139  1  0.97449635  0.62812189  0.92318921  1.0
  O  O140  1  0.94762136  0.56670901  0.08324299  1.0
  O  O141  1  0.02549037  0.42318099  0.12813144  1.0
  O  O142  1  0.05238866  0.58324522  0.06669841  1.0
  O  O143  1  0.97447464  0.34635490  0.10232240  1.0
  O  O144  1  0.15205522  0.60336159  0.87165776  1.0
  O  O145  1  0.15204444  0.54869167  0.97626227  1.0
  O  O146  1  0.85120676  0.07080096  0.33843824  1.0
  O  O147  1  0.94577857  0.07947432  0.26954245  1.0
  O  O148  1  0.09075252  0.42918181  0.21959857  1.0
  O  O149  1  0.15096601  0.42054206  0.13366442  1.0
  O  O150  1  0.90922002  0.18963861  0.16157904  1.0
  O  O151  1  0.84899877  0.21531233  0.23048032  1.0
  O  O152  1  0.14878090  0.31035686  0.28039777  1.0
  O  O153  1  0.05421069  0.28466016  0.36632103  1.0
  O  O154  1  0.85120402  0.78038971  0.81040920  1.0
  O  O155  1  0.94577775  0.86629782  0.78470762  1.0
  O  O156  1  0.09077732  0.66160496  0.68959626  1.0
  O  O157  1  0.15099159  0.73048485  0.71528403  1.0
  O  O158  1  0.90922926  0.71956577  0.92922781  1.0
  O  O159  1  0.84901944  0.63366786  0.92055818  1.0
  O  O160  1  0.14878449  0.83844661  0.57077853  1.0
  O  O161  1  0.05421207  0.76959993  0.57943050  1.0
  F  F162  1  0.92865272  0.25991716  0.98034368  1.0
  F  F163  1  0.07134484  0.48035631  0.75985433  1.0
  F  F164  1  0.90359783  0.02790562  0.73451789  1.0
  F  F165  1  0.09636202  0.23451668  0.52786323  1.0
  F  F166  1  0.07138023  0.59104965  0.16872305  1.0
  F  F167  1  0.92866155  0.66877042  0.09099182  1.0
  F  F168  1  0.09638753  0.86188338  0.37570693  1.0
  F  F169  1  0.90360586  0.87569344  0.36193208  1.0
  F  F170  1  0.73760141  0.26550327  0.13812516  1.0
  F  F171  1  0.73759117  0.47209161  0.12429586  1.0
  F  F172  1  0.25975430  0.01965300  0.40903683  1.0
  F  F173  1  0.25977221  0.24010857  0.33127274  1.0
  F  F174  1  0.26242542  0.63816691  0.76545316  1.0
  F  F175  1  0.26237170  0.62426678  0.97211138  1.0
  F  F176  1  0.74025431  0.90903525  0.51964370  1.0
  F  F177  1  0.74021447  0.83122192  0.74012579  1.0
