# generated using pymatgen
data_NaYbH16(C14O5)2
_symmetry_space_group_name_H-M   'P 1'
_cell_length_a   7.22594581
_cell_length_b   14.93745556
_cell_length_c   15.41758145
_cell_angle_alpha   118.97504666
_cell_angle_beta   89.99978747
_cell_angle_gamma   89.99959189
_symmetry_Int_Tables_number   1
_chemical_formula_structural   NaYbH16(C14O5)2
_chemical_formula_sum   'Na2 Yb2 H32 C56 O20'
_cell_volume   1455.83322534
_cell_formula_units_Z   2
loop_
 _symmetry_equiv_pos_site_id
 _symmetry_equiv_pos_as_xyz
  1  'x, y, z'
loop_
 _atom_site_type_symbol
 _atom_site_label
 _atom_site_symmetry_multiplicity
 _atom_site_fract_x
 _atom_site_fract_y
 _atom_site_fract_z
 _atom_site_occupancy
  Na  Na0  1  0.70306876  0.63224041  0.99999926  1.0
  Na  Na1  1  0.20308078  0.36775802  0.00000387  1.0
  Yb  Yb2  1  0.20805263  0.62781605  0.99999789  1.0
  Yb  Yb3  1  0.70805685  0.37218746  0.00000415  1.0
  H  H4  1  0.17137299  0.96424939  0.27279238  1.0
  H  H5  1  0.67141322  0.03576659  0.72722856  1.0
  H  H6  1  0.67139120  0.30854120  0.27279027  1.0
  H  H7  1  0.17138948  0.69145267  0.72720612  1.0
  H  H8  1  0.73183631  0.86232632  0.19165178  1.0
  H  H9  1  0.23188493  0.13766425  0.80835731  1.0
  H  H10  1  0.23184751  0.32931432  0.19163942  1.0
  H  H11  1  0.73185021  0.67069625  0.80836197  1.0
  H  H12  1  0.28597490  0.12794459  0.41561100  1.0
  H  H13  1  0.78598961  0.87207107  0.58439768  1.0
  H  H14  1  0.78599686  0.28767114  0.41561172  1.0
  H  H15  1  0.28598841  0.71232036  0.58438324  1.0
  H  H16  1  0.84761452  0.02895860  0.33014203  1.0
  H  H17  1  0.34764596  0.97103155  0.66986376  1.0
  H  H18  1  0.34763371  0.30117518  0.33012644  1.0
  H  H19  1  0.84763369  0.69884233  0.66987730  1.0
  H  H20  1  0.54154610  0.37128086  0.54781440  1.0
  H  H21  1  0.04156200  0.62872005  0.45218417  1.0
  H  H22  1  0.04156729  0.17651858  0.54779753  1.0
  H  H23  1  0.54156433  0.82347638  0.45218771  1.0
  H  H24  1  0.57884146  0.09181952  0.56339051  1.0
  H  H25  1  0.07883819  0.90818025  0.43660625  1.0
  H  H26  1  0.07884463  0.47156844  0.56339880  1.0
  H  H27  1  0.57884055  0.52843107  0.43659695  1.0
  H  H28  1  0.42802330  0.46350044  0.72299172  1.0
  H  H29  1  0.92802306  0.53650064  0.27701423  1.0
  H  H30  1  0.92803545  0.25946332  0.72296963  1.0
  H  H31  1  0.42803305  0.74052733  0.27701711  1.0
  H  H32  1  0.48274748  0.18724154  0.74184869  1.0
  H  H33  1  0.98273230  0.81275593  0.25815003  1.0
  H  H34  1  0.98275825  0.55459588  0.74185743  1.0
  H  H35  1  0.48275474  0.44540040  0.25813862  1.0
  C  C36  1  0.37343676  0.80647895  0.14092631  1.0
  C  C37  1  0.87348339  0.19352940  0.85908213  1.0
  C  C38  1  0.87342595  0.33445013  0.14092642  1.0
  C  C39  1  0.37343746  0.66554874  0.85907203  1.0
  C  C40  1  0.44420019  0.90326509  0.22440256  1.0
  C  C41  1  0.94425161  0.09673935  0.77561272  1.0
  C  C42  1  0.94421232  0.32113431  0.22439553  1.0
  C  C43  1  0.44421457  0.67886665  0.77560277  1.0
  C  C44  1  0.31896044  0.97807319  0.28783144  1.0
  C  C45  1  0.81899128  0.02193327  0.71218190  1.0
  C  C46  1  0.81897873  0.30975575  0.28782929  1.0
  C  C47  1  0.31897576  0.69024252  0.71216777  1.0
  C  C48  1  0.63485324  0.92091802  0.24075605  1.0
  C  C49  1  0.13489063  0.07907401  0.75925134  1.0
  C  C50  1  0.13486493  0.31983052  0.24074673  1.0
  C  C51  1  0.63486510  0.68017496  0.75925036  1.0
  C  C52  1  0.38186054  0.06864431  0.36708855  1.0
  C  C53  1  0.88188925  0.93136676  0.63292481  1.0
  C  C54  1  0.88188199  0.29844426  0.36708421  1.0
  C  C55  1  0.38187887  0.70155208  0.63291405  1.0
  C  C56  1  0.69992745  0.01284147  0.31804754  1.0
  C  C57  1  0.19996271  0.98715255  0.68196111  1.0
  C  C58  1  0.19994510  0.30519858  0.31803607  1.0
  C  C59  1  0.69994505  0.69480915  0.68196328  1.0
  C  C60  1  0.57243887  0.08607247  0.38076436  1.0
  C  C61  1  0.07245352  0.91392435  0.61923781  1.0
  C  C62  1  0.07245851  0.29468953  0.38076092  1.0
  C  C63  1  0.57245048  0.70531211  0.61923539  1.0
  C  C64  1  0.56325919  0.22674550  0.54626662  1.0
  C  C65  1  0.06326052  0.77325528  0.45373185  1.0
  C  C66  1  0.06326860  0.31951129  0.54626081  1.0
  C  C67  1  0.56325802  0.68048672  0.45373270  1.0
  C  C68  1  0.52302685  0.33105980  0.59022194  1.0
  C  C69  1  0.02303280  0.66894136  0.40977912  1.0
  C  C70  1  0.02303885  0.25914898  0.59020766  1.0
  C  C71  1  0.52303326  0.74084715  0.40978172  1.0
  C  C72  1  0.54352633  0.17289240  0.59880430  1.0
  C  C73  1  0.04352312  0.82710667  0.40119476  1.0
  C  C74  1  0.04353319  0.42590589  0.59880747  1.0
  C  C75  1  0.54352455  0.57409212  0.40118753  1.0
  C  C76  1  0.46027447  0.38225805  0.68786421  1.0
  C  C77  1  0.96027278  0.61774085  0.31213588  1.0
  C  C78  1  0.96028846  0.30558266  0.68785021  1.0
  C  C79  1  0.46028232  0.69441070  0.31213996  1.0
  C  C80  1  0.48835217  0.22559026  0.69726053  1.0
  C  C81  1  0.98833998  0.77440795  0.30273741  1.0
  C  C82  1  0.98836105  0.47165464  0.69726167  1.0
  C  C83  1  0.48835186  0.52834172  0.30273296  1.0
  C  C84  1  0.44445941  0.33024044  0.74244776  1.0
  C  C85  1  0.94445184  0.66975712  0.25755252  1.0
  C  C86  1  0.94447364  0.41219032  0.74244126  1.0
  C  C87  1  0.44446114  0.58780564  0.25755293  1.0
  C  C88  1  0.39419254  0.38288057  0.84936620  1.0
  C  C89  1  0.89418377  0.61711767  0.15063393  1.0
  C  C90  1  0.89419154  0.46645876  0.84935936  1.0
  C  C91  1  0.39418478  0.53353671  0.15063581  1.0
  O  O92  1  0.20650513  0.80095859  0.11139568  1.0
  O  O93  1  0.70656391  0.19904814  0.88862233  1.0
  O  O94  1  0.70648616  0.31045249  0.11141251  1.0
  O  O95  1  0.20650816  0.68955840  0.88859898  1.0
  O  O96  1  0.47909009  0.72792965  0.10051067  1.0
  O  O97  1  0.97913389  0.27208154  0.89947877  1.0
  O  O98  1  0.97907843  0.37257164  0.10049896  1.0
  O  O99  1  0.47909296  0.62741347  0.89948621  1.0
  O  O100  1  0.64037643  0.17979068  0.45206890  1.0
  O  O101  1  0.14039160  0.82020874  0.54792757  1.0
  O  O102  1  0.14040107  0.27227975  0.45206614  1.0
  O  O103  1  0.64038772  0.72772162  0.54792847  1.0
  O  O104  1  0.29270338  0.46258689  0.88722003  1.0
  O  O105  1  0.79268775  0.53741259  0.11278120  1.0
  O  O106  1  0.79269080  0.42460991  0.88720398  1.0
  O  O107  1  0.29268787  0.57538692  0.11279090  1.0
  O  O108  1  0.45511478  0.34171098  0.90002985  1.0
  O  O109  1  0.95510441  0.65828415  0.09996882  1.0
  O  O110  1  0.95511419  0.55829468  0.90003451  1.0
  O  O111  1  0.45510915  0.44170018  0.09996314  1.0
