# generated using pymatgen
data_Al6H19C70N3O29
_symmetry_space_group_name_H-M   'P 1'
_cell_length_a   11.18826021
_cell_length_b   11.82878344
_cell_length_c   27.13918475
_cell_angle_alpha   81.53779542
_cell_angle_beta   81.77800625
_cell_angle_gamma   65.79168074
_symmetry_Int_Tables_number   1
_chemical_formula_structural   Al6H19C70N3O29
_chemical_formula_sum   'Al6 H19 C70 N3 O29'
_cell_volume   3226.54735314
_cell_formula_units_Z   1
loop_
 _symmetry_equiv_pos_site_id
 _symmetry_equiv_pos_as_xyz
  1  'x, y, z'
loop_
 _atom_site_type_symbol
 _atom_site_label
 _atom_site_symmetry_multiplicity
 _atom_site_fract_x
 _atom_site_fract_y
 _atom_site_fract_z
 _atom_site_occupancy
  Al  Al0  1  0.39188858  0.39832001  0.51375972  1.0
  Al  Al1  1  0.66983661  0.42427210  0.49464076  1.0
  Al  Al2  1  0.42330204  0.65984448  0.49848028  1.0
  Al  Al3  1  0.94359909  0.93750550  0.98040195  1.0
  Al  Al4  1  0.91180260  0.67614988  0.99780134  1.0
  Al  Al5  1  0.66572060  0.91182928  0.99472490  1.0
  H  H6  1  0.30513463  0.78771057  0.19620680  1.0
  H  H7  1  0.28009370  0.45513204  0.21938058  1.0
  H  H8  1  0.06308748  0.54903776  0.29155141  1.0
  H  H9  1  0.54040439  0.03402870  0.24271650  1.0
  H  H10  1  0.75754732  0.97302344  0.29826230  1.0
  H  H11  1  0.42587916  0.27479838  0.27882900  1.0
  H  H12  1  0.61340921  0.98350978  0.74630746  1.0
  H  H13  1  0.45248691  0.98052989  0.75349255  1.0
  H  H14  1  0.49957426  0.06893622  0.70053551  1.0
  H  H15  1  0.55573687  0.36606666  0.19464803  1.0
  H  H16  1  0.88687790  0.06508290  0.21418355  1.0
  H  H17  1  0.45706506  0.75881057  0.78319419  1.0
  H  H18  1  0.77430479  0.43929864  0.78841737  1.0
  H  H19  1  0.90979588  0.54058792  0.71024993  1.0
  H  H20  1  0.82171911  0.76072116  0.75866544  1.0
  H  H21  1  0.08755299  0.88112536  0.26860370  1.0
  H  H22  1  0.41616625  0.56953108  0.26253693  1.0
  H  H23  1  0.26533076  0.29437240  0.55826148  1.0
  H  H24  1  0.04291795  0.06753513  0.93744735  1.0
  C  C25  1  0.61692457  0.28196058  0.43656754  1.0
  C  C26  1  0.17904457  0.67003182  0.19376262  1.0
  C  C27  1  0.11841317  0.60078489  0.27038809  1.0
  C  C28  1  0.61986813  0.62749060  0.41738338  1.0
  C  C29  1  0.19230037  0.66509615  0.29438716  1.0
  C  C30  1  0.23875594  0.54934303  0.23095504  1.0
  C  C31  1  0.31373594  0.61273401  0.25368490  1.0
  C  C32  1  0.15982825  0.67728570  0.14296274  1.0
  C  C33  1  0.20514962  0.65808739  0.34589660  1.0
  C  C34  1  0.71258294  0.05970829  0.27466553  1.0
  C  C35  1  0.59082639  0.09476478  0.24480850  1.0
  C  C36  1  0.63777290  0.67342122  0.26872794  1.0
  C  C37  1  0.68448156  0.09999573  0.10407669  1.0
  C  C38  1  0.63872565  0.23692335  0.38828210  1.0
  C  C39  1  0.78431712  0.11015414  0.22898891  1.0
  C  C40  1  0.26914236  0.61470608  0.43889408  1.0
  C  C41  1  0.66286898  0.14537373  0.19778323  1.0
  C  C42  1  0.72217851  0.24360960  0.24792136  1.0
  C  C43  1  0.64902825  0.19226750  0.29532993  1.0
  C  C44  1  0.59909877  0.27849626  0.21807713  1.0
  C  C45  1  0.52802712  0.22726693  0.26387814  1.0
  C  C46  1  0.67183706  0.12237263  0.14738853  1.0
  C  C47  1  0.63817348  0.66428413  0.31849012  1.0
  C  C48  1  0.64384853  0.21556564  0.34528014  1.0
  C  C49  1  0.63333028  0.76851190  0.72319579  1.0
  C  C50  1  0.55792254  0.71262607  0.76673682  1.0
  C  C51  1  0.68972133  0.68096054  0.89118696  1.0
  C  C52  1  0.61880189  0.28046997  0.57874764  1.0
  C  C53  1  0.66869482  0.63303974  0.60129945  1.0
  C  C54  1  0.76050683  0.71271556  0.75274851  1.0
  C  C55  1  0.68382647  0.65692188  0.79672564  1.0
  C  C56  1  0.80980688  0.59007866  0.72678208  1.0
  C  C57  1  0.68543796  0.64609974  0.69578631  1.0
  C  C58  1  0.63845850  0.65415545  0.36416979  1.0
  C  C59  1  0.73564153  0.53366360  0.76961464  1.0
  C  C60  1  0.60873464  0.58952933  0.74049070  1.0
  C  C61  1  0.68597761  0.66724397  0.84783384  1.0
  C  C62  1  0.67930235  0.63949132  0.64478115  1.0
  C  C63  1  0.10495495  0.69925149  0.86255119  1.0
  C  C64  1  0.63885168  0.61219655  0.55472018  1.0
  C  C65  1  0.12237167  0.68631906  0.81770418  1.0
  C  C66  1  0.13965007  0.67424837  0.76863251  1.0
  C  C67  1  0.15587803  0.66464794  0.72328816  1.0
  C  C68  1  0.18047905  0.65238756  0.67420179  1.0
  C  C69  1  0.13233368  0.78638149  0.25746534  1.0
  C  C70  1  0.20746828  0.64077785  0.62933066  1.0
  C  C71  1  0.69125405  0.11826951  0.86405716  1.0
  C  C72  1  0.68762597  0.14599530  0.81872162  1.0
  C  C73  1  0.68346056  0.17218612  0.76910559  1.0
  C  C74  1  0.67854004  0.19197041  0.72335343  1.0
  C  C75  1  0.66686291  0.21355523  0.67405032  1.0
  C  C76  1  0.26500343  0.61438290  0.57936323  1.0
  C  C77  1  0.65217067  0.23403105  0.62918667  1.0
  C  C78  1  0.07376175  0.71632640  0.05373139  1.0
  C  C79  1  0.69712644  0.71980886  0.07450972  1.0
  C  C80  1  0.25242929  0.73423965  0.21799202  1.0
  C  C81  1  0.71750188  0.05218666  0.05601197  1.0
  C  C82  1  0.06023916  0.72769606  0.91333728  1.0
  C  C83  1  0.71155953  0.70992771  0.93764951  1.0
  C  C84  1  0.71503891  0.06396858  0.91457938  1.0
  C  C85  1  0.66316720  0.69510801  0.12687875  1.0
  C  C86  1  0.65012543  0.68678558  0.17279747  1.0
  C  C87  1  0.64006294  0.67936347  0.22285987  1.0
  C  C88  1  0.79140191  0.31985833  0.25046354  1.0
  C  C89  1  0.53425721  0.98415450  0.72628637  1.0
  C  C90  1  0.52987342  0.52639347  0.73270472  1.0
  C  C91  1  0.13182021  0.68829508  0.10030426  1.0
  C  C92  1  0.92365650  0.78284104  0.22261130  1.0
  C  C93  1  0.22266196  0.64572204  0.38998145  1.0
  C  C94  1  0.05618498  0.72316759  0.23468977  1.0
  N  N95  1  0.84901930  0.38140430  0.25331080  1.0
  N  N96  1  0.46476959  0.47541474  0.72561293  1.0
  N  N97  1  0.81561909  0.83495680  0.21170364  1.0
  O  O98  1  0.29077406  0.50591297  0.45914523  1.0
  O  O99  1  0.61844006  0.81964798  0.05191308  1.0
  O  O100  1  0.62756934  0.03294192  0.03775375  1.0
  O  O101  1  0.50911525  0.29573335  0.46191962  1.0
  O  O102  1  0.82316029  0.04889721  0.92922853  1.0
  O  O103  1  0.03931698  0.83559086  0.92312863  1.0
  O  O104  1  0.04015599  0.64127582  0.94370441  1.0
  O  O105  1  0.81468181  0.63317051  0.95829545  1.0
  O  O106  1  0.63115881  0.81307418  0.95382182  1.0
  O  O107  1  0.62599039  0.03056169  0.93963045  1.0
  O  O108  1  0.83928444  0.84057476  0.99063709  1.0
  O  O109  1  0.71737613  0.51255766  0.53519941  1.0
  O  O110  1  0.70835920  0.30955082  0.44896085  1.0
  O  O111  1  0.70329091  0.52663884  0.43723797  1.0
  O  O112  1  0.51615744  0.70389665  0.43986869  1.0
  O  O113  1  0.29056887  0.69916819  0.45686382  1.0
  O  O114  1  0.28026797  0.51154620  0.56568718  1.0
  O  O115  1  0.50307553  0.30336871  0.56981641  1.0
  O  O116  1  0.70891333  0.29941174  0.54775263  1.0
  O  O117  1  0.58260154  0.88154873  0.69603139  1.0
  O  O118  1  0.53204329  0.69095387  0.53737677  1.0
  O  O119  1  0.30115899  0.69774571  0.55377023  1.0
  O  O120  1  0.49614024  0.49544786  0.50228336  1.0
  O  O121  1  0.83330305  0.02869807  0.03615034  1.0
  O  O122  1  0.05638615  0.82072285  0.02980374  1.0
  O  O123  1  0.03877398  0.63332849  0.04177364  1.0
  O  O124  1  0.80669069  0.64349573  0.05566336  1.0
  O  O125  1  0.29936288  0.30751912  0.52409379  1.0
  O  O126  1  0.04158075  0.02322273  0.97028788  1.0
