# generated using pymatgen
data_Zn4H32C40N12O13
_symmetry_space_group_name_H-M   'P 1'
_cell_length_a   23.93061745
_cell_length_b   23.92950168
_cell_length_c   23.92969997
_cell_angle_alpha   107.47746585
_cell_angle_beta   113.54100663
_cell_angle_gamma   107.47308793
_symmetry_Int_Tables_number   1
_chemical_formula_structural   Zn4H32C40N12O13
_chemical_formula_sum   'Zn8 H64 C80 N24 O26'
_cell_volume   10508.62760446
_cell_formula_units_Z   2
loop_
 _symmetry_equiv_pos_site_id
 _symmetry_equiv_pos_as_xyz
  1  'x, y, z'
loop_
 _atom_site_type_symbol
 _atom_site_label
 _atom_site_symmetry_multiplicity
 _atom_site_fract_x
 _atom_site_fract_y
 _atom_site_fract_z
 _atom_site_occupancy
  Zn  Zn0  1  0.51410747  0.55593662  0.45742043  1.0
  Zn  Zn1  1  0.54258351  0.44405899  0.48588167  1.0
  Zn  Zn2  1  0.54182806  0.55595917  0.59853015  1.0
  Zn  Zn3  1  0.40147308  0.44404302  0.45816725  1.0
  Zn  Zn4  1  0.98588563  0.44331520  0.04183658  1.0
  Zn  Zn5  1  0.95743017  0.44329840  0.90146982  1.0
  Zn  Zn6  1  0.95817417  0.55669423  0.01412500  1.0
  Zn  Zn7  1  0.09851765  0.55668375  0.04256172  1.0
  H  H8  1  0.82455003  0.10842900  0.90038106  1.0
  H  H9  1  0.78383635  0.10841660  0.70805097  1.0
  H  H10  1  0.71516608  0.89079553  0.79141030  1.0
  H  H11  1  0.67541229  0.89077152  0.59926578  1.0
  H  H12  1  0.29194163  0.89156017  0.21612161  1.0
  H  H13  1  0.09964321  0.89158497  0.17544503  1.0
  H  H14  1  0.40072430  0.10921659  0.32453029  1.0
  H  H15  1  0.20861509  0.10921642  0.28484462  1.0
  H  H16  1  0.82446249  0.42380507  0.21524624  1.0
  H  H17  1  0.78480008  0.57625028  0.17558631  1.0
  H  H18  1  0.71615022  0.42420684  0.32456698  1.0
  H  H19  1  0.67545711  0.57584210  0.28389513  1.0
  H  H20  1  0.09930029  0.42382305  0.70851039  1.0
  H  H21  1  0.29141441  0.57624227  0.90062665  1.0
  H  H22  1  0.20806366  0.42421043  0.59963113  1.0
  H  H23  1  0.40036376  0.57581680  0.79194423  1.0
  H  H24  1  0.25141880  0.40613916  0.33038785  1.0
  H  H25  1  0.16932914  0.36603737  0.25772713  1.0
  H  H26  1  0.24856985  0.57899545  0.15474536  1.0
  H  H27  1  0.33065336  0.58839696  0.19670166  1.0
  H  H28  1  0.07575512  0.42104936  0.16960786  1.0
  H  H29  1  0.10831187  0.41162407  0.24227139  1.0
  H  H30  1  0.42424309  0.59380431  0.34524706  1.0
  H  H31  1  0.39168821  0.63393524  0.30329902  1.0
  H  H32  1  0.66960776  0.59386553  0.74860640  1.0
  H  H33  1  0.74228170  0.63397940  0.83069428  1.0
  H  H34  1  0.84524803  0.42100075  0.75140449  1.0
  H  H35  1  0.80326794  0.41158486  0.66932082  1.0
  H  H36  1  0.83042666  0.57897587  0.92426496  1.0
  H  H37  1  0.75776035  0.58840504  0.89171829  1.0
  H  H38  1  0.65471782  0.40617853  0.57575367  1.0
  H  H39  1  0.69667523  0.36604614  0.60830282  1.0
  H  H40  1  0.92199231  0.28669024  0.00518558  1.0
  H  H41  1  0.89189450  0.20849816  0.00176091  1.0
  H  H42  1  0.86468108  0.28667421  0.78149570  1.0
  H  H43  1  0.81657749  0.20847828  0.70673630  1.0
  H  H44  1  0.62402695  0.71249877  0.71573830  1.0
  H  H45  1  0.66908678  0.79072379  0.78999617  1.0
  H  H46  1  0.58836469  0.71246294  0.49669531  1.0
  H  H47  1  0.62150545  0.79070178  0.50064019  1.0
  H  H48  1  0.21848941  0.71329955  0.13528012  1.0
  H  H49  1  0.29324574  0.79149314  0.18337103  1.0
  H  H50  1  0.99482960  0.71333160  0.07800972  1.0
  H  H51  1  0.99826076  0.79151746  0.10810313  1.0
  H  H52  1  0.50329980  0.28752398  0.41159775  1.0
  H  H53  1  0.49935500  0.20928684  0.37845388  1.0
  H  H54  1  0.28428065  0.28751344  0.37599332  1.0
  H  H55  1  0.21003143  0.20928872  0.33093859  1.0
  H  H56  1  0.91154168  0.40828252  0.12402756  1.0
  H  H57  1  0.87838885  0.37909074  0.16910347  1.0
  H  H58  1  0.87595095  0.59171678  0.08844811  1.0
  H  H59  1  0.83090158  0.62092738  0.12161901  1.0
  H  H60  1  0.63530892  0.41680966  0.42198237  1.0
  H  H61  1  0.68341156  0.39015335  0.39189674  1.0
  H  H62  1  0.57804145  0.58322913  0.36473914  1.0
  H  H63  1  0.60814295  0.60990110  0.31664153  1.0
  H  H64  1  0.99672607  0.40830020  0.78423527  1.0
  H  H65  1  0.00067853  0.37911259  0.70994697  1.0
  H  H66  1  0.21574643  0.59170034  0.00325552  1.0
  H  H67  1  0.28998933  0.62090296  0.99928688  1.0
  H  H68  1  0.28149506  0.41682544  0.49481530  1.0
  H  H69  1  0.20675172  0.39016516  0.49825003  1.0
  H  H70  1  0.50517597  0.58318663  0.71850075  1.0
  H  H71  1  0.50174167  0.60986225  0.79326368  1.0
  C  C72  1  0.59182712  0.50000666  0.40817801  1.0
  C  C73  1  0.63894844  0.50004101  0.63894775  1.0
  C  C74  1  0.59136394  0.68284242  0.59138944  1.0
  C  C75  1  0.40817479  0.50000251  0.59182425  1.0
  C  C76  1  0.36106260  0.49995321  0.36103683  1.0
  C  C77  1  0.40861840  0.31715542  0.40861963  1.0
  C  C78  1  0.90818151  0.31635567  0.90818294  1.0
  C  C79  1  0.86108341  0.49999675  0.86107070  1.0
  C  C80  1  0.90858463  0.50001200  0.09143058  1.0
  C  C81  1  0.09182153  0.68364479  0.09181997  1.0
  C  C82  1  0.13893154  0.50001619  0.13893519  1.0
  C  C83  1  0.09140847  0.49999202  0.90855403  1.0
  C  C84  1  0.30477720  0.49996942  0.30475928  1.0
  C  C85  1  0.19521683  0.50000728  0.19521847  1.0
  C  C86  1  0.23362887  0.45570630  0.27596316  1.0
  C  C87  1  0.26636287  0.54233885  0.22208334  1.0
  C  C88  1  0.17974192  0.45765485  0.22401354  1.0
  C  C89  1  0.32025107  0.54424875  0.27789218  1.0
  C  C90  1  0.69523118  0.50002602  0.69522909  1.0
  C  C91  1  0.80479441  0.50000697  0.80479079  1.0
  C  C92  1  0.72403384  0.54429386  0.76638493  1.0
  C  C93  1  0.77790380  0.45765221  0.73363510  1.0
  C  C94  1  0.77599466  0.54235595  0.82027268  1.0
  C  C95  1  0.72208487  0.45573266  0.67974722  1.0
  C  C96  1  0.87165666  0.24331419  0.87166625  1.0
  C  C97  1  0.86458400  0.20599888  0.90815076  1.0
  C  C98  1  0.82957901  0.13592563  0.87217110  1.0
  C  C99  1  0.80043774  0.10092184  0.80046254  1.0
  C  C100  1  0.80631969  0.13591710  0.76375977  1.0
  C  C101  1  0.84140456  0.20598757  0.79786239  1.0
  C  C102  1  0.76499328  0.03009085  0.76503162  1.0
  C  C103  1  0.73446394  0.96911292  0.73451194  1.0
  C  C104  1  0.69903895  0.89829109  0.69909386  1.0
  C  C105  1  0.69256296  0.86328722  0.73567210  1.0
  C  C106  1  0.65805634  0.79322814  0.70169865  1.0
  C  C107  1  0.62786261  0.75588581  0.62789655  1.0
  C  C108  1  0.63499086  0.79321302  0.59142338  1.0
  C  C109  1  0.67050854  0.86327188  0.62750422  1.0
  C  C110  1  0.12834680  0.75668670  0.12833708  1.0
  C  C111  1  0.20214044  0.79399381  0.15856593  1.0
  C  C112  1  0.23624104  0.86406659  0.19365172  1.0
  C  C113  1  0.19954933  0.89907633  0.19954688  1.0
  C  C114  1  0.12785083  0.86408576  0.17041735  1.0
  C  C115  1  0.09187631  0.79401636  0.13541516  1.0
  C  C116  1  0.23497423  0.96991129  0.23497548  1.0
  C  C117  1  0.26549595  0.03088138  0.26549510  1.0
  C  C118  1  0.30091613  0.10170538  0.30092954  1.0
  C  C119  1  0.37249396  0.13671838  0.32944823  1.0
  C  C120  1  0.40857326  0.20677712  0.36497425  1.0
  C  C121  1  0.37210967  0.24411063  0.37212219  1.0
  C  C122  1  0.29831759  0.20678099  0.34194096  1.0
  C  C123  1  0.26434452  0.13671569  0.30742525  1.0
  C  C124  1  0.87205684  0.50000648  0.12795107  1.0
  C  C125  1  0.86490766  0.45639009  0.15812799  1.0
  C  C126  1  0.82938322  0.45695342  0.19266656  1.0
  C  C127  1  0.80088350  0.50003561  0.19918203  1.0
  C  C128  1  0.80736792  0.54309291  0.17065616  1.0
  C  C129  1  0.84188032  0.54362548  0.13510581  1.0
  C  C130  1  0.76547834  0.50004004  0.23459111  1.0
  C  C131  1  0.73498177  0.50003195  0.26508184  1.0
  C  C132  1  0.69955300  0.50002281  0.30047419  1.0
  C  C133  1  0.69367452  0.45743952  0.32959137  1.0
  C  C134  1  0.65859634  0.45645932  0.36458363  1.0
  C  C135  1  0.62835085  0.50001461  0.37166255  1.0
  C  C136  1  0.63543447  0.54358247  0.34143486  1.0
  C  C137  1  0.67042667  0.54260247  0.30635676  1.0
  C  C138  1  0.12792230  0.50001089  0.87202296  1.0
  C  C139  1  0.09145096  0.45640497  0.79822228  1.0
  C  C140  1  0.12752776  0.45696687  0.76424219  1.0
  C  C141  1  0.19910851  0.50003808  0.80081301  1.0
  C  C142  1  0.23568653  0.54309772  0.87240165  1.0
  C  C143  1  0.20171405  0.54362863  0.90848924  1.0
  C  C144  1  0.23452998  0.50003646  0.76541718  1.0
  C  C145  1  0.26503079  0.50002457  0.73493609  1.0
  C  C146  1  0.30045908  0.50001650  0.69954057  1.0
  C  C147  1  0.26376525  0.45743823  0.62784058  1.0
  C  C148  1  0.29786614  0.45646138  0.59187434  1.0
  C  C149  1  0.37166284  0.50000830  0.62835141  1.0
  C  C150  1  0.40813994  0.54356210  0.70214987  1.0
  C  C151  1  0.37216291  0.54258697  0.73624238  1.0
  N  N152  1  0.21167483  0.41032262  0.29777029  1.0
  N  N153  1  0.28831880  0.58610775  0.19865895  1.0
  N  N154  1  0.11255225  0.41391989  0.20222529  1.0
  N  N155  1  0.38744299  0.58964058  0.30133513  1.0
  N  N156  1  0.70223766  0.58969054  0.78834883  1.0
  N  N157  1  0.80132607  0.41388735  0.71166623  1.0
  N  N158  1  0.79780704  0.58611025  0.88747238  1.0
  N  N159  1  0.69863528  0.41034013  0.61254710  1.0
  N  N160  1  0.88962978  0.23663486  0.97761936  1.0
  N  N161  1  0.84698363  0.23661638  0.75901658  1.0
  N  N162  1  0.65587571  0.76257546  0.74123500  1.0
  N  N163  1  0.60653320  0.76253885  0.52122918  1.0
  N  N164  1  0.24097439  0.76335950  0.15297321  1.0
  N  N165  1  0.02240649  0.76338668  0.11037287  1.0
  N  N166  1  0.47875548  0.23744312  0.39342202  1.0
  N  N167  1  0.25878479  0.23743388  0.34413377  1.0
  N  N168  1  0.89334155  0.41464340  0.15590417  1.0
  N  N169  1  0.84408424  0.58536143  0.10665723  1.0
  N  N170  1  0.65301218  0.41203142  0.38962610  1.0
  N  N171  1  0.61039438  0.58801396  0.34703014  1.0
  N  N172  1  0.02126732  0.41466936  0.75870098  1.0
  N  N173  1  0.24124585  0.58534534  0.97867509  1.0
  N  N174  1  0.25902791  0.41203135  0.52239903  1.0
  N  N175  1  0.47760576  0.58798479  0.74098628  1.0
  O  O176  1  0.49999640  0.49999554  0.50000517  1.0
  O  O177  1  0.56295918  0.53783651  0.41094141  1.0
  O  O178  1  0.61444653  0.45956251  0.57525308  1.0
  O  O179  1  0.58334262  0.65125076  0.62541015  1.0
  O  O180  1  0.58907402  0.46217058  0.43704881  1.0
  O  O181  1  0.56780791  0.65123381  0.52578616  1.0
  O  O182  1  0.61574874  0.54053089  0.65494185  1.0
  O  O183  1  0.47488310  0.53780460  0.62690351  1.0
  O  O184  1  0.34507969  0.45946521  0.38423721  1.0
  O  O185  1  0.37309317  0.46220533  0.52511105  1.0
  O  O186  1  0.42475132  0.54042087  0.38552214  1.0
  O  O187  1  0.47421444  0.34875706  0.43215451  1.0
  O  O188  1  0.37460715  0.34875073  0.41664895  1.0
  O  O189  1  0.99999982  0.49999860  0.99999468  1.0
  O  O190  1  0.93707176  0.34799002  0.97489201  1.0
  O  O191  1  0.88558184  0.46080766  0.84507621  1.0
  O  O192  1  0.91662470  0.54205998  0.06787541  1.0
  O  O193  1  0.91092517  0.34797934  0.87310152  1.0
  O  O194  1  0.93215032  0.45796953  0.08339551  1.0
  O  O195  1  0.88428739  0.53917551  0.92476609  1.0
  O  O196  1  0.02512063  0.65201928  0.06294096  1.0
  O  O197  1  0.15491675  0.53920338  0.11443322  1.0
  O  O198  1  0.12689563  0.65201130  0.08906828  1.0
  O  O199  1  0.07524419  0.46083358  0.11573085  1.0
  O  O200  1  0.02581088  0.45794186  0.87455523  1.0
  O  O201  1  0.12542261  0.54202880  0.97416854  1.0
