# generated using pymatgen
data_ZnH9IrC17N3O4
_symmetry_space_group_name_H-M   'P 1'
_cell_length_a   13.97645159
_cell_length_b   14.96273688
_cell_length_c   15.21808625
_cell_angle_alpha   85.65367817
_cell_angle_beta   85.40362405
_cell_angle_gamma   86.85371489
_symmetry_Int_Tables_number   1
_chemical_formula_structural   ZnH9IrC17N3O4
_chemical_formula_sum   'Zn4 H36 Ir4 C68 N12 O16'
_cell_volume   3159.32223034
_cell_formula_units_Z   4
loop_
 _symmetry_equiv_pos_site_id
 _symmetry_equiv_pos_as_xyz
  1  'x, y, z'
loop_
 _atom_site_type_symbol
 _atom_site_label
 _atom_site_symmetry_multiplicity
 _atom_site_fract_x
 _atom_site_fract_y
 _atom_site_fract_z
 _atom_site_occupancy
  Zn  Zn0  1  0.69366634  0.61354260  0.35062225  1.0
  Zn  Zn1  1  0.30633627  0.38645698  0.64937877  1.0
  Zn  Zn2  1  0.89894726  0.60267304  0.33554162  1.0
  Zn  Zn3  1  0.10105694  0.39732386  0.66445687  1.0
  H  H4  1  0.20809438  0.64677862  0.47922013  1.0
  H  H5  1  0.79190608  0.35322095  0.52077973  1.0
  H  H6  1  0.03222932  0.63460880  0.47050274  1.0
  H  H7  1  0.96777273  0.36538808  0.52949524  1.0
  H  H8  1  0.06798873  0.57549545  0.20828105  1.0
  H  H9  1  0.93201381  0.42450546  0.79171856  1.0
  H  H10  1  0.24618999  0.57925835  0.20622459  1.0
  H  H11  1  0.75381104  0.42074390  0.79377634  1.0
  H  H12  1  0.95554422  0.58731265  0.04897349  1.0
  H  H13  1  0.04445999  0.41268423  0.95102302  1.0
  H  H14  1  0.64960328  0.63778183  0.07488670  1.0
  H  H15  1  0.35039929  0.36221843  0.92511559  1.0
  H  H16  1  0.64123437  0.33435989  0.38223035  1.0
  H  H17  1  0.35876330  0.66563833  0.61777376  1.0
  H  H18  1  0.94562740  0.32490072  0.30640155  1.0
  H  H19  1  0.05437083  0.67510019  0.69359969  1.0
  H  H20  1  0.64170566  0.89837842  0.38088302  1.0
  H  H21  1  0.35829699  0.10162049  0.61911870  1.0
  H  H22  1  0.94841194  0.88922805  0.30896759  1.0
  H  H23  1  0.05159276  0.11077287  0.69102923  1.0
  H  H24  1  0.52882216  0.58616751  0.48483995  1.0
  H  H25  1  0.47118185  0.41383274  0.51515960  1.0
  H  H26  1  0.35100936  0.57685318  0.48707211  1.0
  H  H27  1  0.64899537  0.42314708  0.51292870  1.0
  H  H28  1  0.37682895  0.65396882  0.20598734  1.0
  H  H29  1  0.62317427  0.34603277  0.79401217  1.0
  H  H30  1  0.55457131  0.65285937  0.21586931  1.0
  H  H31  1  0.44543247  0.34714490  0.78412929  1.0
  H  H32  1  0.63599203  0.61816943  0.64397996  1.0
  H  H33  1  0.36401043  0.38183282  0.35601757  1.0
  H  H34  1  0.94513216  0.61750461  0.61401631  1.0
  H  H35  1  0.05486814  0.38249765  0.38598532  1.0
  H  H36  1  0.64523858  0.64119306  0.91010628  1.0
  H  H37  1  0.35476463  0.35880855  0.08989585  1.0
  H  H38  1  0.95176607  0.59234799  0.88402355  1.0
  H  H39  1  0.04823655  0.40765158  0.11597418  1.0
  Ir  Ir40  1  0.60625939  0.11007307  0.39589088  1.0
  Ir  Ir41  1  0.39374179  0.88992648  0.60410367  1.0
  Ir  Ir42  1  0.98338140  0.09993902  0.30286217  1.0
  Ir  Ir43  1  0.01662264  0.90006059  0.69714532  1.0
  C  C44  1  0.24304725  0.61334864  0.34312316  1.0
  C  C45  1  0.75695661  0.38665430  0.65687553  1.0
  C  C46  1  0.18102820  0.62916496  0.41797646  1.0
  C  C47  1  0.81897517  0.37083395  0.58202259  1.0
  C  C48  1  0.78725907  0.60860014  0.51697903  1.0
  C  C49  1  0.21273940  0.39139672  0.48301987  1.0
  C  C50  1  0.80530546  0.61254988  0.17014619  1.0
  C  C51  1  0.19469201  0.38745168  0.82985307  1.0
  C  C52  1  0.08279843  0.62375991  0.41366654  1.0
  C  C53  1  0.91720199  0.37624033  0.58633327  1.0
  C  C54  1  0.79443546  0.43356443  0.34899255  1.0
  C  C55  1  0.20556284  0.56643513  0.65100944  1.0
  C  C56  1  0.10283886  0.59095208  0.26648109  1.0
  C  C57  1  0.89716225  0.40904883  0.73351731  1.0
  C  C58  1  0.80290210  0.61309821  0.07168269  1.0
  C  C59  1  0.19709692  0.38690135  0.92831662  1.0
  C  C60  1  0.79820227  0.61782012  0.88726574  1.0
  C  C61  1  0.20180174  0.38218013  0.11273381  1.0
  C  C62  1  0.79407951  0.33308274  0.34788605  1.0
  C  C63  1  0.20592103  0.66691549  0.65211588  1.0
  C  C64  1  0.20185177  0.59454197  0.26585994  1.0
  C  C65  1  0.79815284  0.40546030  0.73413875  1.0
  C  C66  1  0.79518438  0.88249828  0.34463865  1.0
  C  C67  1  0.20481899  0.11750063  0.65536105  1.0
  C  C68  1  0.88802156  0.59952608  0.01789455  1.0
  C  C69  1  0.11198196  0.40047015  0.98210666  1.0
  C  C70  1  0.71534004  0.62773133  0.03255255  1.0
  C  C71  1  0.28466492  0.37226489  0.96744658  1.0
  C  C72  1  0.70565367  0.29142686  0.36976993  1.0
  C  C73  1  0.29434471  0.70857138  0.63023742  1.0
  C  C74  1  0.79496605  0.78269067  0.34156149  1.0
  C  C75  1  0.20502149  0.21730884  0.65843931  1.0
  C  C76  1  0.88251322  0.28635645  0.32592083  1.0
  C  C77  1  0.11748497  0.71364512  0.67407838  1.0
  C  C78  1  0.79505210  0.15343891  0.35167430  1.0
  C  C79  1  0.20494984  0.84655999  0.64832353  1.0
  C  C80  1  0.79545875  0.06076741  0.35072755  1.0
  C  C81  1  0.20454530  0.93923216  0.64926745  1.0
  C  C82  1  0.70923618  0.93127678  0.36644692  1.0
  C  C83  1  0.29076583  0.06872078  0.63355299  1.0
  C  C84  1  0.88122695  0.92631560  0.32596302  1.0
  C  C85  1  0.11877499  0.07368330  0.67403678  1.0
  C  C86  1  0.34799371  0.61564451  0.34596307  1.0
  C  C87  1  0.65201162  0.38435777  0.65403754  1.0
  C  C88  1  0.49132690  0.59976270  0.42475980  1.0
  C  C89  1  0.50867703  0.40023890  0.57524031  1.0
  C  C90  1  0.39221125  0.59632470  0.42536480  1.0
  C  C91  1  0.60779340  0.40367690  0.57463526  1.0
  C  C92  1  0.40709464  0.63701596  0.26920487  1.0
  C  C93  1  0.59290850  0.36298698  0.73079585  1.0
  C  C94  1  0.50571583  0.63775115  0.27389776  1.0
  C  C95  1  0.49428731  0.36225178  0.72610165  1.0
  C  C96  1  0.78998282  0.61536484  0.61409207  1.0
  C  C97  1  0.21001832  0.38463540  0.38590770  1.0
  C  C98  1  0.70620467  0.61835795  0.67092024  1.0
  C  C99  1  0.29379711  0.38164364  0.32908003  1.0
  C  C100  1  0.87648833  0.61888284  0.65383650  1.0
  C  C101  1  0.12351269  0.38111942  0.34616311  1.0
  C  C102  1  0.79515784  0.62080460  0.79034774  1.0
  C  C103  1  0.20484323  0.37919698  0.20965258  1.0
  C  C104  1  0.71273059  0.62978444  0.94137133  1.0
  C  C105  1  0.28727130  0.37021513  0.05862842  1.0
  C  C106  1  0.88597260  0.60210926  0.92647432  1.0
  C  C107  1  0.11403013  0.39788830  0.07352422  1.0
  C  C108  1  0.70477993  0.19750563  0.37242124  1.0
  C  C109  1  0.29522053  0.80249394  0.62757928  1.0
  C  C110  1  0.88422906  0.19238111  0.32743117  1.0
  C  C111  1  0.11577223  0.80761645  0.67256944  1.0
  N  N112  1  0.04430414  0.60471061  0.33933775  1.0
  N  N113  1  0.95569919  0.39528897  0.66066125  1.0
  N  N114  1  0.54725254  0.61944357  0.35038723  1.0
  N  N115  1  0.45275199  0.38056005  0.64961268  1.0
  N  N116  1  0.88149175  0.01663128  0.32832243  1.0
  N  N117  1  0.11850954  0.98336627  0.67167753  1.0
  N  N118  1  0.70773401  0.62025837  0.75824314  1.0
  N  N119  1  0.29226634  0.37974321  0.24175723  1.0
  N  N120  1  0.70940931  0.02141938  0.36996325  1.0
  N  N121  1  0.29059331  0.97858019  0.63003383  1.0
  N  N122  1  0.87984650  0.62246216  0.74086502  1.0
  N  N123  1  0.12015238  0.37754009  0.25913475  1.0
  O  O124  1  0.72481506  0.62230996  0.21507915  1.0
  O  O125  1  0.27517517  0.37769290  0.78491594  1.0
  O  O126  1  0.70495837  0.60399884  0.48772187  1.0
  O  O127  1  0.29503918  0.39600140  0.51228078  1.0
  O  O128  1  0.86783448  0.60775706  0.47180706  1.0
  O  O129  1  0.13216286  0.39223444  0.52819169  1.0
  O  O130  1  0.88728961  0.60269947  0.20160456  1.0
  O  O131  1  0.11270117  0.39730612  0.79840080  1.0
  O  O132  1  0.71302658  0.47665430  0.35487889  1.0
  O  O133  1  0.28696482  0.52334055  0.64512660  1.0
  O  O134  1  0.87584613  0.74148777  0.32671697  1.0
  O  O135  1  0.12414976  0.25850373  0.67328582  1.0
  O  O136  1  0.87594012  0.46833933  0.34581870  1.0
  O  O137  1  0.12405461  0.53166020  0.65417895  1.0
  O  O138  1  0.71337578  0.74809970  0.35459521  1.0
  O  O139  1  0.28661788  0.25190588  0.64540403  1.0
