# generated using pymatgen
data_Cd3H60(C11O3)8
_symmetry_space_group_name_H-M   'P 1'
_cell_length_a   15.51131758
_cell_length_b   16.15080222
_cell_length_c   18.18005240
_cell_angle_alpha   107.36423238
_cell_angle_beta   101.82696551
_cell_angle_gamma   111.77205594
_symmetry_Int_Tables_number   1
_chemical_formula_structural   Cd3H60(C11O3)8
_chemical_formula_sum   'Cd3 H60 C88 O24'
_cell_volume   3772.16026964
_cell_formula_units_Z   1
loop_
 _symmetry_equiv_pos_site_id
 _symmetry_equiv_pos_as_xyz
  1  'x, y, z'
loop_
 _atom_site_type_symbol
 _atom_site_label
 _atom_site_symmetry_multiplicity
 _atom_site_fract_x
 _atom_site_fract_y
 _atom_site_fract_z
 _atom_site_occupancy
  Cd  Cd0  1  0.96964190  0.81904159  0.08796589  1.0
  Cd  Cd1  1  0.03037188  0.18097214  0.91203795  1.0
  Cd  Cd2  1  0.00000757  0.00000969  0.99999643  1.0
  H  H3  1  0.97131955  0.55654704  0.15802632  1.0
  H  H4  1  0.02872739  0.44338282  0.84189268  1.0
  H  H5  1  0.02678713  0.48088714  0.24552773  1.0
  H  H6  1  0.97327179  0.51907563  0.75441528  1.0
  H  H7  1  0.28614593  0.75834705  0.40155392  1.0
  H  H8  1  0.71375926  0.24171158  0.59850267  1.0
  H  H9  1  0.23174713  0.83161835  0.30994927  1.0
  H  H10  1  0.76812931  0.16841972  0.69010387  1.0
  H  H11  1  0.14036655  0.43521537  0.28160206  1.0
  H  H12  1  0.85964524  0.56479834  0.71840362  1.0
  H  H13  1  0.19778499  0.81509145  0.54072393  1.0
  H  H14  1  0.80221388  0.18492955  0.45926208  1.0
  H  H15  1  0.11776629  0.70186315  0.54207727  1.0
  H  H16  1  0.88225310  0.29818272  0.45796024  1.0
  H  H17  1  0.11714785  0.71106681  0.44557297  1.0
  H  H18  1  0.88282970  0.28891902  0.55443570  1.0
  H  H19  1  0.34328113  0.37581583  0.57664558  1.0
  H  H20  1  0.65671840  0.62420441  0.42337995  1.0
  H  H21  1  0.39131622  0.44549413  0.52105088  1.0
  H  H22  1  0.60868398  0.55445234  0.47892676  1.0
  H  H23  1  0.29098816  0.32209587  0.46595621  1.0
  H  H24  1  0.70896539  0.67786867  0.53407223  1.0
  H  H25  1  0.54140831  0.68347523  0.56631093  1.0
  H  H26  1  0.45856256  0.31650696  0.43365927  1.0
  H  H27  1  0.53012667  0.77483578  0.64312263  1.0
  H  H28  1  0.46983559  0.22516833  0.35681878  1.0
  H  H29  1  0.43182753  0.69970127  0.54412875  1.0
  H  H30  1  0.56811535  0.30022530  0.45582617  1.0
  H  H31  1  0.23843869  0.34848182  0.26177678  1.0
  H  H32  1  0.76155998  0.65152749  0.73820668  1.0
  H  H33  1  0.17813492  0.17315857  0.17383404  1.0
  H  H34  1  0.82186477  0.82685439  0.82615441  1.0
  H  H35  1  0.02646218  0.08898384  0.33231924  1.0
  H  H36  1  0.97360039  0.91103440  0.66770669  1.0
  H  H37  1  0.08821332  0.26533326  0.42277263  1.0
  H  H38  1  0.91184860  0.73468352  0.57724894  1.0
  H  H39  1  0.37101163  0.72464874  0.85089521  1.0
  H  H40  1  0.62897225  0.27530568  0.14911623  1.0
  H  H41  1  0.13555304  0.75432569  0.70153395  1.0
  H  H42  1  0.86439250  0.24560819  0.29843438  1.0
  H  H43  1  0.05359337  0.82263550  0.78916612  1.0
  H  H44  1  0.94634932  0.17730203  0.21079550  1.0
  H  H45  1  0.13027320  0.69940629  0.95589931  1.0
  H  H46  1  0.86978093  0.30065870  0.04413354  1.0
  H  H47  1  0.21986882  0.63704968  0.87221862  1.0
  H  H48  1  0.78018210  0.36300432  0.12781901  1.0
  H  H49  1  0.48040018  0.55995809  0.78528944  1.0
  H  H50  1  0.51959792  0.44000732  0.21474616  1.0
  H  H51  1  0.56986663  0.86062749  0.82404279  1.0
  H  H52  1  0.43011898  0.13932038  0.17594524  1.0
  H  H53  1  0.73561113  0.90982598  0.92368610  1.0
  H  H54  1  0.26438452  0.09014751  0.07630278  1.0
  H  H55  1  0.64547737  0.61061347  0.88760402  1.0
  H  H56  1  0.35453030  0.38936513  0.11242193  1.0
  H  H57  1  0.97971910  0.48454862  0.56091122  1.0
  H  H58  1  0.02029093  0.51550457  0.43907648  1.0
  H  H59  1  0.05732886  0.50064033  0.65734654  1.0
  H  H60  1  0.94268255  0.49935223  0.34261665  1.0
  H  H61  1  0.07315546  0.44384820  0.56340436  1.0
  H  H62  1  0.92682364  0.55617060  0.43653130  1.0
  C  C63  1  0.06034237  0.74496595  0.17943118  1.0
  C  C64  1  0.93959716  0.25499860  0.82053478  1.0
  C  C65  1  0.09720990  0.69917799  0.22989949  1.0
  C  C66  1  0.90275349  0.30080123  0.77009003  1.0
  C  C67  1  0.04069956  0.59963146  0.21090214  1.0
  C  C68  1  0.95932696  0.40033557  0.78905376  1.0
  C  C69  1  0.07213807  0.55793274  0.26024227  1.0
  C  C70  1  0.92789331  0.44204747  0.73971467  1.0
  C  C71  1  0.15936172  0.61497092  0.33127892  1.0
  C  C72  1  0.84062450  0.38503322  0.66872182  1.0
  C  C73  1  0.21733833  0.71415736  0.34819609  1.0
  C  C74  1  0.78258477  0.28587869  0.65184128  1.0
  C  C75  1  0.18705055  0.75529318  0.29761767  1.0
  C  C76  1  0.81286012  0.24473041  0.70241693  1.0
  C  C77  1  0.18654292  0.56950555  0.38508213  1.0
  C  C78  1  0.81345421  0.43049935  0.61491804  1.0
  C  C79  1  0.17155895  0.47318355  0.34871841  1.0
  C  C80  1  0.82844962  0.52683454  0.65128674  1.0
  C  C81  1  0.19300641  0.42220645  0.39360669  1.0
  C  C82  1  0.80702629  0.57781245  0.60639807  1.0
  C  C83  1  0.23348678  0.47174134  0.48079088  1.0
  C  C84  1  0.76654463  0.52828340  0.51922289  1.0
  C  C85  1  0.24733301  0.56758394  0.52008026  1.0
  C  C86  1  0.75268288  0.43243855  0.47992792  1.0
  C  C87  1  0.22393116  0.61618183  0.47276137  1.0
  C  C88  1  0.77607313  0.38383843  0.52724633  1.0
  C  C89  1  0.16312884  0.73516577  0.50980242  1.0
  C  C90  1  0.83686536  0.26484423  0.49020462  1.0
  C  C91  1  0.32420093  0.39012092  0.52188731  1.0
  C  C92  1  0.67579388  0.60986935  0.47812234  1.0
  C  C93  1  0.48950158  0.70143643  0.59218204  1.0
  C  C94  1  0.51046964  0.29854795  0.40778991  1.0
  C  C95  1  0.16623743  0.31868376  0.34759027  1.0
  C  C96  1  0.83378871  0.68133658  0.65241149  1.0
  C  C97  1  0.19179663  0.29183734  0.27746317  1.0
  C  C98  1  0.80820462  0.70817197  0.72252844  1.0
  C  C99  1  0.15835964  0.19394333  0.22810919  1.0
  C  C100  1  0.84165592  0.80607552  0.77189082  1.0
  C  C101  1  0.09746115  0.12068194  0.24711684  1.0
  C  C102  1  0.90255529  0.87933180  0.75288528  1.0
  C  C103  1  0.07383316  0.14687442  0.31828691  1.0
  C  C104  1  0.92620513  0.85314668  0.68172659  1.0
  C  C105  1  0.10828251  0.24494348  0.36839148  1.0
  C  C106  1  0.89176272  0.75507691  0.63161924  1.0
  C  C107  1  0.38125851  0.64167695  0.65964308  1.0
  C  C108  1  0.61875535  0.35832726  0.34037093  1.0
  C  C109  1  0.28369385  0.61443152  0.61155123  1.0
  C  C110  1  0.71632195  0.38558659  0.38845797  1.0
  C  C111  1  0.21830574  0.62670858  0.65138203  1.0
  C  C112  1  0.78170939  0.37330661  0.34862189  1.0
  C  C113  1  0.24862659  0.66834332  0.73819813  1.0
  C  C114  1  0.75137650  0.33164917  0.26181305  1.0
  C  C115  1  0.34559278  0.69186571  0.78369626  1.0
  C  C116  1  0.65440147  0.30809678  0.21631753  1.0
  C  C117  1  0.41235035  0.67901575  0.74613104  1.0
  C  C118  1  0.58764086  0.32094453  0.25388602  1.0
  C  C119  1  0.18543857  0.69298593  0.78179348  1.0
  C  C120  1  0.81457073  0.30701973  0.21821458  1.0
  C  C121  1  0.13438263  0.74208857  0.75714778  1.0
  C  C122  1  0.86560138  0.25788268  0.24284612  1.0
  C  C123  1  0.08816921  0.77990968  0.80564089  1.0
  C  C124  1  0.91181161  0.22006303  0.19434291  1.0
  C  C125  1  0.08789885  0.76577510  0.87805328  1.0
  C  C126  1  0.91211532  0.23424082  0.12194846  1.0
  C  C127  1  0.13315440  0.71171382  0.90049197  1.0
  C  C128  1  0.86688120  0.28832700  0.09953119  1.0
  C  C129  1  0.18268117  0.67703795  0.85360814  1.0
  C  C130  1  0.81735662  0.32299776  0.14641846  1.0
  C  C131  1  0.04345589  0.81160742  0.93343424  1.0
  C  C132  1  0.95656247  0.18841875  0.06656325  1.0
  C  C133  1  0.53660317  0.63654099  0.81541918  1.0
  C  C134  1  0.46339458  0.36342077  0.18460990  1.0
  C  C135  1  0.51428201  0.70714367  0.79870230  1.0
  C  C136  1  0.48570686  0.29281442  0.20131376  1.0
  C  C137  1  0.58678111  0.80553802  0.83711419  1.0
  C  C138  1  0.41321442  0.19441426  0.16288174  1.0
  C  C139  1  0.67912718  0.83340120  0.89309737  1.0
  C  C140  1  0.32087060  0.16656425  0.10689583  1.0
  C  C141  1  0.69952147  0.76306419  0.91198567  1.0
  C  C142  1  0.30048145  0.23691661  0.08801965  1.0
  C  C143  1  0.62830892  0.66431146  0.87214648  1.0
  C  C144  1  0.37169637  0.33566348  0.12787917  1.0
  C  C145  1  0.05425301  0.50013782  0.59625054  1.0
  C  C146  1  0.94574801  0.49988467  0.40371920  1.0
  C  C147  1  0.05542313  0.01574035  0.19013096  1.0
  C  C148  1  0.94458838  0.98427410  0.80986991  1.0
  C  C149  1  0.79568841  0.79389096  0.97621326  1.0
  C  C150  1  0.20432581  0.20611253  0.02379457  1.0
  O  O151  1  0.07542147  0.99473298  0.12348650  1.0
  O  O152  1  0.92458078  0.00527706  0.87650604  1.0
  O  O153  1  0.86431422  0.88156486  0.00432376  1.0
  O  O154  1  0.13569149  0.11842840  0.99565069  1.0
  O  O155  1  0.80566585  0.73208795  0.00284719  1.0
  O  O156  1  0.19434522  0.26793305  0.99718227  1.0
  O  O157  1  0.12123683  0.81729234  0.17197895  1.0
  O  O158  1  0.87870679  0.18266272  0.82799020  1.0
  O  O159  1  0.00152357  0.94976189  0.20833355  1.0
  O  O160  1  0.99849287  0.05025184  0.79166857  1.0
  O  O161  1  0.24462485  0.71128955  0.51511441  1.0
  O  O162  1  0.75537167  0.28872119  0.48489433  1.0
  O  O163  1  0.01160403  0.76859385  0.97753726  1.0
  O  O164  1  0.98841304  0.23143523  0.02246241  1.0
  O  O165  1  0.25505524  0.42893252  0.53160194  1.0
  O  O166  1  0.74498592  0.57112147  0.46841743  1.0
  O  O167  1  0.44707681  0.62873005  0.62241548  1.0
  O  O168  1  0.55294690  0.37129391  0.37760880  1.0
  O  O169  1  0.96602636  0.70901878  0.14535546  1.0
  O  O170  1  0.03393384  0.29094363  0.85462302  1.0
  O  O171  1  0.04350012  0.88965033  0.93117941  1.0
  O  O172  1  0.95652288  0.11037440  0.06881248  1.0
  O  O173  1  0.12113149  0.59467883  0.60339586  1.0
  O  O174  1  0.87889161  0.40535758  0.39661068  1.0
