# generated using pymatgen
data_CuSiH24C40(N2F3)2
_symmetry_space_group_name_H-M   'P 1'
_cell_length_a   8.04983581
_cell_length_b   20.59632852
_cell_length_c   20.59638534
_cell_angle_alpha   86.31782408
_cell_angle_beta   89.99955943
_cell_angle_gamma   89.99942834
_symmetry_Int_Tables_number   1
_chemical_formula_structural   CuSiH24C40(N2F3)2
_chemical_formula_sum   'Cu2 Si2 H48 C80 N8 F12'
_cell_volume   3407.77079473
_cell_formula_units_Z   2
loop_
 _symmetry_equiv_pos_site_id
 _symmetry_equiv_pos_as_xyz
  1  'x, y, z'
loop_
 _atom_site_type_symbol
 _atom_site_label
 _atom_site_symmetry_multiplicity
 _atom_site_fract_x
 _atom_site_fract_y
 _atom_site_fract_z
 _atom_site_occupancy
  Cu  Cu0  1  0.25000263  0.67503845  0.32495851  1.0
  Cu  Cu1  1  0.75000017  0.32496156  0.67504006  1.0
  Si  Si2  1  0.75000289  0.67520528  0.32479643  1.0
  Si  Si3  1  0.24999743  0.32479424  0.67520168  1.0
  H  H4  1  0.99155808  0.77903031  0.32248277  1.0
  H  H5  1  0.49156638  0.22098874  0.67751092  1.0
  H  H6  1  0.00843500  0.32248044  0.77901428  1.0
  H  H7  1  0.50844615  0.67752096  0.22097133  1.0
  H  H8  1  0.00843230  0.22098770  0.67750687  1.0
  H  H9  1  0.50844139  0.77902878  0.32248505  1.0
  H  H10  1  0.99156160  0.67751567  0.22097143  1.0
  H  H11  1  0.49156783  0.32248488  0.77901472  1.0
  H  H12  1  0.98096129  0.89966268  0.32401677  1.0
  H  H13  1  0.48095031  0.10036030  0.67598496  1.0
  H  H14  1  0.01904644  0.32401711  0.89964177  1.0
  H  H15  1  0.51905750  0.67599252  0.10033988  1.0
  H  H16  1  0.01904275  0.10035679  0.67598248  1.0
  H  H17  1  0.51904380  0.89966112  0.32401951  1.0
  H  H18  1  0.98096506  0.67598581  0.10033962  1.0
  H  H19  1  0.48095276  0.32401916  0.89964288  1.0
  H  H20  1  0.98197117  0.11451499  0.33128913  1.0
  H  H21  1  0.48196905  0.88548172  0.66871963  1.0
  H  H22  1  0.01803536  0.33128558  0.11452255  1.0
  H  H23  1  0.51802631  0.66871140  0.88547255  1.0
  H  H24  1  0.01803288  0.88548064  0.66871507  1.0
  H  H25  1  0.51802506  0.11452365  0.33129121  1.0
  H  H26  1  0.98197118  0.66871102  0.88547478  1.0
  H  H27  1  0.48196904  0.33128228  0.11452691  1.0
  H  H28  1  0.98181308  0.23500343  0.33566982  1.0
  H  H29  1  0.48183397  0.76499621  0.66434215  1.0
  H  H30  1  0.01817202  0.33565778  0.23500768  1.0
  H  H31  1  0.51816667  0.66433094  0.76498601  1.0
  H  H32  1  0.01817234  0.76499318  0.66434062  1.0
  H  H33  1  0.51814896  0.23501208  0.33567288  1.0
  H  H34  1  0.98183328  0.66433007  0.76498828  1.0
  H  H35  1  0.48183365  0.33565788  0.23501231  1.0
  H  H36  1  0.98078676  0.44991614  0.33384722  1.0
  H  H37  1  0.48077950  0.55008593  0.66615974  1.0
  H  H38  1  0.01921468  0.33383623  0.44991531  1.0
  H  H39  1  0.51921349  0.66615589  0.55008107  1.0
  H  H40  1  0.01920860  0.55008728  0.66616181  1.0
  H  H41  1  0.51921337  0.44991360  0.33385245  1.0
  H  H42  1  0.98078812  0.66615453  0.55008240  1.0
  H  H43  1  0.48078807  0.33383974  0.44991487  1.0
  H  H44  1  0.99151593  0.57107817  0.32887050  1.0
  H  H45  1  0.49152158  0.42892386  0.67113643  1.0
  H  H46  1  0.00847670  0.32885888  0.57107736  1.0
  H  H47  1  0.50849017  0.67112549  0.42891956  1.0
  H  H48  1  0.00847570  0.42892477  0.67113807  1.0
  H  H49  1  0.50849241  0.57107567  0.32887188  1.0
  H  H50  1  0.99151120  0.67112702  0.42892067  1.0
  H  H51  1  0.49152009  0.32886186  0.57107692  1.0
  C  C52  1  0.10535206  0.80763557  0.32268864  1.0
  C  C53  1  0.60535043  0.19238103  0.67730590  1.0
  C  C54  1  0.89464782  0.32268901  0.80762145  1.0
  C  C55  1  0.39465281  0.67731774  0.19236508  1.0
  C  C56  1  0.89464577  0.19238049  0.67730355  1.0
  C  C57  1  0.39465113  0.80763454  0.32268972  1.0
  C  C58  1  0.10535995  0.67731391  0.19236480  1.0
  C  C59  1  0.60535124  0.32269102  0.80762224  1.0
  C  C60  1  0.10043061  0.87492327  0.32354669  1.0
  C  C61  1  0.60042945  0.12509190  0.67645717  1.0
  C  C62  1  0.89957024  0.32354460  0.87491086  1.0
  C  C63  1  0.39958153  0.67646214  0.12507905  1.0
  C  C64  1  0.89956847  0.12508842  0.67645549  1.0
  C  C65  1  0.39957335  0.87492076  0.32354689  1.0
  C  C66  1  0.10044251  0.67645735  0.12507544  1.0
  C  C67  1  0.60043370  0.32354613  0.87491219  1.0
  C  C68  1  0.24999966  0.91038908  0.32422722  1.0
  C  C69  1  0.74999942  0.08962213  0.67578034  1.0
  C  C70  1  0.75000037  0.32422546  0.91038051  1.0
  C  C71  1  0.25001237  0.67578476  0.08960768  1.0
  C  C72  1  0.25000251  0.97890820  0.32596685  1.0
  C  C73  1  0.74999781  0.02110154  0.67404566  1.0
  C  C74  1  0.74999968  0.32595799  0.97889929  1.0
  C  C75  1  0.25001058  0.67404396  0.02108847  1.0
  C  C76  1  0.25000568  0.03802493  0.32815146  1.0
  C  C77  1  0.74999960  0.96198579  0.67185515  1.0
  C  C78  1  0.74999890  0.32813585  0.03802021  1.0
  C  C79  1  0.25000391  0.67185345  0.96196982  1.0
  C  C80  1  0.24999982  0.10641321  0.33085022  1.0
  C  C81  1  0.75000298  0.89359653  0.66915646  1.0
  C  C82  1  0.75000316  0.33083654  0.10640929  1.0
  C  C83  1  0.25000088  0.66915033  0.89358237  1.0
  C  C84  1  0.09877641  0.14119637  0.33223329  1.0
  C  C85  1  0.59879165  0.85880616  0.66777431  1.0
  C  C86  1  0.90120962  0.33222341  0.14119720  1.0
  C  C87  1  0.40122047  0.66776727  0.85879617  1.0
  C  C88  1  0.90121149  0.85880705  0.66777088  1.0
  C  C89  1  0.40121488  0.14120018  0.33223453  1.0
  C  C90  1  0.09877828  0.66776638  0.85879766  1.0
  C  C91  1  0.59879103  0.33222155  0.14119875  1.0
  C  C92  1  0.09854199  0.20824893  0.33464908  1.0
  C  C93  1  0.59856643  0.79175214  0.66536493  1.0
  C  C94  1  0.90143378  0.33463193  0.20825253  1.0
  C  C95  1  0.40144228  0.66535194  0.79174322  1.0
  C  C96  1  0.90143721  0.79175108  0.66536357  1.0
  C  C97  1  0.40143016  0.20825323  0.33465077  1.0
  C  C98  1  0.09855660  0.66535154  0.79174516  1.0
  C  C99  1  0.59856674  0.33463298  0.20825195  1.0
  C  C100  1  0.24998066  0.24289315  0.33566781  1.0
  C  C101  1  0.75000351  0.75710735  0.66434724  1.0
  C  C102  1  0.75000426  0.33564660  0.24289557  1.0
  C  C103  1  0.24999855  0.66433638  0.75710264  1.0
  C  C104  1  0.24998103  0.31144545  0.33667943  1.0
  C  C105  1  0.75000190  0.68855652  0.66334328  1.0
  C  C106  1  0.75000482  0.33664641  0.31144529  1.0
  C  C107  1  0.24999799  0.66332781  0.68855203  1.0
  C  C108  1  0.24999395  0.37079679  0.33608221  1.0
  C  C109  1  0.74999519  0.62920323  0.66393578  1.0
  C  C110  1  0.75000300  0.33605409  0.37080038  1.0
  C  C111  1  0.24999856  0.66392451  0.62920200  1.0
  C  C112  1  0.25000552  0.43953383  0.33414106  1.0
  C  C113  1  0.74999356  0.56046814  0.66587437  1.0
  C  C114  1  0.74999987  0.33412550  0.43953637  1.0
  C  C115  1  0.24999796  0.66585894  0.56046175  1.0
  C  C116  1  0.10011756  0.47489255  0.33281551  1.0
  C  C117  1  0.60011019  0.52511192  0.66719147  1.0
  C  C118  1  0.89988583  0.33280846  0.47488880  1.0
  C  C119  1  0.39988458  0.66718174  0.52510607  1.0
  C  C120  1  0.89988152  0.52511135  0.66719251  1.0
  C  C121  1  0.39988392  0.47488761  0.33281829  1.0
  C  C122  1  0.10011822  0.66718133  0.52510800  1.0
  C  C123  1  0.60011698  0.33281049  0.47488961  1.0
  C  C124  1  0.10524727  0.54236705  0.33008219  1.0
  C  C125  1  0.60524653  0.45763546  0.66992540  1.0
  C  C126  1  0.89474846  0.33007736  0.54236440  1.0
  C  C127  1  0.39475218  0.66991140  0.45763058  1.0
  C  C128  1  0.89474808  0.45763589  0.66992590  1.0
  C  C129  1  0.39475131  0.54236602  0.33008376  1.0
  C  C130  1  0.10525062  0.66991097  0.45763104  1.0
  C  C131  1  0.60525187  0.33007985  0.54236565  1.0
  N  N132  1  0.25000016  0.77449367  0.32244610  1.0
  N  N133  1  0.75000141  0.22551801  0.67754735  1.0
  N  N134  1  0.75000048  0.32244592  0.77448401  1.0
  N  N135  1  0.25000109  0.67755749  0.22550559  1.0
  N  N136  1  0.25000261  0.57551040  0.32863701  1.0
  N  N137  1  0.74999771  0.42449156  0.67136872  1.0
  N  N138  1  0.75000110  0.32863707  0.57550885  1.0
  N  N139  1  0.24999922  0.67135564  0.42448728  1.0
  F  F140  1  0.53449166  0.67519402  0.32480623  1.0
  F  F141  1  0.03448248  0.32480729  0.67519097  1.0
  F  F142  1  0.46551238  0.32480648  0.67519231  1.0
  F  F143  1  0.96551412  0.67519613  0.32480544  1.0
  F  F144  1  0.75000804  0.61449184  0.38550650  1.0
  F  F145  1  0.25000098  0.38550282  0.61449048  1.0
  F  F146  1  0.75000665  0.61821196  0.26787456  1.0
  F  F147  1  0.24999243  0.38178659  0.73212314  1.0
  F  F148  1  0.24999871  0.26787045  0.61821073  1.0
  F  F149  1  0.74999913  0.73212323  0.38179262  1.0
  F  F150  1  0.74999775  0.73591144  0.26409510  1.0
  F  F151  1  0.24999761  0.26409101  0.73590429  1.0
