# generated using pymatgen
data_Zn8H48C73O31
_symmetry_space_group_name_H-M   'P 1'
_cell_length_a   18.36617010
_cell_length_b   18.38950515
_cell_length_c   18.46019974
_cell_angle_alpha   119.83601853
_cell_angle_beta   90.01405653
_cell_angle_gamma   119.76227995
_symmetry_Int_Tables_number   1
_chemical_formula_structural   Zn8H48C73O31
_chemical_formula_sum   'Zn8 H48 C73 O31'
_cell_volume   4434.79521313
_cell_formula_units_Z   1
loop_
 _symmetry_equiv_pos_site_id
 _symmetry_equiv_pos_as_xyz
  1  'x, y, z'
loop_
 _atom_site_type_symbol
 _atom_site_label
 _atom_site_symmetry_multiplicity
 _atom_site_fract_x
 _atom_site_fract_y
 _atom_site_fract_z
 _atom_site_occupancy
  Zn  Zn0  1  0.45691160  0.41028658  0.54035965  1.0
  Zn  Zn1  1  0.45486016  0.58686923  0.54369813  1.0
  Zn  Zn2  1  0.45879970  0.41756149  0.37192814  1.0
  Zn  Zn3  1  0.63083253  0.58933074  0.54524290  1.0
  Zn  Zn4  1  0.04246087  0.58292808  0.95218094  1.0
  Zn  Zn5  1  0.04451139  0.59097365  0.12790644  1.0
  Zn  Zn6  1  0.04000684  0.40919859  0.95528713  1.0
  Zn  Zn7  1  0.86860278  0.41413722  0.95571180  1.0
  H  H8  1  0.37307118  0.44133152  0.84214462  1.0
  H  H9  1  0.48469562  0.59675705  0.84937263  1.0
  H  H10  1  0.68306271  0.39090790  0.08984982  1.0
  H  H11  1  0.97264374  0.61702969  0.36800762  1.0
  H  H12  1  0.97256366  0.71598785  0.37273023  1.0
  H  H13  1  0.87635562  0.61390042  0.46606992  1.0
  H  H14  1  0.87825098  0.71461207  0.47207430  1.0
  H  H15  1  0.58999147  0.90883867  0.66017593  1.0
  H  H16  1  0.68705457  0.09904810  0.75994068  1.0
  H  H17  1  0.96660993  0.08382657  0.80457332  1.0
  H  H18  1  0.93725202  0.09356920  0.89996200  1.0
  H  H19  1  0.12675245  0.56627175  0.65104788  1.0
  H  H20  1  0.62076703  0.61707043  0.81317964  1.0
  H  H21  1  0.82893253  0.90156399  0.80932324  1.0
  H  H22  1  0.30933410  0.39881221  0.18535280  1.0
  H  H23  1  0.21719202  0.40162152  0.08908427  1.0
  H  H24  1  0.32555402  0.70348410  0.47368546  1.0
  H  H25  1  0.22792220  0.59709537  0.46222720  1.0
  H  H26  1  0.25668129  0.34519883  0.65705716  1.0
  H  H27  1  0.15837319  0.34073322  0.74993359  1.0
  H  H28  1  0.21830764  0.68972442  0.82060722  1.0
  H  H29  1  0.53492485  0.32661096  0.76241222  1.0
  H  H30  1  0.01808654  0.41062557  0.64494990  1.0
  H  H31  1  0.30766174  0.73912925  0.90770128  1.0
  H  H32  1  0.31551424  0.69252411  0.72349109  1.0
  H  H33  1  0.40480758  0.74333663  0.81142521  1.0
  H  H34  1  0.39922878  0.30667424  0.79950307  1.0
  H  H35  1  0.70432751  0.46220045  0.85815394  1.0
  H  H36  1  0.79716013  0.54228992  0.64173025  1.0
  H  H37  1  0.96474809  0.67954393  0.73809560  1.0
  H  H38  1  0.09960194  0.70101811  0.69788887  1.0
  H  H39  1  0.03987390  0.81608805  0.04974273  1.0
  H  H40  1  0.06319251  0.83685510  0.96533403  1.0
  H  H41  1  0.88320367  0.38918809  0.68468729  1.0
  H  H42  1  0.07387367  0.93663758  0.06970664  1.0
  H  H43  1  0.43110362  0.07876204  0.41515374  1.0
  H  H44  1  0.88913847  0.80976754  0.75593099  1.0
  H  H45  1  0.98879062  0.92724301  0.78429911  1.0
  H  H46  1  0.94061983  0.81359137  0.67417425  1.0
  H  H47  1  0.27888579  0.81250490  0.51735553  1.0
  H  H48  1  0.18050844  0.78817446  0.46303463  1.0
  H  H49  1  0.28758302  0.87719924  0.46715530  1.0
  H  H50  1  0.09095349  0.53627249  0.36736011  1.0
  H  H51  1  0.27734167  0.10296087  0.18276189  1.0
  H  H52  1  0.19092033  0.88723153  0.35804032  1.0
  H  H53  1  0.28642607  0.89180186  0.33423955  1.0
  H  H54  1  0.28461428  0.07969128  0.46049535  1.0
  H  H55  1  0.58943362  0.39114343  0.18712763  1.0
  C  C56  1  0.63115332  0.77573960  0.63352384  1.0
  C  C57  1  0.66871949  0.48534765  0.76406280  1.0
  C  C58  1  0.97621484  0.62023234  0.71711564  1.0
  C  C59  1  0.36631337  0.22477761  0.35855573  1.0
  C  C60  1  0.05214698  0.63232709  0.69464119  1.0
  C  C61  1  0.06750926  0.55708650  0.66861935  1.0
  C  C62  1  0.00655669  0.46974804  0.66535099  1.0
  C  C63  1  0.93099342  0.45796646  0.68815760  1.0
  C  C64  1  0.91495020  0.53327485  0.71479496  1.0
  C  C65  1  0.29396526  0.04998555  0.33025945  1.0
  C  C66  1  0.30994039  0.11091556  0.30000549  1.0
  C  C67  1  0.52442793  0.38646572  0.78256501  1.0
  C  C68  1  0.26675909  0.05912244  0.20995131  1.0
  C  C69  1  0.20908857  0.95234856  0.15291546  1.0
  C  C70  1  0.19197860  0.89027424  0.18418360  1.0
  C  C71  1  0.36266468  0.49762652  0.63739370  1.0
  C  C72  1  0.23732631  0.94373961  0.27359982  1.0
  C  C73  1  0.25072678  0.92770199  0.34407003  1.0
  C  C74  1  0.31247100  0.04878279  0.41034572  1.0
  C  C75  1  0.79189229  0.56400420  0.34318318  1.0
  C  C76  1  0.69943966  0.50289108  0.30893079  1.0
  C  C77  1  0.66153290  0.43997062  0.21586475  1.0
  C  C78  1  0.44784204  0.37508312  0.80290624  1.0
  C  C79  1  0.71393339  0.43990775  0.16142623  1.0
  C  C80  1  0.80756552  0.50307254  0.19666021  1.0
  C  C81  1  0.84455898  0.56431242  0.28853734  1.0
  C  C82  1  0.93080846  0.64301917  0.36552787  1.0
  C  C83  1  0.64205153  0.50336126  0.36561630  1.0
  C  C84  1  0.87118591  0.64217151  0.42737537  1.0
  C  C85  1  0.77779463  0.94337394  0.73992495  1.0
  C  C86  1  0.68968655  0.88940469  0.69012543  1.0
  C  C87  1  0.65841766  0.94849316  0.69847304  1.0
  C  C88  1  0.71274603  0.05502788  0.75459038  1.0
  C  C89  1  0.43308442  0.45036060  0.82675641  1.0
  C  C90  1  0.80150086  0.10885143  0.80551877  1.0
  C  C91  1  0.83240147  0.04986663  0.79572236  1.0
  C  C92  1  0.91129356  0.05454459  0.82831835  1.0
  C  C93  1  0.84726284  0.93270559  0.76905806  1.0
  C  C94  1  0.26722543  0.55868218  0.34125509  1.0
  C  C95  1  0.35762529  0.49875460  0.36333284  1.0
  C  C96  1  0.30215855  0.50098699  0.30676463  1.0
  C  C97  1  0.28295088  0.44459187  0.21429470  1.0
  C  C98  1  0.23160171  0.44638014  0.16042323  1.0
  C  C99  1  0.19698750  0.50536754  0.19574495  1.0
  C  C100  1  0.72338840  0.47834425  0.80930057  1.0
  C  C101  1  0.21685678  0.56149202  0.28742424  1.0
  C  C102  1  0.20332664  0.63422794  0.36635002  1.0
  C  C103  1  0.26192685  0.63016582  0.42674321  1.0
  C  C104  1  0.29915741  0.57854454  0.74640336  1.0
  C  C105  1  0.30500696  0.49622616  0.69387691  1.0
  C  C106  1  0.25297417  0.41040763  0.69688232  1.0
  C  C107  1  0.64051349  0.50686678  0.64297751  1.0
  C  C108  1  0.19817994  0.40808137  0.74910370  1.0
  C  C109  1  0.19243865  0.49169116  0.80182416  1.0
  C  C110  1  0.24466921  0.57644350  0.79916164  1.0
  C  C111  1  0.80421124  0.49561914  0.79696778  1.0
  C  C112  1  0.27204904  0.68391041  0.83623560  1.0
  C  C113  1  0.33316800  0.68612750  0.77593235  1.0
  C  C114  1  0.86273217  0.50360825  0.13784792  1.0
  C  C115  1  0.13377303  0.48981151  0.85721415  1.0
  C  C116  1  0.13526020  0.77655068  0.12882546  1.0
  C  C117  1  0.85852212  0.22249073  0.86484980  1.0
  C  C118  1  0.14138087  0.50512638  0.13671989  1.0
  C  C119  1  0.49563479  0.53744884  0.83043398  1.0
  C  C120  1  0.86042444  0.49578650  0.85579972  1.0
  C  C121  1  0.57191732  0.54867388  0.80977668  1.0
  C  C122  1  0.83311974  0.51978241  0.73622327  1.0
  C  C123  1  0.58705036  0.47298726  0.78499685  1.0
  C  C124  1  0.08218003  0.87342618  0.03688098  1.0
  C  C125  1  0.92579734  0.85694834  0.73138046  1.0
  C  C126  1  0.24671409  0.80521075  0.46139839  1.0
  C  C127  1  0.77828147  0.52644164  0.69079220  1.0
  C  C128  1  0.69729521  0.50867485  0.70287430  1.0
  O  O129  1  0.50039355  0.50168860  0.50109754  1.0
  O  O130  1  0.94127892  0.26489388  0.89742101  1.0
  O  O131  1  0.11567655  0.56332183  0.17501551  1.0
  O  O132  1  0.66912942  0.73131839  0.62564340  1.0
  O  O133  1  0.81941159  0.43587153  0.87950736  1.0
  O  O134  1  0.12414430  0.44638515  0.05351345  1.0
  O  O135  1  0.94423737  0.55797518  0.87949220  1.0
  O  O136  1  0.10927155  0.72931522  0.04516309  1.0
  O  O137  1  0.82042448  0.26797173  0.87796624  1.0
  O  O138  1  0.94649832  0.56905402  0.17617232  1.0
  O  O139  1  0.09849338  0.41704935  0.86733586  1.0
  O  O140  1  0.37207610  0.42433873  0.60080279  1.0
  O  O141  1  0.39322647  0.26578740  0.44118145  1.0
  O  O142  1  0.39788197  0.57285513  0.63036254  1.0
  O  O143  1  0.55829124  0.44048755  0.32615696  1.0
  O  O144  1  0.36856478  0.54872506  0.44598922  1.0
  O  O145  1  0.68155948  0.56925815  0.62164407  1.0
  O  O146  1  0.38972122  0.44751334  0.32459617  1.0
  O  O147  1  0.55708249  0.44127435  0.61610415  1.0
  O  O148  1  0.17410969  0.91274375  0.06604253  1.0
  O  O149  1  0.40093069  0.09557569  0.45772568  1.0
  O  O150  1  0.87302746  0.87925729  0.70163822  1.0
  O  O151  1  0.68158407  0.56717551  0.44921022  1.0
  O  O152  1  0.24123298  0.72811998  0.37862154  1.0
  O  O153  1  0.11488748  0.59713358  0.36785230  1.0
  O  O154  1  0.54855792  0.73238058  0.59900304  1.0
  O  O155  1  0.38170543  0.27107910  0.32108061  1.0
  O  O156  1  0.99862666  0.49845044  0.99793816  1.0
  O  O157  1  0.82202200  0.43919738  0.05451482  1.0
  O  O158  1  0.12397524  0.56283743  0.89032657  1.0
  O  O159  1  0.11839450  0.73543215  0.17122889  1.0
