# generated using pymatgen
data_Zn4H20C48SN16O11
_symmetry_space_group_name_H-M   'P 1'
_cell_length_a   15.57422345
_cell_length_b   15.84648341
_cell_length_c   17.61480590
_cell_angle_alpha   103.26154090
_cell_angle_beta   106.46902682
_cell_angle_gamma   113.67728309
_symmetry_Int_Tables_number   1
_chemical_formula_structural   Zn4H20C48SN16O11
_chemical_formula_sum   'Zn4 H20 C48 S1 N16 O11'
_cell_volume   3514.31929294
_cell_formula_units_Z   1
loop_
 _symmetry_equiv_pos_site_id
 _symmetry_equiv_pos_as_xyz
  1  'x, y, z'
loop_
 _atom_site_type_symbol
 _atom_site_label
 _atom_site_symmetry_multiplicity
 _atom_site_fract_x
 _atom_site_fract_y
 _atom_site_fract_z
 _atom_site_occupancy
  Zn  Zn0  1  0.84718598  0.84542295  0.49226248  1.0
  Zn  Zn1  1  0.13995569  0.13262400  0.50762279  1.0
  Zn  Zn2  1  0.10297929  0.97355070  0.60934291  1.0
  Zn  Zn3  1  0.87835196  0.99450457  0.37793751  1.0
  H  H4  1  0.19363474  0.02143107  0.36528069  1.0
  H  H5  1  0.13668653  0.26056050  0.04626970  1.0
  H  H6  1  0.64189372  0.95892244  0.30739563  1.0
  H  H7  1  0.59885307  0.76584951  0.44822180  1.0
  H  H8  1  0.81145365  0.13497195  0.47807828  1.0
  H  H9  1  0.12358526  0.15139345  0.76095763  1.0
  H  H10  1  0.85474874  0.66940179  0.37022063  1.0
  H  H11  1  0.66600411  0.77557772  0.59861445  1.0
  H  H12  1  0.82095343  0.10049461  0.10537676  1.0
  H  H13  1  0.84073554  0.95912352  0.02198132  1.0
  H  H14  1  0.24276669  0.98887931  0.81814869  1.0
  H  H15  1  0.13169366  0.80385272  0.67263437  1.0
  H  H16  1  0.32298633  0.37669844  0.55410021  1.0
  H  H17  1  0.22150779  0.24563909  0.37491185  1.0
  H  H18  1  0.80197590  0.62531603  0.51310533  1.0
  H  H19  1  0.87087961  0.84482044  0.21303450  1.0
  H  H20  1  0.15940382  0.82393534  0.50271802  1.0
  H  H21  1  0.65092891  0.40234385  0.04539446  1.0
  H  H22  1  0.66935113  0.55495406  0.95981190  1.0
  H  H23  1  0.14258582  0.31496052  0.63277625  1.0
  C  C24  1  0.87769401  0.97786104  0.66817881  1.0
  C  C25  1  0.88252130  0.68341492  0.54965502  1.0
  C  C26  1  0.87266733  0.81693149  0.26398448  1.0
  C  C27  1  0.06374948  0.25678526  0.58921685  1.0
  C  C28  1  0.16023481  0.87985001  0.47660529  1.0
  C  C29  1  0.85003013  0.71969520  0.25975286  1.0
  C  C30  1  0.19702517  0.90325219  0.41532347  1.0
  C  C31  1  0.96664944  0.67670016  0.59924531  1.0
  C  C32  1  0.06239328  0.16754980  0.26675626  1.0
  C  C33  1  0.47775796  0.84392284  0.35786547  1.0
  C  C34  1  0.39808063  0.84272625  0.35678385  1.0
  C  C35  1  0.97208394  0.26193347  0.57102251  1.0
  C  C36  1  0.31866495  0.85189401  0.36570273  1.0
  C  C37  1  0.25468707  0.86928141  0.38260672  1.0
  C  C38  1  0.96483572  0.34860863  0.59611693  1.0
  C  C39  1  0.31706761  0.16003129  0.74805525  1.0
  C  C40  1  0.96395033  0.42767667  0.60788903  1.0
  C  C41  1  0.96437959  0.51399392  0.61227591  1.0
  C  C42  1  0.96610882  0.59134713  0.60940055  1.0
  C  C43  1  0.47699178  0.33285552  0.82942638  1.0
  C  C44  1  0.63915883  0.48198328  0.96461954  1.0
  C  C45  1  0.68067035  0.47595854  0.04171220  1.0
  C  C46  1  0.38623301  0.25822139  0.75860525  1.0
  C  C47  1  0.75357267  0.55968415  0.11750942  1.0
  C  C48  1  0.55497071  0.40065523  0.89238309  1.0
  C  C49  1  0.80591021  0.63378857  0.18529725  1.0
  C  C50  1  0.07386610  0.19538006  0.19904220  1.0
  C  C51  1  0.64870368  0.91520762  0.34563862  1.0
  C  C52  1  0.06975360  0.21161742  0.05416114  1.0
  C  C53  1  0.97911443  0.14289874  0.98249553  1.0
  C  C54  1  0.96796687  0.12304705  0.89788172  1.0
  C  C55  1  0.07841109  0.21226840  0.13544945  1.0
  C  C56  1  0.96077040  0.09769183  0.82426081  1.0
  C  C57  1  0.57496349  0.85470253  0.36968464  1.0
  C  C58  1  0.33864721  0.26263639  0.67892617  1.0
  C  C59  1  0.62689490  0.81605870  0.41742790  1.0
  C  C60  1  0.89419897  0.16484696  0.51003562  1.0
  C  C61  1  0.04434840  0.09139794  0.72167269  1.0
  C  C62  1  0.95950636  0.06208799  0.74332997  1.0
  C  C63  1  0.77599641  0.90893801  0.66061832  1.0
  C  C64  1  0.89312996  0.07912115  0.00217702  1.0
  C  C65  1  0.32066542  0.11141369  0.80896989  1.0
  C  C66  1  0.37008596  0.34480050  0.65023436  1.0
  C  C67  1  0.86355890  0.72664340  0.34420611  1.0
  C  C68  1  0.17770025  0.98093666  0.40616488  1.0
  C  C69  1  0.05105580  0.77459970  0.63163885  1.0
  C  C70  1  0.97042966  0.10030106  0.26904292  1.0
  C  C71  1  0.13871039  0.19544944  0.34833692  1.0
  S  S72  1  0.84119242  0.02684106  0.19321187  1.0
  N  N73  1  0.91334730  0.96116652  0.60804509  1.0
  N  N74  1  0.23702464  0.11249795  0.66872770  1.0
  N  N75  1  0.73640504  0.91293855  0.37738312  1.0
  N  N76  1  0.25003975  0.17421680  0.62734549  1.0
  N  N77  1  0.72329697  0.85176856  0.42223139  1.0
  N  N78  1  0.93731291  0.10862132  0.49236100  1.0
  N  N79  1  0.01504980  0.02948995  0.64101283  1.0
  N  N80  1  0.88901950  0.81922309  0.39297542  1.0
  N  N81  1  0.13534978  0.00257282  0.45921342  1.0
  N  N82  1  0.01913082  0.83346457  0.60347739  1.0
  N  N83  1  0.99158760  0.09022502  0.34471876  1.0
  N  N84  1  0.09492789  0.14850436  0.39313469  1.0
  N  N85  1  0.91468626  0.77672186  0.55246432  1.0
  N  N86  1  0.89501287  0.87458674  0.34344186  1.0
  N  N87  1  0.12472676  0.94051585  0.50235923  1.0
  N  N88  1  0.04147421  0.16537862  0.54107950  1.0
  O  O89  1  0.73610834  0.92700542  0.70779453  1.0
  O  O90  1  0.44562136  0.42819201  0.69056390  1.0
  O  O91  1  0.29959493  0.31683843  0.56728643  1.0
  O  O92  1  0.73100067  0.81622286  0.59587569  1.0
  O  O93  1  0.83230939  0.95207053  0.12110079  1.0
  O  O94  1  0.78341699  0.99142760  0.24171375  1.0
  O  O95  1  0.81199237  0.09938071  0.16236808  1.0
  O  O96  1  0.84630133  0.11355053  0.03313879  1.0
  O  O97  1  0.88041112  0.98851874  0.99018684  1.0
  O  O98  1  0.38531949  0.14828459  0.88280078  1.0
  O  O99  1  0.23743906  0.01463729  0.77253505  1.0
