# generated using pymatgen
data_Zn2H18C44Br3(NO7)2
_symmetry_space_group_name_H-M   'P 1'
_cell_length_a   13.22174119
_cell_length_b   13.85963065
_cell_length_c   28.49411701
_cell_angle_alpha   90.29208751
_cell_angle_beta   89.82384175
_cell_angle_gamma   89.91327284
_symmetry_Int_Tables_number   1
_chemical_formula_structural   Zn2H18C44Br3(NO7)2
_chemical_formula_sum   'Zn4 H36 C88 Br6 N4 O28'
_cell_volume   5221.40412606
_cell_formula_units_Z   2
loop_
 _symmetry_equiv_pos_site_id
 _symmetry_equiv_pos_as_xyz
  1  'x, y, z'
loop_
 _atom_site_type_symbol
 _atom_site_label
 _atom_site_symmetry_multiplicity
 _atom_site_fract_x
 _atom_site_fract_y
 _atom_site_fract_z
 _atom_site_occupancy
  Zn  Zn0  1  0.50382132  0.40837209  0.49587916  1.0
  Zn  Zn1  1  0.48273868  0.60903797  0.50060588  1.0
  Zn  Zn2  1  0.50448390  0.59213506  0.03795753  1.0
  Zn  Zn3  1  0.48413446  0.39149801  0.03321095  1.0
  H  H4  1  0.39652017  0.26202089  0.54881259  1.0
  H  H5  1  0.31921556  0.10929332  0.58306147  1.0
  H  H6  1  0.61997957  0.25071710  0.44723282  1.0
  H  H7  1  0.59237541  0.75461143  0.44765645  1.0
  H  H8  1  0.67238156  0.90807219  0.41434070  1.0
  H  H9  1  0.37514383  0.76676048  0.55201946  1.0
  H  H10  1  0.50555107  0.62118243  0.18884461  1.0
  H  H11  1  0.50450058  0.31211675  0.17850019  1.0
  H  H12  1  0.50604317  0.37828351  0.34487384  1.0
  H  H13  1  0.50388754  0.68735369  0.35519628  1.0
  H  H14  1  0.49006118  0.66811481  0.65250759  1.0
  H  H15  1  0.49429212  0.75017688  0.73064319  1.0
  H  H16  1  0.49202720  0.36059863  0.64264635  1.0
  H  H17  1  0.49061625  0.33234254  0.88130510  1.0
  H  H18  1  0.49331020  0.25036267  0.80323876  1.0
  H  H19  1  0.49392055  0.63980777  0.89128329  1.0
  H  H20  1  0.83036193  0.36984577  0.49851177  1.0
  H  H21  1  0.79768973  0.67762328  0.50383184  1.0
  H  H22  1  0.15843113  0.62378445  0.50103641  1.0
  H  H23  1  0.19165403  0.31588129  0.49660952  1.0
  H  H24  1  0.39711728  0.73889981  0.98525956  1.0
  H  H25  1  0.32025083  0.89196050  0.95109589  1.0
  H  H26  1  0.62015497  0.74935115  0.08638856  1.0
  H  H27  1  0.59362576  0.24551926  0.08578325  1.0
  H  H28  1  0.67311737  0.09181251  0.11902696  1.0
  H  H29  1  0.37657345  0.23429754  0.98196847  1.0
  H  H30  1  0.83095733  0.63104431  0.03565140  1.0
  H  H31  1  0.79941671  0.32323198  0.03131855  1.0
  H  H32  1  0.15996313  0.37717385  0.03401776  1.0
  H  H33  1  0.19201102  0.68514050  0.03732876  1.0
  H  H34  1  0.40443281  0.86003352  0.62618445  1.0
  H  H35  1  0.77384238  0.16221209  0.45691767  1.0
  H  H36  1  0.62105093  0.71429138  0.85627414  1.0
  H  H37  1  0.61931908  0.28460963  0.67719825  1.0
  H  H38  1  0.40574870  0.14125378  0.90784611  1.0
  H  H39  1  0.77369865  0.83644331  0.07648737  1.0
  C  C40  1  0.48910656  0.51883866  0.59068148  1.0
  C  C41  1  0.29765758  0.48289784  0.49818997  1.0
  C  C42  1  0.50022351  0.52453250  0.40700812  1.0
  C  C43  1  0.69146463  0.51148004  0.50040557  1.0
  C  C44  1  0.49082394  0.48147366  0.94319289  1.0
  C  C45  1  0.29867438  0.51816181  0.03592522  1.0
  C  C46  1  0.50033933  0.47507306  0.12672223  1.0
  C  C47  1  0.69260139  0.48940161  0.03380492  1.0
  C  C48  1  0.44498475  0.21511780  0.52763840  1.0
  C  C49  1  0.43894192  0.11440676  0.53038352  1.0
  C  C50  1  0.36952091  0.06629193  0.56086865  1.0
  C  C51  1  0.57164011  0.20837078  0.47037921  1.0
  C  C52  1  0.57339525  0.10697396  0.47017367  1.0
  C  C53  1  0.63637618  0.04926905  0.43935063  1.0
  C  C54  1  0.54864109  0.80174184  0.47086396  1.0
  C  C55  1  0.55892682  0.90237536  0.46994930  1.0
  C  C56  1  0.62700461  0.95066904  0.43891274  1.0
  C  C57  1  0.42582298  0.80889942  0.52989738  1.0
  C  C58  1  0.42941639  0.91002684  0.53233848  1.0
  C  C59  1  0.36556194  0.96757162  0.56276082  1.0
  C  C60  1  0.50424635  0.05937804  0.50082720  1.0
  C  C61  1  0.49788848  0.95746675  0.50138291  1.0
  C  C62  1  0.50611496  0.55136263  0.20610785  1.0
  C  C63  1  0.50570284  0.37640812  0.20052403  1.0
  C  C64  1  0.50820473  0.36972538  0.24860069  1.0
  C  C65  1  0.50756916  0.45316106  0.27817362  1.0
  C  C66  1  0.50636042  0.44809201  0.32759411  1.0
  C  C67  1  0.50531275  0.62307257  0.33315323  1.0
  C  C68  1  0.50771799  0.62973325  0.28506779  1.0
  C  C69  1  0.50737039  0.54627933  0.25552796  1.0
  C  C70  1  0.50433784  0.46838847  0.17907849  1.0
  C  C71  1  0.50429375  0.53111667  0.35461273  1.0
  C  C72  1  0.49221742  0.59869669  0.67023742  1.0
  C  C73  1  0.49497604  0.59448730  0.71940688  1.0
  C  C74  1  0.49609259  0.67993249  0.74773087  1.0
  C  C75  1  0.49480197  0.42425865  0.66518202  1.0
  C  C76  1  0.49898968  0.41603464  0.71422283  1.0
  C  C77  1  0.50022146  0.32415971  0.73810258  1.0
  C  C78  1  0.49290801  0.40176955  0.86358865  1.0
  C  C79  1  0.49511616  0.40601684  0.81441952  1.0
  C  C80  1  0.49537466  0.32055851  0.78611196  1.0
  C  C81  1  0.49627665  0.57618477  0.86870311  1.0
  C  C82  1  0.50004256  0.58439857  0.81963471  1.0
  C  C83  1  0.50154200  0.67621517  0.79571936  1.0
  C  C84  1  0.49194003  0.51429072  0.64333809  1.0
  C  C85  1  0.49796557  0.50255170  0.74200843  1.0
  C  C86  1  0.49325811  0.48613313  0.89051904  1.0
  C  C87  1  0.49826811  0.49793814  0.79183394  1.0
  C  C88  1  0.86532846  0.44080440  0.49959997  1.0
  C  C89  1  0.84752898  0.61515060  0.50247515  1.0
  C  C90  1  0.95090518  0.62517128  0.50247764  1.0
  C  C91  1  0.01734566  0.54398995  0.50082136  1.0
  C  C92  1  0.12363444  0.55273517  0.50031035  1.0
  C  C93  1  0.14187286  0.37840992  0.49788934  1.0
  C  C94  1  0.03851076  0.36837573  0.49857151  1.0
  C  C95  1  0.97166132  0.44925935  0.49967913  1.0
  C  C96  1  0.80428322  0.52186101  0.50082051  1.0
  C  C97  1  0.18487249  0.47197141  0.49873546  1.0
  C  C98  1  0.44559137  0.78559882  0.00631878  1.0
  C  C99  1  0.43968029  0.88633577  0.00356543  1.0
  C  C100  1  0.37055722  0.93474766  0.97317437  1.0
  C  C101  1  0.57199864  0.79192035  0.06334093  1.0
  C  C102  1  0.57387392  0.89330320  0.06351584  1.0
  C  C103  1  0.63683818  0.95076181  0.09418719  1.0
  C  C104  1  0.54985566  0.19858259  0.06268843  1.0
  C  C105  1  0.55991917  0.09792994  0.06363641  1.0
  C  C106  1  0.62772104  0.04940392  0.09457520  1.0
  C  C107  1  0.42715696  0.19194160  0.00396140  1.0
  C  C108  1  0.43055591  0.09079149  0.00152580  1.0
  C  C109  1  0.36678411  0.03347785  0.97121643  1.0
  C  C110  1  0.50486736  0.94114023  0.03301034  1.0
  C  C111  1  0.49876830  0.04308063  0.03239666  1.0
  C  C112  1  0.86617881  0.56008722  0.03483452  1.0
  C  C113  1  0.84901416  0.38570922  0.03253604  1.0
  C  C114  1  0.95243045  0.37570247  0.03267858  1.0
  C  C115  1  0.01859851  0.45692829  0.03408470  1.0
  C  C116  1  0.12493637  0.44823354  0.03452950  1.0
  C  C117  1  0.14248874  0.62257461  0.03628756  1.0
  C  C118  1  0.03910170  0.63255990  0.03570379  1.0
  C  C119  1  0.97254537  0.55165764  0.03488167  1.0
  C  C120  1  0.80545288  0.47900440  0.03379980  1.0
  C  C121  1  0.18587770  0.52905426  0.03566775  1.0
  C  C122  1  0.29093802  0.92145223  0.59568587  1.0
  C  C123  1  0.70966747  0.09342015  0.40509549  1.0
  C  C124  1  0.50985440  0.77030936  0.82171609  1.0
  C  C125  1  0.50759193  0.22992183  0.71209612  1.0
  C  C126  1  0.29224814  0.07972093  0.93840775  1.0
  C  C127  1  0.70994552  0.90643549  0.12831970  1.0
  Br  Br128  1  0.51244701  0.75532372  0.25801344  1.0
  Br  Br129  1  0.51344654  0.24407402  0.27558701  1.0
  Br  Br130  1  0.98553149  0.23993954  0.49843361  1.0
  Br  Br131  1  0.00522334  0.75252345  0.50532931  1.0
  Br  Br132  1  0.98569645  0.76097503  0.03564644  1.0
  Br  Br133  1  0.00719341  0.24829166  0.03020909  1.0
  N  N134  1  0.50912674  0.25935482  0.49830789  1.0
  N  N135  1  0.48403467  0.75787587  0.50011185  1.0
  N  N136  1  0.50954706  0.74115618  0.03554447  1.0
  N  N137  1  0.48539621  0.24271104  0.03359119  1.0
  O  O138  1  0.49693482  0.43937943  0.56841178  1.0
  O  O139  1  0.47980362  0.60217185  0.57251369  1.0
  O  O140  1  0.33326248  0.56815991  0.49905315  1.0
  O  O141  1  0.34925190  0.40515560  0.49702230  1.0
  O  O142  1  0.49270045  0.60419633  0.42934395  1.0
  O  O143  1  0.50412518  0.44103962  0.42540175  1.0
  O  O144  1  0.65636596  0.42593598  0.49792402  1.0
  O  O145  1  0.63935631  0.58866256  0.50261488  1.0
  O  O146  1  0.49884410  0.56085437  0.96548743  1.0
  O  O147  1  0.48161636  0.39814169  0.96136657  1.0
  O  O148  1  0.33459525  0.43292969  0.03512496  1.0
  O  O149  1  0.34997831  0.59594659  0.03677213  1.0
  O  O150  1  0.49333622  0.39541699  0.10440324  1.0
  O  O151  1  0.50381113  0.55858530  0.10834758  1.0
  O  O152  1  0.65717258  0.57494488  0.03620835  1.0
  O  O153  1  0.64074598  0.41227317  0.03134508  1.0
  O  O154  1  0.33056758  0.85908941  0.62775408  1.0
  O  O155  1  0.20084094  0.93750827  0.59463254  1.0
  O  O156  1  0.77790591  0.15775716  0.42269469  1.0
  O  O157  1  0.71004793  0.07280260  0.36368796  1.0
  O  O158  1  0.58402962  0.77541735  0.85523463  1.0
  O  O159  1  0.45788219  0.84077146  0.81393921  1.0
  O  O160  1  0.58173480  0.22391167  0.67837757  1.0
  O  O161  1  0.45504604  0.16002866  0.72007680  1.0
  O  O162  1  0.33189180  0.14233154  0.90640533  1.0
  O  O163  1  0.20222525  0.06352601  0.93953615  1.0
  O  O164  1  0.77773920  0.84128926  0.11068660  1.0
  O  O165  1  0.71061302  0.92757047  0.16966526  1.0
