# generated using pymatgen
data_NiH16(C12N5)2
_symmetry_space_group_name_H-M   'P 1'
_cell_length_a   9.52776519
_cell_length_b   16.27632164
_cell_length_c   16.27776066
_cell_angle_alpha   116.31341339
_cell_angle_beta   101.24018237
_cell_angle_gamma   101.22805216
_symmetry_Int_Tables_number   1
_chemical_formula_structural   NiH16(C12N5)2
_chemical_formula_sum   'Ni3 H48 C72 N30'
_cell_volume   2102.83110139
_cell_formula_units_Z   3
loop_
 _symmetry_equiv_pos_site_id
 _symmetry_equiv_pos_as_xyz
  1  'x, y, z'
loop_
 _atom_site_type_symbol
 _atom_site_label
 _atom_site_symmetry_multiplicity
 _atom_site_fract_x
 _atom_site_fract_y
 _atom_site_fract_z
 _atom_site_occupancy
  Ni  Ni0  1  0.49999890  0.00000008  0.50000002  1.0
  Ni  Ni1  1  0.00000215  0.50000211  0.50000095  1.0
  Ni  Ni2  1  0.49999890  0.50000003  0.99999852  1.0
  H  H3  1  0.50711950  0.13941876  0.40956255  1.0
  H  H4  1  0.66396531  0.18651793  0.31971582  1.0
  H  H5  1  0.86175751  0.10733145  0.27818752  1.0
  H  H6  1  0.89510135  0.98462621  0.32895521  1.0
  H  H7  1  0.85932282  0.64606364  0.61100530  1.0
  H  H8  1  0.75298068  0.76943882  0.59618156  1.0
  H  H9  1  0.96396057  0.74446157  0.37849628  1.0
  H  H10  1  0.05199439  0.61644434  0.39628844  1.0
  H  H11  1  0.09750214  0.59053087  0.72989287  1.0
  H  H12  1  0.34411725  0.68036698  0.86686203  1.0
  H  H13  1  0.58335567  0.72181002  0.82915823  1.0
  H  H14  1  0.56587283  0.67098506  0.65566875  1.0
  H  H15  1  0.24790192  0.38878817  0.03486436  1.0
  H  H16  1  0.15656519  0.40357903  0.17312236  1.0
  H  H17  1  0.58489097  0.62141648  0.36584379  1.0
  H  H18  1  0.65496797  0.60362278  0.22000362  1.0
  H  H19  1  0.36815250  0.27007551  0.86061502  1.0
  H  H20  1  0.47800030  0.13308982  0.81357195  1.0
  H  H21  1  0.75488185  0.17081569  0.89276194  1.0
  H  H22  1  0.91071188  0.34431558  0.01539186  1.0
  H  H23  1  0.21321770  0.96512662  0.35385702  1.0
  H  H24  1  0.98360717  0.82700292  0.23042821  1.0
  H  H25  1  0.21889710  0.63402220  0.25554375  1.0
  H  H26  1  0.43494945  0.77977629  0.38351468  1.0
  H  H27  1  0.49288044  0.86057973  0.59043801  1.0
  H  H28  1  0.33603355  0.81348056  0.68028461  1.0
  H  H29  1  0.13823958  0.89266776  0.72181242  1.0
  H  H30  1  0.10489895  0.01537300  0.67104448  1.0
  H  H31  1  0.14067498  0.35393485  0.38899317  1.0
  H  H32  1  0.24701569  0.23055894  0.40381642  1.0
  H  H33  1  0.03604046  0.25553909  0.62150413  1.0
  H  H34  1  0.94800700  0.38355704  0.60371172  1.0
  H  H35  1  0.90250104  0.40947196  0.27010814  1.0
  H  H36  1  0.65588666  0.31963730  0.13313848  1.0
  H  H37  1  0.41664715  0.27819208  0.17084118  1.0
  H  H38  1  0.43412854  0.32901415  0.34432923  1.0
  H  H39  1  0.75210053  0.61121321  0.96513654  1.0
  H  H40  1  0.84343583  0.59642163  0.82687867  1.0
  H  H41  1  0.41511112  0.37858418  0.63415736  1.0
  H  H42  1  0.34503271  0.39637933  0.77999740  1.0
  H  H43  1  0.63184495  0.72992443  0.13938466  1.0
  H  H44  1  0.52199787  0.86690939  0.18642627  1.0
  H  H45  1  0.24511774  0.82918424  0.10723553  1.0
  H  H46  1  0.08928558  0.65568435  0.98460537  1.0
  H  H47  1  0.78678153  0.03487260  0.64614623  1.0
  H  H48  1  0.01639027  0.17299702  0.76957578  1.0
  H  H49  1  0.78110392  0.36597629  0.74445570  1.0
  H  H50  1  0.56505086  0.22022292  0.61648562  1.0
  C  C51  1  0.59379447  0.10687493  0.38893028  1.0
  C  C52  1  0.68099718  0.13227432  0.33900657  1.0
  C  C53  1  0.79045634  0.08793557  0.31591804  1.0
  C  C54  1  0.80970346  0.02005654  0.34332324  1.0
  C  C55  1  0.71845172  0.99848090  0.39352574  1.0
  C  C56  1  0.73131469  0.93215145  0.42940485  1.0
  C  C57  1  0.78643858  0.83602941  0.47294300  1.0
  C  C58  1  0.87921132  0.66942139  0.55990887  1.0
  C  C59  1  0.82191198  0.73858601  0.55237593  1.0
  C  C60  1  0.85016560  0.76685148  0.48562872  1.0
  C  C61  1  0.93817680  0.72390831  0.43037743  1.0
  C  C62  1  0.98816579  0.65346610  0.44090288  1.0
  C  C63  1  0.20475049  0.61114128  0.71797880  1.0
  C  C64  1  0.34186210  0.66105504  0.79331489  1.0
  C  C65  1  0.47432905  0.68406515  0.77203334  1.0
  C  C66  1  0.46614993  0.65662718  0.67673955  1.0
  C  C67  1  0.32471156  0.60650161  0.60496301  1.0
  C  C68  1  0.30171353  0.57060382  0.50272674  1.0
  C  C69  1  0.31318171  0.52695420  0.36298167  1.0
  C  C70  1  0.31888026  0.43990883  0.10932556  1.0
  C  C71  1  0.26919253  0.44742993  0.18604671  1.0
  C  C72  1  0.36414163  0.51421113  0.28107916  1.0
  C  C73  1  0.50728004  0.56949895  0.29338366  1.0
  C  C74  1  0.54664372  0.55895391  0.21239964  1.0
  C  C75  1  0.48734091  0.28201815  0.89315187  1.0
  C  C76  1  0.54922473  0.20668063  0.86775100  1.0
  C  C77  1  0.70294767  0.22797270  0.91210474  1.0
  C  C78  1  0.78994184  0.32329284  0.97996244  1.0
  C  C79  1  0.72017480  0.39507566  0.00156763  1.0
  C  C80  1  0.79916362  0.49730477  0.06791925  1.0
  C  C81  1  0.95016564  0.63704577  0.16398811  1.0
  C  C82  1  0.20966538  0.89063474  0.33051045  1.0
  C  C83  1  0.08322127  0.81396915  0.26132786  1.0
  C  C84  1  0.08302072  0.71889596  0.23309350  1.0
  C  C85  1  0.21379464  0.70650499  0.27609235  1.0
  C  C86  1  0.33422979  0.78744294  0.34649431  1.0
  C  C87  1  0.40620655  0.89312574  0.61107075  1.0
  C  C88  1  0.31900169  0.86772417  0.66099202  1.0
  C  C89  1  0.20954182  0.91206364  0.68408141  1.0
  C  C90  1  0.19029578  0.97994267  0.65667572  1.0
  C  C91  1  0.28155001  0.00151904  0.60647444  1.0
  C  C92  1  0.26868490  0.06784632  0.57059289  1.0
  C  C93  1  0.21356173  0.16396981  0.52705669  1.0
  C  C94  1  0.12078721  0.33057855  0.44009032  1.0
  C  C95  1  0.17808618  0.26141320  0.44762290  1.0
  C  C96  1  0.14983363  0.23314774  0.51437023  1.0
  C  C97  1  0.06182316  0.27609235  0.56962347  1.0
  C  C98  1  0.01183523  0.34653456  0.55909754  1.0
  C  C99  1  0.79524910  0.38885866  0.28202113  1.0
  C  C100  1  0.65813858  0.33894707  0.20668428  1.0
  C  C101  1  0.52567127  0.31593624  0.22796608  1.0
  C  C102  1  0.53385216  0.34337348  0.32325976  1.0
  C  C103  1  0.67528947  0.39349905  0.39503679  1.0
  C  C104  1  0.69828929  0.42939829  0.49727391  1.0
  C  C105  1  0.68681966  0.47304501  0.63701876  1.0
  C  C106  1  0.68112005  0.56009255  0.89067571  1.0
  C  C107  1  0.73080813  0.55257001  0.81395396  1.0
  C  C108  1  0.63586188  0.48578809  0.71892151  1.0
  C  C109  1  0.49272205  0.43050171  0.70661811  1.0
  C  C110  1  0.45335766  0.44104748  0.78760114  1.0
  C  C111  1  0.51265832  0.71798106  0.10684709  1.0
  C  C112  1  0.45077557  0.79331859  0.13224870  1.0
  C  C113  1  0.29705085  0.77202724  0.08789323  1.0
  C  C114  1  0.21005811  0.67670782  0.02003663  1.0
  C  C115  1  0.27982730  0.60492500  0.99843045  1.0
  C  C116  1  0.20083669  0.50269444  0.93207798  1.0
  C  C117  1  0.04983431  0.36295272  0.83601060  1.0
  C  C118  1  0.79033421  0.10936519  0.66949316  1.0
  C  C119  1  0.91677688  0.18603007  0.73867589  1.0
  C  C120  1  0.91697671  0.28110181  0.76690706  1.0
  C  C121  1  0.78620459  0.29349422  0.72390844  1.0
  C  C122  1  0.66576873  0.21255700  0.65350673  1.0
  N  N123  1  0.68001073  0.86408325  0.51374582  1.0
  N  N124  1  0.64522075  0.92501339  0.48477690  1.0
  N  N125  1  0.82161021  0.87665299  0.41940355  1.0
  N  N126  1  0.61158630  0.04139042  0.41544489  1.0
  N  N127  1  0.95895604  0.62545403  0.50406529  1.0
  N  N128  1  0.16609764  0.48602635  0.35027478  1.0
  N  N129  1  0.16035711  0.51505972  0.44021050  1.0
  N  N130  1  0.40186558  0.58063162  0.45717402  1.0
  N  N131  1  0.19599512  0.58461193  0.62596801  1.0
  N  N132  1  0.45434557  0.49578119  0.12120194  1.0
  N  N133  1  0.81571333  0.64973703  0.13587426  1.0
  N  N134  1  0.72013248  0.55979189  0.07498825  1.0
  N  N135  1  0.94483531  0.54287325  0.12343363  1.0
  N  N136  1  0.57045835  0.37404648  0.95863936  1.0
  N  N137  1  0.33322413  0.87868526  0.37449574  1.0
  N  N138  1  0.31998850  0.13591596  0.48625375  1.0
  N  N139  1  0.35477884  0.07498655  0.51522303  1.0
  N  N140  1  0.17839259  0.12334694  0.58059736  1.0
  N  N141  1  0.38841186  0.95860879  0.58455517  1.0
  N  N142  1  0.04104498  0.37454663  0.49593451  1.0
  N  N143  1  0.83390338  0.51397431  0.64972564  1.0
  N  N144  1  0.83964393  0.48494311  0.55979087  1.0
  N  N145  1  0.59813793  0.41936760  0.54282665  1.0
  N  N146  1  0.80400770  0.41539018  0.37403263  1.0
  N  N147  1  0.54565689  0.50422020  0.87879835  1.0
  N  N148  1  0.18428590  0.35026219  0.86412592  1.0
  N  N149  1  0.27986782  0.44020732  0.92501022  1.0
  N  N150  1  0.05516500  0.45712596  0.87656361  1.0
  N  N151  1  0.42954160  0.62595418  0.04135971  1.0
  N  N152  1  0.66677510  0.12131395  0.62550690  1.0
