# generated using pymatgen
data_AlH15(C9O2)3
_symmetry_space_group_name_H-M   'P 1'
_cell_length_a   3.98960484
_cell_length_b   16.02898547
_cell_length_c   16.02966105
_cell_angle_alpha   119.87150881
_cell_angle_beta   90.98852191
_cell_angle_gamma   90.98942615
_symmetry_Int_Tables_number   1
_chemical_formula_structural   AlH15(C9O2)3
_chemical_formula_sum   'Al1 H15 C27 O6'
_cell_volume   888.36989161
_cell_formula_units_Z   1
loop_
 _symmetry_equiv_pos_site_id
 _symmetry_equiv_pos_as_xyz
  1  'x, y, z'
loop_
 _atom_site_type_symbol
 _atom_site_label
 _atom_site_symmetry_multiplicity
 _atom_site_fract_x
 _atom_site_fract_y
 _atom_site_fract_z
 _atom_site_occupancy
  Al  Al0  1  0.00003372  0.50016604  0.49974298  1.0
  H  H1  1  0.50006755  0.92260185  0.07727788  1.0
  H  H2  1  0.47596558  0.65468501  0.07733984  1.0
  H  H3  1  0.52386434  0.92254103  0.34517229  1.0
  H  H4  1  0.75141561  0.23603983  0.25151415  1.0
  H  H5  1  0.76697512  0.05861196  0.16379414  1.0
  H  H6  1  0.22447611  0.05110447  0.39021829  1.0
  H  H7  1  0.21984755  0.22879099  0.47963297  1.0
  H  H8  1  0.23309857  0.83610424  0.94127547  1.0
  H  H9  1  0.24882824  0.74838229  0.76387012  1.0
  H  H10  1  0.77993588  0.52018364  0.77112361  1.0
  H  H11  1  0.77528143  0.60961794  0.94878985  1.0
  H  H12  1  0.76271487  0.60748310  0.16250435  1.0
  H  H13  1  0.76741200  0.51920613  0.25295192  1.0
  H  H14  1  0.23251488  0.74701196  0.48073291  1.0
  H  H15  1  0.23709556  0.83746718  0.39245197  1.0
  C  C16  1  0.51389437  0.57414428  0.64837037  1.0
  C  C17  1  0.50000394  0.57407987  0.42586857  1.0
  C  C18  1  0.48619243  0.35154766  0.42574830  1.0
  C  C19  1  0.49952108  0.78248446  0.06496497  1.0
  C  C20  1  0.50007245  0.88332282  0.11655764  1.0
  C  C21  1  0.50047502  0.93492182  0.21738246  1.0
  C  C22  1  0.50582247  0.88328823  0.26676807  1.0
  C  C23  1  0.49988501  0.78237615  0.21750155  1.0
  C  C24  1  0.49400949  0.73309209  0.11659859  1.0
  C  C25  1  0.63304523  0.19529414  0.28141089  1.0
  C  C26  1  0.63934203  0.09524507  0.23195624  1.0
  C  C27  1  0.49685479  0.04123377  0.27028212  1.0
  C  C28  1  0.34740613  0.09128061  0.36032862  1.0
  C  C29  1  0.34194004  0.19133752  0.41061467  1.0
  C  C30  1  0.48489800  0.24388296  0.37126733  1.0
  C  C31  1  0.36077135  0.76793805  0.90465669  1.0
  C  C32  1  0.36713427  0.71847872  0.80462835  1.0
  C  C33  1  0.51515226  0.62860128  0.75602350  1.0
  C  C34  1  0.65794468  0.58923448  0.80857011  1.0
  C  C35  1  0.65250495  0.63952010  0.90861402  1.0
  C  C36  1  0.50313277  0.72959228  0.95866425  1.0
  C  C37  1  0.64319805  0.63809774  0.23187568  1.0
  C  C38  1  0.64817631  0.58853271  0.28241235  1.0
  C  C39  1  0.50003412  0.62753633  0.37243747  1.0
  C  C40  1  0.35177399  0.71755924  0.41142438  1.0
  C  C41  1  0.35669351  0.76808480  0.36184226  1.0
  C  C42  1  0.49989204  0.72917557  0.27077164  1.0
  O  O43  1  0.24923207  0.39287714  0.40764341  1.0
  O  O44  1  0.27321520  0.51322127  0.60551007  1.0
  O  O45  1  0.27139900  0.59234900  0.48712547  1.0
  O  O46  1  0.72687306  0.39437745  0.48664975  1.0
  O  O47  1  0.72861950  0.51278538  0.40756436  1.0
  O  O48  1  0.75086016  0.59226365  0.60704952  1.0
