# generated using pymatgen
data_AlH21C45(OF)6
_symmetry_space_group_name_H-M   'P 1'
_cell_length_a   3.94243113
_cell_length_b   23.56710622
_cell_length_c   23.56500795
_cell_angle_alpha   60.06063261
_cell_angle_beta   87.13837930
_cell_angle_gamma   86.87946418
_symmetry_Int_Tables_number   1
_chemical_formula_structural   AlH21C45(OF)6
_chemical_formula_sum   'Al1 H21 C45 O6 F6'
_cell_volume   1893.82105159
_cell_formula_units_Z   1
loop_
 _symmetry_equiv_pos_site_id
 _symmetry_equiv_pos_as_xyz
  1  'x, y, z'
loop_
 _atom_site_type_symbol
 _atom_site_label
 _atom_site_symmetry_multiplicity
 _atom_site_fract_x
 _atom_site_fract_y
 _atom_site_fract_z
 _atom_site_occupancy
  Al  Al0  1  0.99597017  0.49978197  0.50028258  1.0
  H  H1  1  0.50065594  0.32029893  0.68021810  1.0
  H  H2  1  0.50208902  0.25703740  0.80121203  1.0
  H  H3  1  0.84073481  0.16484759  0.01300572  1.0
  H  H4  1  0.48480541  0.80410356  0.25654078  1.0
  H  H5  1  0.23581788  0.89680217  0.22709603  1.0
  H  H6  1  0.24453940  0.01629379  0.16529513  1.0
  H  H7  1  0.52352143  0.10632484  0.10493191  1.0
  H  H8  1  0.53186460  0.67892118  0.49874908  1.0
  H  H9  1  0.53165251  0.79966237  0.44194876  1.0
  H  H10  1  0.81890777  0.01250497  0.31871779  1.0
  H  H11  1  0.55638191  0.25656577  0.43815389  1.0
  H  H12  1  0.26877093  0.23017592  0.37903446  1.0
  H  H13  1  0.26088590  0.16791675  0.32139671  1.0
  H  H14  1  0.54479489  0.10517161  0.28779967  1.0
  H  H15  1  0.58407801  0.49910567  0.32050252  1.0
  H  H16  1  0.58342540  0.44194774  0.25666296  1.0
  H  H17  1  0.86180786  0.31554296  0.16333470  1.0
  H  H18  1  0.51286996  0.43884344  0.80465217  1.0
  H  H19  1  0.21366020  0.37836204  0.89690291  1.0
  H  H20  1  0.22343688  0.32003625  0.01708432  1.0
  H  H21  1  0.54687189  0.28781474  0.10605192  1.0
  C  C22  1  0.48306923  0.45087002  0.60123758  1.0
  C  C23  1  0.52703618  0.44793186  0.45096870  1.0
  C  C24  1  0.48088272  0.60059399  0.44814631  1.0
  C  C25  1  0.49803626  0.34564797  0.70828607  1.0
  C  C26  1  0.50347750  0.31019950  0.77623324  1.0
  C  C27  1  0.68571761  0.24496191  0.92128190  1.0
  C  C28  1  0.69383184  0.21095189  0.98901245  1.0
  C  C29  1  0.46216361  0.71093479  0.34329753  1.0
  C  C30  1  0.48291036  0.77855235  0.30987294  1.0
  C  C31  1  0.37189410  0.92203597  0.24665326  1.0
  C  C32  1  0.37675970  0.98996494  0.21144734  1.0
  C  C33  1  0.48391503  0.41431473  0.67428606  1.0
  C  C34  1  0.50869449  0.34245559  0.81282826  1.0
  C  C35  1  0.51866648  0.30627549  0.88498787  1.0
  C  C36  1  0.53039616  0.23752655  0.02512290  1.0
  C  C37  1  0.53443212  0.20117327  0.09734745  1.0
  C  C38  1  0.53021337  0.13258941  0.13199866  1.0
  C  C39  1  0.51508324  0.70731230  0.44560386  1.0
  C  C40  1  0.51988273  0.77520595  0.41343127  1.0
  C  C41  1  0.67320540  0.92108941  0.33180225  1.0
  C  C42  1  0.68053555  0.98878442  0.29785494  1.0
  C  C43  1  0.53510469  0.34340873  0.44517155  1.0
  C  C44  1  0.55174180  0.30991253  0.41064843  1.0
  C  C45  1  0.40676194  0.24818190  0.33231119  1.0
  C  C46  1  0.40288138  0.21273482  0.29978214  1.0
  C  C47  1  0.48306015  0.67346834  0.41137873  1.0
  C  C48  1  0.50929859  0.81226620  0.34460389  1.0
  C  C49  1  0.52010693  0.88442845  0.30850101  1.0
  C  C50  1  0.53031169  0.02498357  0.23656050  1.0
  C  C51  1  0.53394316  0.09722153  0.20059535  1.0
  C  C52  1  0.54229706  0.13197237  0.23444803  1.0
  C  C53  1  0.57358808  0.44587741  0.34558800  1.0
  C  C54  1  0.57697731  0.41353885  0.30983152  1.0
  C  C55  1  0.72399090  0.33028596  0.24368428  1.0
  C  C56  1  0.72264042  0.29609353  0.21004801  1.0
  C  C57  1  0.47997578  0.44564584  0.71131272  1.0
  C  C58  1  0.49897799  0.41131524  0.77901299  1.0
  C  C59  1  0.35756161  0.33201334  0.92243568  1.0
  C  C60  1  0.36317328  0.29909394  0.99040723  1.0
  C  C61  1  0.54724194  0.41157368  0.41417600  1.0
  C  C62  1  0.56783318  0.34474577  0.34177613  1.0
  C  C63  1  0.56797566  0.30854805  0.30566789  1.0
  C  C64  1  0.55929228  0.23632016  0.23752003  1.0
  C  C65  1  0.54847426  0.20049641  0.20120049  1.0
  C  C66  1  0.54330565  0.23445720  0.13258527  1.0
  O  O67  1  0.25326575  0.57220143  0.43593559  1.0
  O  O68  1  0.23894775  0.49162724  0.57294311  1.0
  O  O69  1  0.28211706  0.43578426  0.49230929  1.0
  O  O70  1  0.70793427  0.57148984  0.49110670  1.0
  O  O71  1  0.75215230  0.49000660  0.43722227  1.0
  O  O72  1  0.72812954  0.43715966  0.57227642  1.0
  F  F73  1  0.52007999  0.30766641  0.51178202  1.0
  F  F74  1  0.47256970  0.51232571  0.68030664  1.0
  F  F75  1  0.43756142  0.68066300  0.30739737  1.0
  F  F76  1  0.89900882  0.38697391  0.21441992  1.0
  F  F77  1  0.86227041  0.21697265  0.88953270  1.0
  F  F78  1  0.83758347  0.88995349  0.38998356  1.0
