# generated using pymatgen
data_ZnH3C6INO4
_symmetry_space_group_name_H-M   'P 1'
_cell_length_a   8.07499427
_cell_length_b   8.99741817
_cell_length_c   11.92395280
_cell_angle_alpha   87.86779198
_cell_angle_beta   84.16426333
_cell_angle_gamma   88.07680814
_symmetry_Int_Tables_number   1
_chemical_formula_structural   ZnH3C6INO4
_chemical_formula_sum   'Zn2 H6 C12 I2 N2 O8'
_cell_volume   860.85119959
_cell_formula_units_Z   2
loop_
 _symmetry_equiv_pos_site_id
 _symmetry_equiv_pos_as_xyz
  1  'x, y, z'
loop_
 _atom_site_type_symbol
 _atom_site_label
 _atom_site_symmetry_multiplicity
 _atom_site_fract_x
 _atom_site_fract_y
 _atom_site_fract_z
 _atom_site_occupancy
  Zn  Zn0  1  0.32764984  0.51872677  0.51115007  1.0
  Zn  Zn1  1  0.67233222  0.48130661  0.48887740  1.0
  H  H2  1  0.66631943  0.91103279  0.30119678  1.0
  H  H3  1  0.65920603  0.10234436  0.33818038  1.0
  H  H4  1  0.79865220  0.97308898  0.39771806  1.0
  H  H5  1  0.33383121  0.08906808  0.69878911  1.0
  H  H6  1  0.20148590  0.02694933  0.60228009  1.0
  H  H7  1  0.34094448  0.89775712  0.66187435  1.0
  C  C8  1  0.51754741  0.78676928  0.48423095  1.0
  C  C9  1  0.45679706  0.04964638  0.53382364  1.0
  C  C10  1  0.67293592  0.98756227  0.37019475  1.0
  C  C11  1  0.32722573  0.01251651  0.62980300  1.0
  C  C12  1  0.48270769  0.21320886  0.51576930  1.0
  C  C13  1  0.48947048  0.49920797  0.72040537  1.0
  C  C14  1  0.51019765  0.50074492  0.27959329  1.0
  C  C15  1  0.49262224  0.49929442  0.84133778  1.0
  C  C16  1  0.50708077  0.50056479  0.15866855  1.0
  C  C17  1  0.49726436  0.49978332  0.94358287  1.0
  C  C18  1  0.50243533  0.50003130  0.05640754  1.0
  C  C19  1  0.54342405  0.95033942  0.46619628  1.0
  I  I20  1  0.03229739  0.30424957  0.35982523  1.0
  I  I21  1  0.96769607  0.69581664  0.64012613  1.0
  N  N22  1  0.94617314  0.46830848  0.47807725  1.0
  N  N23  1  0.05383146  0.53174721  0.52187762  1.0
  O  O24  1  0.36977372  0.73972077  0.50200111  1.0
  O  O25  1  0.63052280  0.26025769  0.49829052  1.0
  O  O26  1  0.65051057  0.70499830  0.47693583  1.0
  O  O27  1  0.34973114  0.29495599  0.52274193  1.0
  O  O28  1  0.34781746  0.51970959  0.68332298  1.0
  O  O29  1  0.65178591  0.47988151  0.31671928  1.0
  O  O30  1  0.62985092  0.47894592  0.66291344  1.0
  O  O31  1  0.36990225  0.52145628  0.33707602  1.0
