# generated using pymatgen
data_Zn4C40Br4Cl16O13
_symmetry_space_group_name_H-M   'P 1'
_cell_length_a   24.00406674
_cell_length_b   24.00427641
_cell_length_c   24.00239949
_cell_angle_alpha   66.55917286
_cell_angle_beta   72.47305374
_cell_angle_gamma   107.52297021
_symmetry_Int_Tables_number   1
_chemical_formula_structural   Zn4C40Br4Cl16O13
_chemical_formula_sum   'Zn8 C80 Br8 Cl32 O26'
_cell_volume   10607.54061413
_cell_formula_units_Z   2
loop_
 _symmetry_equiv_pos_site_id
 _symmetry_equiv_pos_as_xyz
  1  'x, y, z'
loop_
 _atom_site_type_symbol
 _atom_site_label
 _atom_site_symmetry_multiplicity
 _atom_site_fract_x
 _atom_site_fract_y
 _atom_site_fract_z
 _atom_site_occupancy
  Zn  Zn0  1  0.05681254  0.09915906  0.45763864  1.0
  Zn  Zn1  1  0.05680981  0.95765043  0.48553540  1.0
  Zn  Zn2  1  0.94318503  0.95764022  0.59916884  1.0
  Zn  Zn3  1  0.94320319  0.98555395  0.45763524  1.0
  Zn  Zn4  1  0.94319126  0.40084291  0.04235750  1.0
  Zn  Zn5  1  0.05681820  0.54235863  0.90082954  1.0
  Zn  Zn6  1  0.94319148  0.54234974  0.01445900  1.0
  Zn  Zn7  1  0.05679509  0.51444826  0.04236576  1.0
  C  C8  1  0.18099076  0.09048461  0.40950056  1.0
  C  C9  1  0.00000064  0.86315134  0.63684424  1.0
  C  C10  1  0.99999350  0.09048663  0.59049897  1.0
  C  C11  1  0.81901511  0.90951324  0.59047663  1.0
  C  C12  1  0.00000528  0.13685018  0.36314612  1.0
  C  C13  1  0.99999583  0.90950492  0.40950189  1.0
  C  C14  1  0.99999819  0.40951580  0.90949724  1.0
  C  C15  1  0.00000431  0.63684994  0.86314992  1.0
  C  C16  1  0.81901077  0.40951606  0.09050606  1.0
  C  C17  1  0.99998867  0.59049493  0.09049384  1.0
  C  C18  1  0.99999741  0.36315305  0.13685147  1.0
  C  C19  1  0.18098667  0.59049933  0.90952379  1.0
  C  C20  1  0.00000400  0.19491242  0.30508734  1.0
  C  C21  1  0.99999865  0.30508978  0.19491026  1.0
  C  C22  1  0.95721997  0.18031963  0.27690285  1.0
  C  C23  1  0.04278312  0.31968258  0.22309420  1.0
  C  C24  1  0.95721848  0.23412188  0.22310061  1.0
  C  C25  1  0.04278484  0.26588083  0.27689617  1.0
  C  C26  1  0.99999879  0.80509006  0.69490977  1.0
  C  C27  1  0.00000513  0.69491012  0.80508507  1.0
  C  C28  1  0.95721984  0.77689929  0.76588374  1.0
  C  C29  1  0.04278426  0.72310036  0.73411127  1.0
  C  C30  1  0.95722057  0.72309445  0.81968807  1.0
  C  C31  1  0.04278315  0.77690625  0.68030663  1.0
  C  C32  1  0.99999956  0.37178915  0.87176812  1.0
  C  C33  1  0.95683593  0.29905313  0.90765813  1.0
  C  C34  1  0.95716359  0.26439433  0.87222589  1.0
  C  C35  1  0.99998983  0.30028172  0.80027055  1.0
  C  C36  1  0.04282437  0.37223006  0.76437155  1.0
  C  C37  1  0.04316047  0.40766326  0.79902720  1.0
  C  C38  1  0.99998514  0.26520650  0.76519667  1.0
  C  C39  1  0.99998037  0.23480167  0.73479433  1.0
  C  C40  1  0.99997317  0.19972387  0.69972390  1.0
  C  C41  1  0.95715580  0.12777090  0.73562712  1.0
  C  C42  1  0.95682828  0.09233924  0.70096952  1.0
  C  C43  1  0.99997702  0.12821745  0.62822475  1.0
  C  C44  1  0.04311732  0.20095668  0.59233224  1.0
  C  C45  1  0.04278470  0.23561704  0.62776328  1.0
  C  C46  1  0.00000242  0.62824082  0.12820250  1.0
  C  C47  1  0.04317021  0.63553452  0.15776671  1.0
  C  C48  1  0.04283651  0.67063209  0.19275803  1.0
  C  C49  1  0.00000300  0.69974360  0.19970384  1.0
  C  C50  1  0.95717480  0.69280657  0.17058346  1.0
  C  C51  1  0.95684337  0.65781732  0.13548159  1.0
  C  C52  1  0.99999589  0.73480580  0.23478929  1.0
  C  C53  1  0.99998990  0.76519872  0.26520336  1.0
  C  C54  1  0.99997686  0.80025736  0.30029208  1.0
  C  C55  1  0.04278659  0.80717057  0.32943499  1.0
  C  C56  1  0.04311818  0.84215826  0.36453783  1.0
  C  C57  1  0.99997819  0.87175704  0.37179609  1.0
  C  C58  1  0.95682692  0.86448768  0.34221015  1.0
  C  C59  1  0.95715863  0.82938960  0.30721881  1.0
  C  C60  1  0.74355712  0.37178821  0.12822708  1.0
  C  C61  1  0.70670213  0.29905216  0.15781039  1.0
  C  C62  1  0.63661201  0.26439159  0.19280579  1.0
  C  C63  1  0.60055268  0.30028243  0.19973419  1.0
  C  C64  1  0.63660894  0.37223336  0.17059625  1.0
  C  C65  1  0.70669859  0.40766728  0.13549465  1.0
  C  C66  1  0.53040475  0.26520234  0.23481428  1.0
  C  C67  1  0.46959798  0.23479052  0.26522633  1.0
  C  C68  1  0.39944990  0.19971198  0.30030751  1.0
  C  C69  1  0.36339445  0.12776470  0.32942751  1.0
  C  C70  1  0.29330372  0.09233130  0.36452590  1.0
  C  C71  1  0.25644515  0.12820932  0.37180223  1.0
  C  C72  1  0.29330095  0.20093861  0.34224219  1.0
  C  C73  1  0.36339040  0.23559866  0.30725011  1.0
  C  C74  1  0.25644237  0.62823444  0.87179428  1.0
  C  C75  1  0.29330697  0.65783862  0.79904691  1.0
  C  C76  1  0.36339694  0.69283275  0.76438546  1.0
  C  C77  1  0.39944984  0.69974487  0.80028566  1.0
  C  C78  1  0.36338527  0.67059849  0.87224671  1.0
  C  C79  1  0.29329354  0.63549398  0.90768241  1.0
  C  C80  1  0.46959771  0.73481824  0.76520533  1.0
  C  C81  1  0.53040465  0.76522385  0.73478612  1.0
  C  C82  1  0.60055352  0.80030032  0.69970551  1.0
  C  C83  1  0.63661738  0.82942443  0.62774933  1.0
  C  C84  1  0.70670987  0.86452116  0.59231566  1.0
  C  C85  1  0.74355855  0.87179418  0.62820378  1.0
  C  C86  1  0.70669478  0.84222004  0.70094356  1.0
  C  C87  1  0.63660642  0.80723317  0.73560166  1.0
  Br  Br88  1  0.89695679  0.08819507  0.30877158  1.0
  Br  Br89  1  0.10304562  0.41180661  0.19122672  1.0
  Br  Br90  1  0.89695397  0.20572816  0.19123756  1.0
  Br  Br91  1  0.10304999  0.29427405  0.30875881  1.0
  Br  Br92  1  0.89695511  0.80875616  0.79429806  1.0
  Br  Br93  1  0.10304817  0.69124454  0.70569678  1.0
  Br  Br94  1  0.89696113  0.69122151  0.91182798  1.0
  Br  Br95  1  0.10304346  0.80877918  0.58816688  1.0
  Cl  Cl96  1  0.90179402  0.24771648  0.99490160  1.0
  Cl  Cl97  1  0.09820005  0.49489896  0.74767786  1.0
  Cl  Cl98  1  0.09434372  0.41482768  0.67717149  1.0
  Cl  Cl99  1  0.90564178  0.17720075  0.91483727  1.0
  Cl  Cl100  1  0.90565525  0.08516858  0.82283004  1.0
  Cl  Cl101  1  0.09429306  0.32281271  0.58514804  1.0
  Cl  Cl102  1  0.09812405  0.25230323  0.50507963  1.0
  Cl  Cl103  1  0.90179639  0.00509938  0.75232069  1.0
  Cl  Cl104  1  0.09823461  0.60336820  0.15403429  1.0
  Cl  Cl105  1  0.90181939  0.65413380  0.10326972  1.0
  Cl  Cl106  1  0.90565336  0.72847585  0.17950739  1.0
  Cl  Cl107  1  0.09436126  0.67955774  0.22842334  1.0
  Cl  Cl108  1  0.09429448  0.77148523  0.32053026  1.0
  Cl  Cl109  1  0.90565805  0.82049347  0.27152407  1.0
  Cl  Cl110  1  0.90179035  0.89668767  0.34591000  1.0
  Cl  Cl111  1  0.09812316  0.84581587  0.39677655  1.0
  Cl  Cl112  1  0.74260062  0.24771198  0.15412726  1.0
  Cl  Cl113  1  0.74259458  0.49490829  0.10326192  1.0
  Cl  Cl114  1  0.59201460  0.41483453  0.17949526  1.0
  Cl  Cl115  1  0.59202303  0.17719744  0.22849445  1.0
  Cl  Cl116  1  0.40798813  0.08516874  0.32050246  1.0
  Cl  Cl117  1  0.40797892  0.32278707  0.27158803  1.0
  Cl  Cl118  1  0.25740033  0.25226941  0.34597717  1.0
  Cl  Cl119  1  0.25740947  0.00509499  0.39673957  1.0
  Cl  Cl120  1  0.25741597  0.65417782  0.74769259  1.0
  Cl  Cl121  1  0.25738906  0.60327161  0.99493004  1.0
  Cl  Cl122  1  0.40797132  0.67948946  0.91485717  1.0
  Cl  Cl123  1  0.40799146  0.72852698  0.67718249  1.0
  Cl  Cl124  1  0.59203037  0.82051067  0.58514404  1.0
  Cl  Cl125  1  0.59200910  0.77155551  0.82280223  1.0
  Cl  Cl126  1  0.74258630  0.84592437  0.75228921  1.0
  Cl  Cl127  1  0.74261281  0.89673267  0.50507113  1.0
  O  O128  1  0.00000093  0.99999960  0.49999902  1.0
  O  O129  1  0.15158686  0.12578344  0.41416451  1.0
  O  O130  1  0.03948665  0.88566781  0.57485114  1.0
  O  O131  1  0.96000593  0.02578970  0.62579827  1.0
  O  O132  1  0.15158999  0.02579436  0.43421307  1.0
  O  O133  1  0.03999007  0.12577220  0.52580573  1.0
  O  O134  1  0.96049875  0.88564946  0.65383557  1.0
  O  O135  1  0.84841185  0.91418394  0.62578155  1.0
  O  O136  1  0.96053129  0.07486110  0.38564375  1.0
  O  O137  1  0.84842094  0.93423604  0.52577714  1.0
  O  O138  1  0.03948392  0.15382815  0.38566299  1.0
  O  O139  1  0.03998362  0.91420260  0.43420617  1.0
  O  O140  1  0.96002397  0.93422959  0.41418105  1.0
  O  O141  1  0.00000176  0.50000140  0.99999881  1.0
  O  O142  1  0.96002569  0.37422352  0.97419720  1.0
  O  O143  1  0.03950874  0.61435278  0.84616072  1.0
  O  O144  1  0.84841078  0.47420372  0.06580272  1.0
  O  O145  1  0.03997859  0.47421593  0.87419432  1.0
  O  O146  1  0.84841537  0.37422349  0.08581108  1.0
  O  O147  1  0.96051388  0.61432979  0.92514243  1.0
  O  O148  1  0.96001672  0.58581804  0.06576951  1.0
  O  O149  1  0.03947446  0.42514214  0.11435001  1.0
  O  O150  1  0.03994956  0.56575582  0.08583253  1.0
  O  O151  1  0.96051285  0.34617457  0.11434035  1.0
  O  O152  1  0.15158969  0.58579701  0.87422606  1.0
  O  O153  1  0.15157942  0.56578948  0.97422065  1.0
