# generated using pymatgen
data_Cu3P6H52(C28O9)2
_symmetry_space_group_name_H-M   'P 1'
_cell_length_a   5.06656962
_cell_length_b   15.12975060
_cell_length_c   29.15051927
_cell_angle_alpha   83.71897513
_cell_angle_beta   85.21211969
_cell_angle_gamma   83.03859628
_symmetry_Int_Tables_number   1
_chemical_formula_structural   Cu3P6H52(C28O9)2
_chemical_formula_sum   'Cu3 P6 H52 C56 O18'
_cell_volume   2199.18393482
_cell_formula_units_Z   1
loop_
 _symmetry_equiv_pos_site_id
 _symmetry_equiv_pos_as_xyz
  1  'x, y, z'
loop_
 _atom_site_type_symbol
 _atom_site_label
 _atom_site_symmetry_multiplicity
 _atom_site_fract_x
 _atom_site_fract_y
 _atom_site_fract_z
 _atom_site_occupancy
  Cu  Cu0  1  0.65624663  0.08222063  0.46697934  1.0
  Cu  Cu1  1  0.34376300  0.91778024  0.53302035  1.0
  Cu  Cu2  1  0.99999639  0.49999908  0.99999994  1.0
  P  P3  1  0.46275940  0.52958269  0.05700763  1.0
  P  P4  1  0.53723752  0.47041482  0.94299277  1.0
  P  P5  1  0.19976580  0.00586536  0.41822401  1.0
  P  P6  1  0.80023745  0.99413685  0.58177501  1.0
  P  P7  1  0.11550673  0.21713566  0.47944978  1.0
  P  P8  1  0.88450160  0.78286320  0.52055073  1.0
  H  H9  1  0.42904843  0.62042847  0.99676391  1.0
  H  H10  1  0.57094826  0.37956971  0.00323646  1.0
  H  H11  1  0.15456606  0.64268113  0.12205964  1.0
  H  H12  1  0.84542630  0.35731236  0.87794208  1.0
  H  H13  1  0.20671837  0.66020267  0.20405729  1.0
  H  H14  1  0.79328030  0.33979551  0.79594305  1.0
  H  H15  1  0.92438759  0.47496175  0.20056271  1.0
  H  H16  1  0.07562030  0.52503846  0.79943670  1.0
  H  H17  1  0.86829877  0.45600634  0.11868174  1.0
  H  H18  1  0.13170480  0.54398917  0.88131833  1.0
  H  H19  1  0.45331814  0.71846238  0.25321455  1.0
  H  H20  1  0.54668311  0.28153982  0.74678518  1.0
  H  H21  1  0.72909342  0.60410900  0.38486625  1.0
  H  H22  1  0.27089793  0.39589319  0.61513397  1.0
  H  H23  1  0.76684805  0.44039460  0.27275991  1.0
  H  H24  1  0.23314968  0.55960626  0.72724098  1.0
  H  H25  1  0.16923702  0.50886477  0.38861593  1.0
  H  H26  1  0.83075871  0.49113609  0.61138567  1.0
  H  H27  1  0.30820985  0.38644081  0.44841412  1.0
  H  H28  1  0.69178837  0.61355871  0.55158580  1.0
  H  H29  1  0.74716407  0.22637290  0.40481252  1.0
  H  H30  1  0.25283144  0.77362862  0.59518870  1.0
  H  H31  1  0.61006772  0.34812628  0.34466146  1.0
  H  H32  1  0.38992801  0.65187458  0.65534014  1.0
  H  H33  1  0.15393436  0.79538442  0.30176972  1.0
  H  H34  1  0.84606096  0.20461778  0.69822975  1.0
  H  H35  1  0.00059254  0.93086032  0.34105005  1.0
  H  H36  1  0.99940409  0.06914389  0.65894827  1.0
  H  H37  1  0.66317824  0.87384831  0.42731864  1.0
  H  H38  1  0.33681705  0.12615388  0.57268187  1.0
  H  H39  1  0.81903431  0.73929537  0.38786645  1.0
  H  H40  1  0.18095945  0.26070549  0.61213483  1.0
  H  H41  1  0.79101926  0.29515055  0.57733857  1.0
  H  H42  1  0.20898452  0.70484429  0.42266257  1.0
  H  H43  1  0.65670870  0.26406279  0.52792812  1.0
  H  H44  1  0.34330129  0.73593139  0.47207160  1.0
  H  H45  1  0.70738626  0.41509548  0.48592238  1.0
  H  H46  1  0.29260984  0.58489868  0.51407856  1.0
  H  H47  1  0.86808091  0.44568535  0.53278085  1.0
  H  H48  1  0.13190834  0.55431148  0.46721935  1.0
  H  H49  1  0.52584739  0.42719465  0.54013580  1.0
  H  H50  1  0.47414720  0.57279817  0.45986490  1.0
  H  H51  1  0.54257229  0.04712066  0.33771372  1.0
  H  H52  1  0.45743250  0.95288289  0.66228417  1.0
  H  H53  1  0.60856059  0.12336528  0.37627973  1.0
  H  H54  1  0.39144197  0.87663894  0.62371885  1.0
  H  H55  1  0.25668359  0.16832621  0.29345141  1.0
  H  H56  1  0.74332364  0.83167600  0.70654687  1.0
  H  H57  1  0.57916046  0.20204266  0.29680464  1.0
  H  H58  1  0.42083837  0.79796088  0.70319437  1.0
  H  H59  1  0.30364125  0.24504000  0.33338102  1.0
  H  H60  1  0.69635364  0.75496354  0.66666667  1.0
  C  C61  1  0.50766659  0.54747914  0.11525668  1.0
  C  C62  1  0.49233455  0.45251771  0.88474302  1.0
  C  C63  1  0.32358980  0.60606982  0.13931038  1.0
  C  C64  1  0.67641332  0.39392703  0.86068929  1.0
  C  C65  1  0.35455248  0.61628522  0.18535704  1.0
  C  C66  1  0.64544688  0.38371095  0.81464375  1.0
  C  C67  1  0.56908622  0.56839636  0.20845217  1.0
  C  C68  1  0.43091620  0.43160250  0.79154739  1.0
  C  C69  1  0.75197949  0.51030901  0.18381810  1.0
  C  C70  1  0.24801943  0.48968851  0.81618159  1.0
  C  C71  1  0.72227784  0.49954533  0.13781364  1.0
  C  C72  1  0.27772679  0.50045287  0.86218593  1.0
  C  C73  1  0.60568165  0.57852631  0.25732792  1.0
  C  C74  1  0.39431961  0.42147590  0.74267147  1.0
  C  C75  1  0.53600914  0.66098026  0.27555627  1.0
  C  C76  1  0.46399607  0.33902195  0.72444341  1.0
  C  C77  1  0.58070990  0.67169010  0.32139621  1.0
  C  C78  1  0.41927840  0.32830941  0.67860488  1.0
  C  C79  1  0.70004247  0.59795314  0.34877651  1.0
  C  C80  1  0.29995504  0.40204839  0.65122400  1.0
  C  C81  1  0.76767945  0.51452909  0.33172363  1.0
  C  C82  1  0.23231652  0.48547110  0.66827766  1.0
  C  C83  1  0.71791165  0.50543651  0.28607880  1.0
  C  C84  1  0.28208013  0.49456434  0.71392216  1.0
  C  C85  1  0.87545223  0.43766915  0.36312833  1.0
  C  C86  1  0.12453952  0.56233170  0.63687401  1.0
  C  C87  1  0.07606214  0.44689506  0.39226183  1.0
  C  C88  1  0.92393781  0.55310514  0.60773872  1.0
  C  C89  1  0.15554300  0.37794079  0.42554622  1.0
  C  C90  1  0.84445918  0.62205873  0.57445366  1.0
  C  C91  1  0.03474224  0.29822621  0.43097414  1.0
  C  C92  1  0.96525993  0.70177332  0.56902608  1.0
  C  C93  1  0.84363787  0.28743025  0.40067296  1.0
  C  C94  1  0.15636406  0.71256994  0.59932756  1.0
  C  C95  1  0.76687930  0.35597978  0.36681370  1.0
  C  C96  1  0.23311223  0.64402174  0.63318827  1.0
  C  C97  1  0.49881492  0.75689704  0.34183809  1.0
  C  C98  1  0.50118259  0.24310449  0.65816208  1.0
  C  C99  1  0.27056984  0.81341539  0.32844774  1.0
  C  C100  1  0.72943189  0.18658548  0.67155172  1.0
  C  C101  1  0.18247971  0.88939332  0.35083457  1.0
  C  C102  1  0.81752089  0.11061090  0.64916301  1.0
  C  C103  1  0.32056706  0.91087162  0.38720879  1.0
  C  C104  1  0.67943027  0.08913058  0.61278928  1.0
  C  C105  1  0.55242146  0.85662035  0.39978579  1.0
  C  C106  1  0.44757560  0.14338252  0.60021397  1.0
  C  C107  1  0.63948543  0.78085447  0.37724782  1.0
  C  C108  1  0.36051009  0.21914705  0.62275272  1.0
  C  C109  1  0.79513628  0.30624575  0.53944693  1.0
  C  C110  1  0.20487105  0.69375044  0.46055202  1.0
  C  C111  1  0.72118714  0.40417830  0.52349978  1.0
  C  C112  1  0.27881070  0.59581653  0.47650110  1.0
  C  C113  1  0.46062418  0.10849279  0.35350279  1.0
  C  C114  1  0.53938103  0.89150942  0.64649655  1.0
  C  C115  1  0.39580217  0.18561691  0.31712784  1.0
  C  C116  1  0.60420306  0.81438530  0.68287081  1.0
  O  O117  1  0.18524944  0.49983450  0.05558235  1.0
  O  O118  1  0.81474703  0.50016435  0.94441763  1.0
  O  O119  1  0.48328574  0.62551349  0.02828019  1.0
  O  O120  1  0.51671469  0.37448537  0.97171974  1.0
  O  O121  1  0.68802747  0.46062219  0.03935836  1.0
  O  O122  1  0.31196947  0.53937532  0.96064135  1.0
  O  O123  1  0.93708921  0.14342249  0.48559989  1.0
  O  O124  1  0.06292328  0.85657571  0.51440163  1.0
  O  O125  1  0.06719279  0.27525608  0.52320822  1.0
  O  O126  1  0.93281136  0.72474345  0.47679197  1.0
  O  O127  1  0.41461966  0.19025217  0.47657522  1.0
  O  O128  1  0.58538799  0.80974870  0.52342450  1.0
  O  O129  1  0.90451464  0.00261628  0.43108446  1.0
  O  O130  1  0.09549384  0.99738794  0.56891507  1.0
  O  O131  1  0.21580057  0.09237214  0.38088198  1.0
  O  O132  1  0.78418766  0.90763340  0.61911672  1.0
  O  O133  1  0.37829662  0.00761695  0.45768631  1.0
  O  O134  1  0.62171190  0.99238728  0.54231149  1.0
