# generated using pymatgen
data_ZnH(CO)5
_symmetry_space_group_name_H-M   'P 1'
_cell_length_a   6.79198018
_cell_length_b   15.23049952
_cell_length_c   15.22923866
_cell_angle_alpha   117.80729344
_cell_angle_beta   98.54577309
_cell_angle_gamma   98.55446431
_symmetry_Int_Tables_number   1
_chemical_formula_structural   ZnH(CO)5
_chemical_formula_sum   'Zn6 H6 C30 O30'
_cell_volume   1334.48585227
_cell_formula_units_Z   6
loop_
 _symmetry_equiv_pos_site_id
 _symmetry_equiv_pos_as_xyz
  1  'x, y, z'
loop_
 _atom_site_type_symbol
 _atom_site_label
 _atom_site_symmetry_multiplicity
 _atom_site_fract_x
 _atom_site_fract_y
 _atom_site_fract_z
 _atom_site_occupancy
  Zn  Zn0  1  0.20638048  0.32431315  0.73624621  1.0
  Zn  Zn1  1  0.88197645  0.41176715  0.67555428  1.0
  Zn  Zn2  1  0.47026489  0.26374901  0.58820719  1.0
  Zn  Zn3  1  0.79361795  0.67568682  0.26375437  1.0
  Zn  Zn4  1  0.11802457  0.58823395  0.32444553  1.0
  Zn  Zn5  1  0.52973689  0.73625285  0.41179415  1.0
  H  H6  1  0.37174396  0.02426479  0.56133019  1.0
  H  H7  1  0.34746448  0.53705112  0.97569278  1.0
  H  H8  1  0.81037986  0.43867212  0.46291425  1.0
  H  H9  1  0.62825816  0.97573537  0.43866885  1.0
  H  H10  1  0.65253543  0.46294961  0.02430780  1.0
  H  H11  1  0.18962079  0.56132926  0.53708480  1.0
  C  C12  1  0.80998531  0.17081703  0.56257651  1.0
  C  C13  1  0.63908365  0.39163336  0.82917791  1.0
  C  C14  1  0.24743336  0.43740116  0.60832258  1.0
  C  C15  1  0.19001533  0.82918172  0.43742254  1.0
  C  C16  1  0.36091703  0.60836747  0.17082420  1.0
  C  C17  1  0.75256541  0.56259842  0.39167570  1.0
  C  C18  1  0.91430560  0.08585000  0.53304138  1.0
  C  C19  1  0.82842318  0.44714147  0.91413111  1.0
  C  C20  1  0.38125353  0.46691657  0.55282720  1.0
  C  C21  1  0.08569244  0.91415025  0.46695843  1.0
  C  C22  1  0.17157636  0.55285691  0.08586871  1.0
  C  C23  1  0.61874822  0.53308123  0.44717108  1.0
  C  C24  1  0.13010852  0.10099460  0.56916723  1.0
  C  C25  1  0.02910053  0.46809233  0.89896415  1.0
  C  C26  1  0.56090432  0.43079889  0.53182000  1.0
  C  C27  1  0.86989063  0.89900536  0.43083181  1.0
  C  C28  1  0.97089751  0.53190791  0.10103566  1.0
  C  C29  1  0.43909633  0.56920052  0.46817905  1.0
  C  C30  1  0.20773528  0.01374524  0.53450239  1.0
  C  C31  1  0.19396302  0.52072460  0.98622960  1.0
  C  C32  1  0.67319743  0.46550556  0.47922588  1.0
  C  C33  1  0.79226536  0.98625482  0.46549666  1.0
  C  C34  1  0.80603653  0.47927378  0.01377022  1.0
  C  C35  1  0.32680244  0.53449439  0.52077163  1.0
  C  C36  1  0.15352558  0.26810206  0.92070998  1.0
  C  C37  1  0.88508332  0.65219575  0.73147108  1.0
  C  C38  1  0.23332247  0.07963360  0.34792491  1.0
  C  C39  1  0.84647611  0.73190146  0.07930900  1.0
  C  C40  1  0.11491911  0.34779799  0.26852260  1.0
  C  C41  1  0.76668068  0.92036407  0.65206724  1.0
  O  O42  1  0.91712630  0.26236998  0.62718095  1.0
  O  O43  1  0.65468118  0.36482240  0.73764275  1.0
  O  O44  1  0.29005964  0.37279481  0.63528339  1.0
  O  O45  1  0.08287103  0.73763028  0.37282040  1.0
  O  O46  1  0.34531502  0.63518208  0.26235936  1.0
  O  O47  1  0.70993990  0.62720553  0.36471642  1.0
  O  O48  1  0.61772637  0.15130499  0.52386964  1.0
  O  O49  1  0.46641341  0.37223910  0.84867228  1.0
  O  O50  1  0.09396808  0.47616550  0.62755828  1.0
  O  O51  1  0.38227581  0.84869661  0.47613248  1.0
  O  O52  1  0.53358724  0.62775834  0.15132677  1.0
  O  O53  1  0.90603147  0.52383486  0.37244154  1.0
  O  O54  1  0.26472785  0.19276588  0.63319808  1.0
  O  O55  1  0.07198669  0.44025765  0.80716314  1.0
  O  O56  1  0.63153982  0.36672627  0.55952959  1.0
  O  O57  1  0.73527356  0.80723430  0.36680250  1.0
  O  O58  1  0.92801472  0.55974318  0.19283744  1.0
  O  O59  1  0.36846121  0.63327484  0.44047023  1.0
  O  O60  1  0.23509070  0.29313767  0.00518097  1.0
  O  O61  1  0.94104409  0.71191456  0.70665504  1.0
  O  O62  1  0.22966677  0.99511053  0.28837282  1.0
  O  O63  1  0.76489219  0.70686013  0.99482422  1.0
  O  O64  1  0.05895792  0.28807540  0.29333481  1.0
  O  O65  1  0.77034946  0.00489839  0.71162469  1.0
  O  O66  1  0.06880358  0.24097140  0.83554451  1.0
  O  O67  1  0.82806003  0.59397909  0.75849575  1.0
  O  O68  1  0.23443956  0.16487097  0.40601329  1.0
  O  O69  1  0.93119008  0.75903272  0.16446143  1.0
  O  O70  1  0.17194245  0.40601806  0.24150100  1.0
  O  O71  1  0.76555588  0.83513275  0.59398729  1.0
