# generated using pymatgen
data_AlH9C16O5
_symmetry_space_group_name_H-M   'P 1'
_cell_length_a   6.65054761
_cell_length_b   20.22215648
_cell_length_c   22.96212932
_cell_angle_alpha   86.40199983
_cell_angle_beta   89.48414535
_cell_angle_gamma   89.09031375
_symmetry_Int_Tables_number   1
_chemical_formula_structural   AlH9C16O5
_chemical_formula_sum   'Al4 H36 C64 O20'
_cell_volume   3081.56573677
_cell_formula_units_Z   4
loop_
 _symmetry_equiv_pos_site_id
 _symmetry_equiv_pos_as_xyz
  1  'x, y, z'
loop_
 _atom_site_type_symbol
 _atom_site_label
 _atom_site_symmetry_multiplicity
 _atom_site_fract_x
 _atom_site_fract_y
 _atom_site_fract_z
 _atom_site_occupancy
  Al  Al0  1  0.79258626  0.24871982  0.75083119  1.0
  Al  Al1  1  0.20741073  0.75127855  0.24916529  1.0
  Al  Al2  1  0.29286547  0.25017678  0.74902870  1.0
  Al  Al3  1  0.70713754  0.74981994  0.25096995  1.0
  H  H4  1  0.69067830  0.45917740  0.95462615  1.0
  H  H5  1  0.30933236  0.54081670  0.04536726  1.0
  H  H6  1  0.19998312  0.04902910  0.54754897  1.0
  H  H7  1  0.80001076  0.95096821  0.45245580  1.0
  H  H8  1  0.66357222  0.53954521  0.03273841  1.0
  H  H9  1  0.33643247  0.46044860  0.96725239  1.0
  H  H10  1  0.15638865  0.96983380  0.46949463  1.0
  H  H11  1  0.84358742  0.03015428  0.53050842  1.0
  H  H12  1  0.74950124  0.34310183  0.58594588  1.0
  H  H13  1  0.25050905  0.65690248  0.41405712  1.0
  H  H14  1  0.80788591  0.14941955  0.92043968  1.0
  H  H15  1  0.19211404  0.85057913  0.07955941  1.0
  H  H16  1  0.30249041  0.42492314  0.64068374  1.0
  H  H17  1  0.69752746  0.57507976  0.35931794  1.0
  H  H18  1  0.25628002  0.08094453  0.85207141  1.0
  H  H19  1  0.74372444  0.91905519  0.14792680  1.0
  H  H20  1  0.41719012  0.61183886  0.50419274  1.0
  H  H21  1  0.58279891  0.38817101  0.49581639  1.0
  H  H22  1  0.05961394  0.90002253  0.98605954  1.0
  H  H23  1  0.94037843  0.09997803  0.01394130  1.0
  H  H24  1  0.59354368  0.56956431  0.58583560  1.0
  H  H25  1  0.43271654  0.53843006  0.64331555  1.0
  H  H26  1  0.57616671  0.48295921  0.60254217  1.0
  H  H27  1  0.40643620  0.43044988  0.41417572  1.0
  H  H28  1  0.42382370  0.51705496  0.39746914  1.0
  H  H29  1  0.56725445  0.46158042  0.35669273  1.0
  H  H30  1  0.91553089  0.94637306  0.90047795  1.0
  H  H31  1  0.96026486  0.03169676  0.88349977  1.0
  H  H32  1  0.09866857  0.97133794  0.84676443  1.0
  H  H33  1  0.08446748  0.05362738  0.09952419  1.0
  H  H34  1  0.90133582  0.02866203  0.15323727  1.0
  H  H35  1  0.03973197  0.96830681  0.11650019  1.0
  H  H36  1  0.54162217  0.33715167  0.75326203  1.0
  H  H37  1  0.45837028  0.66284712  0.24673576  1.0
  H  H38  1  0.04799835  0.16259930  0.74293385  1.0
  H  H39  1  0.95199565  0.83739813  0.25706219  1.0
  C  C40  1  0.54781688  0.16774201  0.83065402  1.0
  C  C41  1  0.45218908  0.83225888  0.16934156  1.0
  C  C42  1  0.03132702  0.33094846  0.66879261  1.0
  C  C43  1  0.96866980  0.66905399  0.33120910  1.0
  C  C44  1  0.54233902  0.17285385  0.67352549  1.0
  C  C45  1  0.45766541  0.82714741  0.32647184  1.0
  C  C46  1  0.04500301  0.32592337  0.82642127  1.0
  C  C47  1  0.95499259  0.67406784  0.17357870  1.0
  C  C48  1  0.81013245  0.52192576  0.01819140  1.0
  C  C49  1  0.18987664  0.47807302  0.98179895  1.0
  C  C50  1  0.30609615  0.98328872  0.48305309  1.0
  C  C51  1  0.69387527  0.01670861  0.51694516  1.0
  C  C52  1  0.98494013  0.54526647  0.04414222  1.0
  C  C53  1  0.01506743  0.45473271  0.95584944  1.0
  C  C54  1  0.47582997  0.95545130  0.45587344  1.0
  C  C55  1  0.52416408  0.04454081  0.54412784  1.0
  C  C56  1  0.17501607  0.52261526  0.02518591  1.0
  C  C57  1  0.82499612  0.47738118  0.97480226  1.0
  C  C58  1  0.66991149  0.97284868  0.47359775  1.0
  C  C59  1  0.33008409  0.02714463  0.52640048  1.0
  C  C60  1  0.97135012  0.59052266  0.08864492  1.0
  C  C61  1  0.02866214  0.40946754  0.91134761  1.0
  C  C62  1  0.45628433  0.91077515  0.41130773  1.0
  C  C63  1  0.54372785  0.08921012  0.58869877  1.0
  C  C64  1  0.03700532  0.37082502  0.87273412  1.0
  C  C65  1  0.96298729  0.62916465  0.12726673  1.0
  C  C66  1  0.54835419  0.12774715  0.62736670  1.0
  C  C67  1  0.45164284  0.87225150  0.37262584  1.0
  C  C68  1  0.86677229  0.37984946  0.57862059  1.0
  C  C69  1  0.13323338  0.62015758  0.42138590  1.0
  C  C70  1  0.68188288  0.11551308  0.92459292  1.0
  C  C71  1  0.31812152  0.88448800  0.07540703  1.0
  C  C72  1  0.02721729  0.38003318  0.61756198  1.0
  C  C73  1  0.97279299  0.61997212  0.38244102  1.0
  C  C74  1  0.53338341  0.11883283  0.88178787  1.0
  C  C75  1  0.46661647  0.88116879  0.11821166  1.0
  C  C76  1  0.17918060  0.42691892  0.60973910  1.0
  C  C77  1  0.82083580  0.57308089  0.39026433  1.0
  C  C78  1  0.36998425  0.07587974  0.88590503  1.0
  C  C79  1  0.63000960  0.92412291  0.11409406  1.0
  C  C80  1  0.17083888  0.47619661  0.56391859  1.0
  C  C81  1  0.82918053  0.52380372  0.43608440  1.0
  C  C82  1  0.35393595  0.02723008  0.93189714  1.0
  C  C83  1  0.64605792  0.97277103  0.06810282  1.0
  C  C84  1  0.00760680  0.47571301  0.52363689  1.0
  C  C85  1  0.99240352  0.52429139  0.47636480  1.0
  C  C86  1  0.50501269  0.02401463  0.97612004  1.0
  C  C87  1  0.49497968  0.97598651  0.02387949  1.0
  C  C88  1  0.85643788  0.42632522  0.53078225  1.0
  C  C89  1  0.14355730  0.57368096  0.46922295  1.0
  C  C90  1  0.66860829  0.06919889  0.97255249  1.0
  C  C91  1  0.33137653  0.93080431  0.02744617  1.0
  C  C92  1  0.32034771  0.52738417  0.55655986  1.0
  C  C93  1  0.67964903  0.47262064  0.44344359  1.0
  C  C94  1  0.19079531  0.98060617  0.93581807  1.0
  C  C95  1  0.80920004  0.01939589  0.06418233  1.0
  C  C96  1  0.30374303  0.57351127  0.51051343  1.0
  C  C97  1  0.69625359  0.42649673  0.48949395  1.0
  C  C98  1  0.18353820  0.93488180  0.98235719  1.0
  C  C99  1  0.81645719  0.06511937  0.01764190  1.0
  C  C100  1  0.48948642  0.52978501  0.59920291  1.0
  C  C101  1  0.51050555  0.47022616  0.40080884  1.0
  C  C102  1  0.03313951  0.98254469  0.88930446  1.0
  C  C103  1  0.96685880  0.01745771  0.11069812  1.0
  O  O104  1  0.37076144  0.19848806  0.68420062  1.0
  O  O105  1  0.62923553  0.80151242  0.31579410  1.0
  O  O106  1  0.87864605  0.31480060  0.80197716  1.0
  O  O107  1  0.12136151  0.68519688  0.19801756  1.0
  O  O108  1  0.71875449  0.19299691  0.81850579  1.0
  O  O109  1  0.28124400  0.80700146  0.18149068  1.0
  O  O110  1  0.19843341  0.32011435  0.69495224  1.0
  O  O111  1  0.80156789  0.67988791  0.30505208  1.0
  O  O112  1  0.70659482  0.18226196  0.69970025  1.0
  O  O113  1  0.29340823  0.81773279  0.30029840  1.0
  O  O114  1  0.21712937  0.30216630  0.81376874  1.0
  O  O115  1  0.78286628  0.69782025  0.18623429  1.0
  O  O116  1  0.86467464  0.30423326  0.68331471  1.0
  O  O117  1  0.13532986  0.69576448  0.31668350  1.0
  O  O118  1  0.38682547  0.17987069  0.80188689  1.0
  O  O119  1  0.61318374  0.82012199  0.19810565  1.0
  O  O120  1  0.54164639  0.28997237  0.74837087  1.0
  O  O121  1  0.45835359  0.71002535  0.25162778  1.0
  O  O122  1  0.04523595  0.20889592  0.75140318  1.0
  O  O123  1  0.95476402  0.79110397  0.24859285  1.0
