# generated using pymatgen
data_ZnH32C30NO7
_symmetry_space_group_name_H-M   'P 1'
_cell_length_a   10.73274994
_cell_length_b   18.20899763
_cell_length_c   19.48594299
_cell_angle_alpha   89.03882435
_cell_angle_beta   89.30578057
_cell_angle_gamma   74.27625547
_symmetry_Int_Tables_number   1
_chemical_formula_structural   ZnH32C30NO7
_chemical_formula_sum   'Zn2 H64 C60 N2 O14'
_cell_volume   3665.05543728
_cell_formula_units_Z   2
loop_
 _symmetry_equiv_pos_site_id
 _symmetry_equiv_pos_as_xyz
  1  'x, y, z'
loop_
 _atom_site_type_symbol
 _atom_site_label
 _atom_site_symmetry_multiplicity
 _atom_site_fract_x
 _atom_site_fract_y
 _atom_site_fract_z
 _atom_site_occupancy
  Zn  Zn0  1  0.06129809  0.41815229  0.49952399  1.0
  Zn  Zn1  1  0.93152353  0.58098060  0.50176029  1.0
  H  H2  1  0.59181837  0.54829154  0.51425436  1.0
  H  H3  1  0.41325149  0.43858346  0.50129224  1.0
  H  H4  1  0.27950257  0.16326584  0.38939967  1.0
  H  H5  1  0.85056732  0.86579720  0.54401717  1.0
  H  H6  1  0.41331689  0.18807574  0.59382619  1.0
  H  H7  1  0.52275661  0.80215438  0.46091203  1.0
  H  H8  1  0.57217259  0.10320292  0.56746128  1.0
  H  H9  1  0.46141832  0.90873073  0.42651058  1.0
  H  H10  1  0.65437250  0.37478606  0.49192448  1.0
  H  H11  1  0.34822664  0.61291888  0.51810977  1.0
  H  H12  1  0.91453210  0.61757431  0.14625571  1.0
  H  H13  1  0.93523828  0.36850267  0.84215483  1.0
  H  H14  1  0.91385808  0.38149025  0.17113567  1.0
  H  H15  1  0.85555835  0.61417031  0.84188596  1.0
  H  H16  1  0.96156108  0.38918592  0.29503205  1.0
  H  H17  1  0.88560697  0.61171109  0.71526994  1.0
  H  H18  1  0.02862120  0.38330738  0.06636225  1.0
  H  H19  1  0.74764365  0.60153226  0.93670879  1.0
  H  H20  1  0.02420041  0.38031910  0.94015251  1.0
  H  H21  1  0.75512145  0.60539333  0.06303300  1.0
  H  H22  1  0.13643575  0.29641566  0.39870086  1.0
  H  H23  1  0.96967576  0.72740244  0.54283809  1.0
  H  H24  1  0.47515373  0.29379062  0.62429640  1.0
  H  H25  1  0.35727964  0.27458403  0.68295261  1.0
  H  H26  1  0.38817158  0.43380353  0.64866776  1.0
  H  H27  1  0.28010114  0.41239077  0.71011293  1.0
  H  H28  1  0.47304842  0.33276928  0.77834345  1.0
  H  H29  1  0.48063392  0.42835378  0.76755054  1.0
  H  H30  1  0.57948371  0.35580081  0.71609265  1.0
  H  H31  1  0.72695136  0.66220148  0.35130979  1.0
  H  H32  1  0.56134105  0.71692783  0.36220784  1.0
  H  H33  1  0.66113621  0.54262179  0.37093610  1.0
  H  H34  1  0.49775633  0.59551511  0.38166280  1.0
  H  H35  1  0.49647505  0.64697075  0.25949010  1.0
  H  H36  1  0.53634314  0.54581106  0.26163269  1.0
  H  H37  1  0.66024041  0.59246098  0.24899988  1.0
  H  H38  1  0.79875172  0.91259551  0.67463397  1.0
  H  H39  1  0.66286154  0.88614510  0.64244489  1.0
  H  H40  1  0.65469066  0.03733684  0.71248891  1.0
  H  H41  1  0.51832150  0.01339058  0.67901815  1.0
  H  H42  1  0.55359170  0.90127474  0.76178734  1.0
  H  H43  1  0.53410366  0.98787774  0.80638672  1.0
  H  H44  1  0.69064249  0.92459484  0.79565403  1.0
  H  H45  1  0.10690855  0.08433627  0.40697612  1.0
  H  H46  1  0.17077197  0.08615952  0.49049221  1.0
  H  H47  1  0.14833340  0.94263445  0.41657012  1.0
  H  H48  1  0.21349877  0.94335123  0.49948547  1.0
  H  H49  1  0.99738698  0.02553710  0.54219304  1.0
  H  H50  1  0.98001245  0.93987553  0.50685453  1.0
  H  H51  1  0.93195728  0.02629052  0.45897350  1.0
  H  H52  1  0.14555753  0.64679480  0.25420443  1.0
  H  H53  1  0.12189540  0.59319734  0.32861685  1.0
  H  H54  1  0.00876896  0.76564196  0.30997762  1.0
  H  H55  1  0.98901463  0.71014727  0.38294591  1.0
  H  H56  1  0.22715075  0.67468260  0.40491114  1.0
  H  H57  1  0.16579939  0.77531676  0.40184006  1.0
  H  H58  1  0.25329786  0.72679871  0.33040236  1.0
  H  H59  1  0.84886379  0.37858349  0.63474552  1.0
  H  H60  1  0.80537512  0.32306017  0.70314541  1.0
  H  H61  1  0.02978133  0.27148277  0.60064122  1.0
  H  H62  1  0.00218078  0.21547935  0.67163168  1.0
  H  H63  1  0.78030813  0.21975278  0.62200510  1.0
  H  H64  1  0.90881703  0.17673493  0.56506896  1.0
  H  H65  1  0.81789168  0.27228012  0.54995862  1.0
  C  C66  1  0.96172854  0.49634579  0.63248620  1.0
  C  C67  1  0.98638253  0.50474349  0.36678501  1.0
  C  C68  1  0.96380375  0.50612172  0.29080667  1.0
  C  C69  1  0.93122313  0.49070116  0.70752155  1.0
  C  C70  1  0.96528161  0.43087519  0.03809445  1.0
  C  C71  1  0.81124615  0.55389538  0.96481421  1.0
  C  C72  1  0.96254908  0.42920353  0.96684831  1.0
  C  C73  1  0.81502977  0.55601213  0.03609860  1.0
  C  C74  1  0.88741281  0.49118797  0.92842475  1.0
  C  C75  1  0.89401185  0.49508988  0.07415763  1.0
  C  C76  1  0.20193999  0.26987482  0.43993679  1.0
  C  C77  1  0.87028894  0.74778071  0.52473216  1.0
  C  C78  1  0.28035418  0.19585781  0.43542625  1.0
  C  C79  1  0.80325109  0.82436158  0.52551191  1.0
  C  C80  1  0.35697002  0.16319898  0.49215298  1.0
  C  C81  1  0.67392004  0.84762497  0.50273566  1.0
  C  C82  1  0.35767710  0.21026037  0.54822906  1.0
  C  C83  1  0.62250865  0.79025663  0.47791527  1.0
  C  C84  1  0.28238412  0.28622098  0.54652852  1.0
  C  C85  1  0.69849067  0.71484600  0.47557037  1.0
  C  C86  1  0.54303202  0.06072970  0.53749067  1.0
  C  C87  1  0.48585778  0.94994691  0.46001052  1.0
  C  C88  1  0.20101236  0.54903544  0.50684559  1.0
  C  C89  1  0.80295711  0.43834759  0.49638046  1.0
  C  C90  1  0.61963389  0.98584198  0.54372559  1.0
  C  C91  1  0.40543206  0.02401698  0.45629750  1.0
  C  C92  1  0.59440776  0.92784448  0.50291127  1.0
  C  C93  1  0.43474849  0.08269596  0.49447381  1.0
  C  C94  1  0.33473340  0.55609588  0.51197758  1.0
  C  C95  1  0.66892937  0.43123687  0.49884600  1.0
  C  C96  1  0.43592881  0.49312239  0.50771190  1.0
  C  C97  1  0.56881719  0.49383774  0.50832189  1.0
  C  C98  1  0.94847576  0.57121166  0.24767974  1.0
  C  C99  1  0.94368822  0.42160918  0.74482348  1.0
  C  C100  1  0.92092245  0.56692410  0.17814275  1.0
  C  C101  1  0.92529883  0.42316069  0.81600532  1.0
  C  C102  1  0.90996382  0.49913113  0.14898631  1.0
  C  C103  1  0.89482373  0.49137798  0.85275833  1.0
  C  C104  1  0.92456834  0.43461521  0.19203295  1.0
  C  C105  1  0.87751469  0.56000327  0.81515111  1.0
  C  C106  1  0.95112640  0.43873140  0.26119144  1.0
  C  C107  1  0.89519420  0.55894886  0.74448552  1.0
  C  C108  1  0.37915095  0.31800810  0.64814549  1.0
  C  C109  1  0.37614602  0.39042555  0.68624735  1.0
  C  C110  1  0.48300126  0.37590713  0.73998291  1.0
  C  C111  1  0.63350365  0.66287928  0.37566901  1.0
  C  C112  1  0.58853122  0.59479942  0.35447019  1.0
  C  C113  1  0.56940936  0.59515727  0.27684168  1.0
  C  C114  1  0.70139128  0.93509425  0.65312559  1.0
  C  C115  1  0.61340486  0.98932689  0.70293395  1.0
  C  C116  1  0.59704174  0.94854089  0.77034734  1.0
  C  C117  1  0.17525470  0.05069754  0.44474275  1.0
  C  C118  1  0.14141418  0.97690560  0.46318903  1.0
  C  C119  1  0.00552068  0.99303399  0.49452963  1.0
  C  C120  1  0.07908003  0.64455266  0.29754200  1.0
  C  C121  1  0.05636560  0.71510143  0.34129000  1.0
  C  C122  1  0.18287889  0.72341723  0.37107522  1.0
  C  C123  1  0.88674752  0.33156107  0.67140784  1.0
  C  C124  1  0.95397047  0.25920545  0.63370674  1.0
  C  C125  1  0.85958662  0.23042911  0.59040071  1.0
  N  N126  1  0.20025340  0.31417871  0.49468355  1.0
  N  N127  1  0.81942907  0.69337323  0.50028593  1.0
  O  O128  1  0.01683183  0.43498927  0.60171266  1.0
  O  O129  1  0.94821344  0.56800901  0.39805056  1.0
  O  O130  1  0.93183704  0.56333382  0.60573711  1.0
  O  O131  1  0.03914138  0.44002534  0.39409236  1.0
  O  O132  1  0.18993045  0.48176777  0.50041249  1.0
  O  O133  1  0.81581028  0.50567117  0.49917261  1.0
  O  O134  1  0.10708404  0.60970777  0.50829427  1.0
  O  O135  1  0.89642819  0.37763238  0.49208283  1.0
  O  O136  1  0.28295223  0.33737105  0.59497800  1.0
  O  O137  1  0.65190578  0.65891962  0.45007437  1.0
  O  O138  1  0.72167018  0.97221254  0.58908744  1.0
  O  O139  1  0.30176858  0.03719355  0.41229314  1.0
  O  O140  1  0.95676167  0.64113355  0.26942359  1.0
  O  O141  1  0.97913117  0.35014353  0.71652966  1.0
