# generated using pymatgen
data_Al3H25C48S3Cl6O23
_symmetry_space_group_name_H-M   'P 1'
_cell_length_a   13.62133329
_cell_length_b   14.03273757
_cell_length_c   27.05182072
_cell_angle_alpha   90.68100070
_cell_angle_beta   91.08348756
_cell_angle_gamma   118.22353090
_symmetry_Int_Tables_number   1
_chemical_formula_structural   Al3H25C48S3Cl6O23
_chemical_formula_sum   'Al6 H50 C96 S6 Cl12 O46'
_cell_volume   4553.96031719
_cell_formula_units_Z   2
loop_
 _symmetry_equiv_pos_site_id
 _symmetry_equiv_pos_as_xyz
  1  'x, y, z'
loop_
 _atom_site_type_symbol
 _atom_site_label
 _atom_site_symmetry_multiplicity
 _atom_site_fract_x
 _atom_site_fract_y
 _atom_site_fract_z
 _atom_site_occupancy
  Al  Al0  1  0.15987959  0.56403778  0.49405114  1.0
  Al  Al1  1  0.37929744  0.79529148  0.49621791  1.0
  Al  Al2  1  0.40976377  0.59735978  0.49767794  1.0
  Al  Al3  1  0.17273051  0.07544298  0.98640186  1.0
  Al  Al4  1  0.92903649  0.87199121  0.98323439  1.0
  Al  Al5  1  0.94639143  0.09291030  0.98518705  1.0
  H  H6  1  0.78683980  0.78909668  0.22495062  1.0
  H  H7  1  0.51676088  0.63773552  0.62999142  1.0
  H  H8  1  0.13210977  0.49935401  0.63356424  1.0
  H  H9  1  0.35998829  0.88338203  0.62823730  1.0
  H  H10  1  0.55210967  0.60423231  0.80455146  1.0
  H  H11  1  0.03117183  0.45072412  0.80392995  1.0
  H  H12  1  0.40958583  0.98139035  0.80093812  1.0
  H  H13  1  0.49838597  0.57007210  0.71515947  1.0
  H  H14  1  0.06700823  0.51309660  0.71728510  1.0
  H  H15  1  0.43895072  0.95347104  0.71249734  1.0
  H  H16  1  0.87705770  0.06904009  0.84355206  1.0
  H  H17  1  0.99937147  0.26498166  0.21291103  1.0
  H  H18  1  0.17974020  0.12003656  0.84100925  1.0
  H  H19  1  0.92597999  0.81478588  0.83769823  1.0
  H  H20  1  0.92818523  0.11840718  0.75391136  1.0
  H  H21  1  0.19511653  0.07586158  0.75047763  1.0
  H  H22  1  0.86176616  0.79876513  0.74757667  1.0
  H  H23  1  0.67779132  0.71258554  0.29152673  1.0
  H  H24  1  0.01962423  0.27039155  0.29552168  1.0
  H  H25  1  0.32195456  0.88158402  0.27646163  1.0
  H  H26  1  0.79170746  0.01295862  0.30933870  1.0
  H  H27  1  0.21786125  0.17265181  0.29228286  1.0
  H  H28  1  0.30596067  0.90221026  0.19426335  1.0
  H  H29  1  0.06274611  0.89541235  0.28821021  1.0
  H  H30  1  0.82836986  0.90815180  0.30119402  1.0
  H  H31  1  0.07632250  0.14438865  0.29229166  1.0
  H  H32  1  0.20932121  0.96855148  0.28216655  1.0
  H  H33  1  0.88309369  0.97635964  0.22391857  1.0
  H  H34  1  0.07486471  0.12952423  0.20669923  1.0
  H  H35  1  0.18337483  0.97182314  0.19807321  1.0
  H  H36  1  0.48750269  0.82328055  0.26560499  1.0
  H  H37  1  0.32055784  0.47894821  0.28719816  1.0
  H  H38  1  0.06211910  0.62107586  0.27366901  1.0
  H  H39  1  0.60737450  0.96248597  0.18787269  1.0
  H  H40  1  0.53213855  0.82026911  0.18567976  1.0
  H  H41  1  0.29818501  0.47181436  0.20221362  1.0
  H  H42  1  0.04417480  0.62507913  0.18966877  1.0
  H  H43  1  0.79457642  0.16107909  0.62990936  1.0
  H  H44  1  0.49071531  0.34451220  0.66890299  1.0
  H  H45  1  0.87255688  0.52317821  0.66211914  1.0
  H  H46  1  0.59538512  0.11762720  0.23152971  1.0
  H  H47  1  0.54118784  0.50264641  0.24468824  1.0
  H  H48  1  0.98137502  0.64508865  0.36453289  1.0
  H  H49  1  0.35018842  0.37821051  0.19749602  1.0
  H  H50  1  0.95426113  0.68221242  0.19489124  1.0
  H  H51  1  0.65975059  0.73394540  0.87359721  1.0
  H  H52  1  0.04662728  0.33755939  0.87125143  1.0
  H  H53  1  0.27791508  0.95515609  0.86962832  1.0
  H  H54  1  0.98267062  0.43472028  0.46405172  1.0
  H  H55  1  0.35671273  0.17605678  0.01631341  1.0
  C  C56  1  0.25800393  0.44157438  0.43460862  1.0
  C  C57  1  0.74265388  0.90135911  0.14627221  1.0
  C  C58  1  0.15422300  0.28966726  0.14679509  1.0
  C  C59  1  0.11825670  0.81056408  0.13514397  1.0
  C  C60  1  0.61739411  0.83292343  0.34235350  1.0
  C  C61  1  0.21121799  0.33171555  0.35040032  1.0
  C  C62  1  0.15809663  0.79083754  0.33767529  1.0
  C  C63  1  0.58220481  0.80676008  0.38362631  1.0
  C  C64  1  0.23183322  0.36946357  0.39224244  1.0
  C  C65  1  0.17681114  0.77977346  0.38070752  1.0
  C  C66  1  0.07950132  0.89557437  0.91107425  1.0
  C  C67  1  0.20968319  0.74837410  0.42614971  1.0
  C  C68  1  0.80459854  0.92795746  0.91657517  1.0
  C  C69  1  0.10238363  0.19292817  0.91331905  1.0
  C  C70  1  0.08929950  0.87838385  0.04875801  1.0
  C  C71  1  0.81589095  0.93003158  0.05473083  1.0
  C  C72  1  0.10867340  0.21138083  0.05521989  1.0
  C  C73  1  0.56655750  0.71992649  0.64470476  1.0
  C  C74  1  0.16364542  0.44710467  0.64862586  1.0
  C  C75  1  0.27668998  0.85038751  0.64299993  1.0
  C  C76  1  0.59840374  0.73730333  0.69487535  1.0
  C  C77  1  0.14023953  0.41093694  0.69707695  1.0
  C  C78  1  0.52332413  0.77268675  0.42923447  1.0
  C  C79  1  0.26279471  0.87214051  0.69220249  1.0
  C  C80  1  0.66274795  0.77656560  0.79673231  1.0
  C  C81  1  0.09737043  0.33755836  0.79575668  1.0
  C  C82  1  0.22899438  0.90718037  0.79264254  1.0
  C  C83  1  0.25459348  0.47426464  0.56942383  1.0
  C  C84  1  0.21458002  0.75441821  0.56314818  1.0
  C  C85  1  0.53407870  0.77388482  0.56349228  1.0
  C  C86  1  0.58613507  0.66999135  0.77837977  1.0
  C  C87  1  0.06856393  0.41746222  0.77822331  1.0
  C  C88  1  0.33907741  0.94203247  0.77479371  1.0
  C  C89  1  0.60068069  0.88960413  0.20509425  1.0
  C  C90  1  0.55631542  0.65104961  0.72931519  1.0
  C  C91  1  0.08827290  0.45189810  0.73067202  1.0
  C  C92  1  0.35535759  0.92632695  0.72633924  1.0
  C  C93  1  0.69375196  0.79893779  0.84708613  1.0
  C  C94  1  0.08216843  0.30359308  0.84498821  1.0
  C  C95  1  0.20899530  0.91831803  0.84257951  1.0
  C  C96  1  0.76715753  0.90437897  0.86374377  1.0
  C  C97  1  0.11526452  0.22849136  0.86104534  1.0
  C  C98  1  0.09996912  0.88143514  0.85838342  1.0
  C  C99  1  0.66067889  0.91447413  0.63137371  1.0
  C  C100  1  0.28814411  0.39426237  0.21549905  1.0
  C  C101  1  0.26782597  0.34811426  0.63672625  1.0
  C  C102  1  0.07570927  0.74116204  0.63023187  1.0
  C  C103  1  0.71860605  0.93095075  0.67743146  1.0
  C  C104  1  0.22050875  0.28849857  0.67980164  1.0
  C  C105  1  0.05935813  0.78601414  0.67447687  1.0
  C  C106  1  0.67628616  0.84378968  0.71166470  1.0
  C  C107  1  0.16740627  0.32947598  0.71293348  1.0
  C  C108  1  0.15279991  0.84027715  0.70828382  1.0
  C  C109  1  0.81947778  0.02618493  0.69409914  1.0
  C  C110  1  0.21623461  0.18693238  0.69353204  1.0
  C  C111  1  0.03591379  0.69192423  0.20685340  1.0
  C  C112  1  0.95702174  0.78499468  0.68908143  1.0
  C  C113  1  0.85164846  0.04595025  0.74287219  1.0
  C  C114  1  0.19667230  0.15186160  0.74107014  1.0
  C  C115  1  0.93983697  0.80117179  0.73734229  1.0
  C  C116  1  0.79145656  0.96806850  0.77938035  1.0
  C  C117  1  0.16880064  0.20846430  0.77787868  1.0
  C  C118  1  0.02650163  0.83028746  0.77424257  1.0
  C  C119  1  0.64072832  0.74858803  0.26655721  1.0
  C  C120  1  0.09543002  0.33654416  0.28077887  1.0
  C  C121  1  0.25275047  0.80763992  0.26057666  1.0
  C  C122  1  0.57368651  0.88596781  0.26041790  1.0
  C  C123  1  0.71012660  0.86275000  0.76248006  1.0
  C  C124  1  0.14382200  0.29145805  0.76202907  1.0
  C  C125  1  0.13630163  0.85986659  0.75829829  1.0
  C  C126  1  0.81644223  0.98845150  0.83012362  1.0
  C  C127  1  0.15727027  0.18039857  0.82774531  1.0
  C  C128  1  0.00945410  0.83894153  0.82457478  1.0
  C  C129  1  0.59139158  0.80683547  0.61362191  1.0
  C  C130  1  0.23106466  0.42104533  0.61916213  1.0
  C  C131  1  0.18548460  0.78122091  0.61282554  1.0
  C  C132  1  0.77528600  0.94156444  0.28673619  1.0
  C  C133  1  0.30281326  0.39924658  0.27223913  1.0
  C  C134  1  0.15902704  0.19882371  0.27809143  1.0
  C  C135  1  0.13338672  0.89573571  0.26955996  1.0
  C  C136  1  0.80272934  0.97155117  0.23226683  1.0
  C  C137  1  0.15412942  0.19492310  0.22119416  1.0
  C  C138  1  0.11970452  0.89645752  0.21320841  1.0
  C  C139  1  0.76977088  0.91419600  0.10331962  1.0
  C  C140  1  0.13666858  0.26382769  0.10325100  1.0
  C  C141  1  0.10878206  0.83305715  0.09279493  1.0
  C  C142  1  0.65140206  0.85457741  0.29126096  1.0
  C  C143  1  0.19442084  0.31511886  0.29714483  1.0
  C  C144  1  0.04571826  0.68793806  0.26355776  1.0
  C  C145  1  0.14374124  0.79483467  0.28460900  1.0
  C  C146  1  0.70210767  0.77646759  0.21709358  1.0
  C  C147  1  0.08229144  0.33016889  0.22317578  1.0
  C  C148  1  0.24561891  0.81914476  0.20349544  1.0
  C  C149  1  0.71063393  0.88469798  0.19767762  1.0
  C  C150  1  0.17103917  0.30455418  0.20007719  1.0
  C  C151  1  0.12723455  0.80020267  0.18804490  1.0
  S  S152  1  0.64802919  0.02370002  0.60156208  1.0
  S  S153  1  0.39180246  0.35390787  0.61060667  1.0
  S  S154  1  0.96455105  0.61693892  0.60312556  1.0
  S  S155  1  0.56702879  0.00304517  0.28841318  1.0
  S  S156  1  0.42679040  0.38841871  0.29497341  1.0
  S  S157  1  0.91289079  0.65051219  0.29279325  1.0
  Cl  Cl158  1  0.49706856  0.65106738  0.25933664  1.0
  Cl  Cl159  1  0.82055473  0.10362236  0.21754810  1.0
  Cl  Cl160  1  0.25868997  0.16540982  0.19599323  1.0
  Cl  Cl161  1  0.99154800  0.89504994  0.19428082  1.0
  Cl  Cl162  1  0.10445148  0.45507416  0.30914650  1.0
  Cl  Cl163  1  0.28177300  0.70234912  0.27895910  1.0
  Cl  Cl164  1  0.64627096  0.66847093  0.17261919  1.0
  Cl  Cl165  1  0.08899134  0.44750444  0.19516521  1.0
  Cl  Cl166  1  0.28386452  0.73586587  0.16705476  1.0
  Cl  Cl167  1  0.91524291  0.10786154  0.65107592  1.0
  Cl  Cl168  1  0.21652969  0.09959521  0.64810965  1.0
  Cl  Cl169  1  0.86372515  0.78133924  0.64404649  1.0
  O  O170  1  0.15754482  0.64887082  0.43539441  1.0
  O  O171  1  0.14858256  0.66907562  0.53992725  1.0
  O  O172  1  0.50033244  0.83358372  0.54233778  1.0
  O  O173  1  0.34593894  0.49649596  0.54825111  1.0
  O  O174  1  0.17969027  0.49469515  0.55277590  1.0
  O  O175  1  0.31117520  0.82410997  0.54828148  1.0
  O  O176  1  0.51742611  0.68173084  0.54649770  1.0
  O  O177  1  0.31765015  0.65291164  0.49551982  1.0
  O  O178  1  0.16676688  0.15835051  0.92937910  1.0
  O  O179  1  0.97925237  0.83648487  0.92576344  1.0
  O  O180  1  0.83971420  0.02491091  0.93288334  1.0
  O  O181  1  0.48317591  0.83249235  0.44575793  1.0
  O  O182  1  0.15874210  0.96630217  0.93726490  1.0
  O  O183  1  0.80613646  0.85213034  0.94195291  1.0
  O  O184  1  0.02352090  0.19630886  0.93794049  1.0
  O  O185  1  0.01431518  0.01319695  0.98553428  1.0
  O  O186  1  0.15663779  0.97610651  0.04099718  1.0
  O  O187  1  0.83934327  0.85720676  0.03874006  1.0
  O  O188  1  0.01414734  0.19437737  0.03581583  1.0
  O  O189  1  0.69868625  0.04488080  0.55416125  1.0
  O  O190  1  0.53438567  0.99935503  0.60858456  1.0
  O  O191  1  0.71468200  0.12704996  0.63758548  1.0
  O  O192  1  0.35930612  0.48543963  0.45171868  1.0
  O  O193  1  0.36798752  0.29696308  0.56417267  1.0
  O  O194  1  0.47792968  0.46485875  0.61763521  1.0
  O  O195  1  0.42748600  0.28852337  0.64985521  1.0
  O  O196  1  0.92032170  0.63613423  0.55845560  1.0
  O  O197  1  0.00237212  0.53721939  0.60851597  1.0
  O  O198  1  0.86725406  0.58055816  0.64396672  1.0
  O  O199  1  0.47188618  0.95935635  0.31938200  1.0
  O  O200  1  0.67351505  0.08560652  0.30699166  1.0
  O  O201  1  0.53071461  0.05009446  0.24076865  1.0
  O  O202  1  0.47952379  0.46790904  0.33402789  1.0
  O  O203  1  0.17490509  0.18169837  0.03712260  1.0
  O  O204  1  0.39853883  0.27700264  0.30143459  1.0
  O  O205  1  0.50548860  0.42340411  0.24754341  1.0
  O  O206  1  0.90379603  0.74630820  0.30613524  1.0
  O  O207  1  0.82616121  0.56674891  0.26291115  1.0
  O  O208  1  0.92337185  0.59253334  0.34150044  1.0
  O  O209  1  0.00102098  0.81650741  0.02238539  1.0
  O  O210  1  0.83386741  0.01618958  0.03225794  1.0
  O  O211  1  0.18153271  0.46087416  0.44926178  1.0
  O  O212  1  0.29127540  0.82304650  0.45130220  1.0
  O  O213  1  0.51162189  0.68525015  0.44813132  1.0
  O  O214  1  0.01532515  0.48550589  0.49151879  1.0
  O  O215  1  0.31830286  0.13451499  0.98684378  1.0
