# generated using pymatgen
data_ZnH13C29N(ClO8)2
_symmetry_space_group_name_H-M   'P 1'
_cell_length_a   10.78460449
_cell_length_b   18.21207087
_cell_length_c   19.64153765
_cell_angle_alpha   90.15714357
_cell_angle_beta   91.06691930
_cell_angle_gamma   90.58213523
_symmetry_Int_Tables_number   1
_chemical_formula_structural   ZnH13C29N(ClO8)2
_chemical_formula_sum   'Zn2 H26 C58 N2 Cl4 O32'
_cell_volume   3856.90954789
_cell_formula_units_Z   2
loop_
 _symmetry_equiv_pos_site_id
 _symmetry_equiv_pos_as_xyz
  1  'x, y, z'
loop_
 _atom_site_type_symbol
 _atom_site_label
 _atom_site_symmetry_multiplicity
 _atom_site_fract_x
 _atom_site_fract_y
 _atom_site_fract_z
 _atom_site_occupancy
  Zn  Zn0  1  0.50019183  0.42160133  0.49763061  1.0
  Zn  Zn1  1  0.49201149  0.57595011  0.49905724  1.0
  H  H2  1  0.09710049  0.54778715  0.60667405  1.0
  H  H3  1  0.34993451  0.69150464  0.56798770  1.0
  H  H4  1  0.43942874  0.16632839  0.39627178  1.0
  H  H5  1  0.64712679  0.82811883  0.42786049  1.0
  H  H6  1  0.55764296  0.17006876  0.60812704  1.0
  H  H7  1  0.35112472  0.82944941  0.57367269  1.0
  H  H8  1  0.46406177  0.72997821  0.30150708  1.0
  H  H9  1  0.27267320  0.31438985  0.67793162  1.0
  H  H10  1  0.68888565  0.70345018  0.69260014  1.0
  H  H11  1  0.64048855  0.28065550  0.31234167  1.0
  H  H12  1  0.52405833  0.69508300  0.07299472  1.0
  H  H13  1  0.89445692  0.44101252  0.40389852  1.0
  H  H14  1  0.36096980  0.31094415  0.91012239  1.0
  H  H15  1  0.66725103  0.67536428  0.91971129  1.0
  H  H16  1  0.56854099  0.29350520  0.09069404  1.0
  H  H17  1  0.84871564  0.10655922  0.59721701  1.0
  H  H18  1  0.11914022  0.89761856  0.44545616  1.0
  H  H19  1  0.15041152  0.09907341  0.40487295  1.0
  H  H20  1  0.88742260  0.90928474  0.54963881  1.0
  H  H21  1  0.33573557  0.51445650  0.06532466  1.0
  H  H22  1  0.71486444  0.47063267  0.93121106  1.0
  H  H23  1  0.32257047  0.51255049  0.93899844  1.0
  H  H24  1  0.72826747  0.47313803  0.05755938  1.0
  H  H25  1  0.44399723  0.30404837  0.39922439  1.0
  H  H26  1  0.63350363  0.69026654  0.42889052  1.0
  H  H27  1  0.56002102  0.30784080  0.60129440  1.0
  C  C28  1  0.49082334  0.50486130  0.63207541  1.0
  C  C29  1  0.57326017  0.72391451  0.45989344  1.0
  C  C30  1  0.53466686  0.27367073  0.55735802  1.0
  C  C31  1  0.41317104  0.72458118  0.53772687  1.0
  C  C32  1  0.46580432  0.19534426  0.44301033  1.0
  C  C33  1  0.58044716  0.80010048  0.46002073  1.0
  C  C34  1  0.53329953  0.19742197  0.56052958  1.0
  C  C35  1  0.41434353  0.80078802  0.54037850  1.0
  C  C36  1  0.49903158  0.15702922  0.50225161  1.0
  C  C37  1  0.49919806  0.83955815  0.50072864  1.0
  C  C38  1  0.60753672  0.03761916  0.52055473  1.0
  C  C39  1  0.51581816  0.50196564  0.36462152  1.0
  C  C40  1  0.39450121  0.95897715  0.47900635  1.0
  C  C41  1  0.39141354  0.03587557  0.48338549  1.0
  C  C42  1  0.60633567  0.96052949  0.52342926  1.0
  C  C43  1  0.50054959  0.92091162  0.50124637  1.0
  C  C44  1  0.49898272  0.07569050  0.50254693  1.0
  C  C45  1  0.73328256  0.50390090  0.50674464  1.0
  C  C46  1  0.25916661  0.48692874  0.49744442  1.0
  C  C47  1  0.95456422  0.46064065  0.56120089  1.0
  C  C48  1  0.03739392  0.52932415  0.44845259  1.0
  C  C49  1  0.02466502  0.42241134  0.50105033  1.0
  C  C50  1  0.41878977  0.50491187  0.03579641  1.0
  C  C51  1  0.96812816  0.56760255  0.50889129  1.0
  C  C52  1  0.05095881  0.52518626  0.56126032  1.0
  C  C53  1  0.94181885  0.46467150  0.44857919  1.0
  C  C54  1  0.12183550  0.48715123  0.50162968  1.0
  C  C55  1  0.87085693  0.50312771  0.50794550  1.0
  C  C56  1  0.49227865  0.56377006  0.25010882  1.0
  C  C57  1  0.42101177  0.45249409  0.74309693  1.0
  C  C58  1  0.57567191  0.55039225  0.74482548  1.0
  C  C59  1  0.57950417  0.44164827  0.25542036  1.0
  C  C60  1  0.50113092  0.56238327  0.17884375  1.0
  C  C61  1  0.63176860  0.48020522  0.96071309  1.0
  C  C62  1  0.43105933  0.44674492  0.81419301  1.0
  C  C63  1  0.58052515  0.54751471  0.81623268  1.0
  C  C64  1  0.57849526  0.43801288  0.18405812  1.0
  C  C65  1  0.53868714  0.49826994  0.14496064  1.0
  C  C66  1  0.51048661  0.49466448  0.85152619  1.0
  C  C67  1  0.53058406  0.50302000  0.28852377  1.0
  C  C68  1  0.49577433  0.50291884  0.70856499  1.0
  C  C69  1  0.43493161  0.62957212  0.28366772  1.0
  C  C70  1  0.32568461  0.40972722  0.70198767  1.0
  C  C71  1  0.65825465  0.60227463  0.70624928  1.0
  C  C72  1  0.41126956  0.50329636  0.96504290  1.0
  C  C73  1  0.64202720  0.38233621  0.29618911  1.0
  C  C74  1  0.46576228  0.62962091  0.13930490  1.0
  C  C75  1  0.35250665  0.39061011  0.84936449  1.0
  C  C76  1  0.66476300  0.60080947  0.85335983  1.0
  C  C77  1  0.62243076  0.36943785  0.14989995  1.0
  C  C78  1  0.72641765  0.08068913  0.53084492  1.0
  C  C79  1  0.29118407  0.91627622  0.44450649  1.0
  C  C80  1  0.27180918  0.07653031  0.47235313  1.0
  C  C81  1  0.71356741  0.91926750  0.55396730  1.0
  C  C82  1  0.63916366  0.48117500  0.03154753  1.0
  C  C83  1  0.51795308  0.49178358  0.92687354  1.0
  C  C84  1  0.53294232  0.49440348  0.06962515  1.0
  C  C85  1  0.46856784  0.27157126  0.44399895  1.0
  N  N86  1  0.50328932  0.30959563  0.50002429  1.0
  N  N87  1  0.49078353  0.68741619  0.49793030  1.0
  Cl  Cl88  1  0.90132399  0.41641294  0.63291040  1.0
  Cl  Cl89  1  0.09079877  0.57238801  0.37647809  1.0
  Cl  Cl90  1  0.05570985  0.32913541  0.49740108  1.0
  Cl  Cl91  1  0.93727515  0.66103381  0.51303737  1.0
  O  O92  1  0.49855564  0.44295732  0.60275739  1.0
  O  O93  1  0.51240622  0.68920306  0.28336235  1.0
  O  O94  1  0.24289652  0.43907402  0.66946109  1.0
  O  O95  1  0.34134373  0.33589028  0.70505338  1.0
  O  O96  1  0.74054484  0.58254982  0.66923387  1.0
  O  O97  1  0.63024759  0.67370585  0.71871814  1.0
  O  O98  1  0.73785841  0.39219311  0.32870829  1.0
  O  O99  1  0.58567543  0.31542203  0.28881190  1.0
  O  O100  1  0.36795655  0.66193763  0.14480420  1.0
  O  O101  1  0.55719815  0.65226267  0.09712125  1.0
  O  O102  1  0.24006945  0.38565463  0.84270675  1.0
  O  O103  1  0.51977307  0.56353945  0.39481768  1.0
  O  O104  1  0.42081578  0.34415987  0.88876808  1.0
  O  O105  1  0.77572461  0.60664426  0.84352808  1.0
  O  O106  1  0.60353506  0.64372970  0.89821377  1.0
  O  O107  1  0.72687074  0.34498202  0.15599753  1.0
  O  O108  1  0.53100822  0.33653815  0.11185550  1.0
  O  O109  1  0.77603712  0.11391459  0.48495808  1.0
  O  O110  1  0.77065607  0.07824983  0.59588766  1.0
  O  O111  1  0.30680631  0.87804170  0.39456947  1.0
  O  O112  1  0.17912019  0.92537251  0.47391557  1.0
  O  O113  1  0.21975527  0.10873606  0.51783485  1.0
  O  O114  1  0.49910571  0.43930085  0.39135358  1.0
  O  O115  1  0.22945866  0.07274784  0.40694767  1.0
  O  O116  1  0.70370988  0.87631124  0.60095882  1.0
  O  O117  1  0.82303544  0.93556355  0.52380111  1.0
  O  O118  1  0.48016925  0.56745609  0.60492234  1.0
  O  O119  1  0.68339369  0.44051710  0.50088957  1.0
  O  O120  1  0.30953259  0.55035391  0.49473086  1.0
  O  O121  1  0.31337211  0.42554806  0.49608849  1.0
  O  O122  1  0.67891394  0.56505472  0.50976666  1.0
  O  O123  1  0.32996442  0.63047846  0.30473905  1.0
