# generated using pymatgen
data_Zn4H24C28S2O13F2
_symmetry_space_group_name_H-M   'P 1'
_cell_length_a   17.89007572
_cell_length_b   18.58600781
_cell_length_c   19.38782427
_cell_angle_alpha   118.42914458
_cell_angle_beta   116.25768994
_cell_angle_gamma   90.09005013
_symmetry_Int_Tables_number   1
_chemical_formula_structural   Zn4H24C28S2O13F2
_chemical_formula_sum   'Zn8 H48 C56 S4 O26 F4'
_cell_volume   4896.68657880
_cell_formula_units_Z   2
loop_
 _symmetry_equiv_pos_site_id
 _symmetry_equiv_pos_as_xyz
  1  'x, y, z'
loop_
 _atom_site_type_symbol
 _atom_site_label
 _atom_site_symmetry_multiplicity
 _atom_site_fract_x
 _atom_site_fract_y
 _atom_site_fract_z
 _atom_site_occupancy
  Zn  Zn0  1  0.13050532  0.53726055  0.07958507  1.0
  Zn  Zn1  1  0.96372589  0.38037108  0.93229132  1.0
  Zn  Zn2  1  0.96764906  0.55338485  0.93373807  1.0
  Zn  Zn3  1  0.95360362  0.54688448  0.08995501  1.0
  Zn  Zn4  1  0.37690575  0.96485413  0.93304800  1.0
  Zn  Zn5  1  0.54188830  0.95706078  0.08561503  1.0
  Zn  Zn6  1  0.53706089  0.12852980  0.08629219  1.0
  Zn  Zn7  1  0.55896467  0.96873442  0.93318125  1.0
  H  H8  1  0.21476424  0.80438568  0.12032604  1.0
  H  H9  1  0.12884592  0.78607579  0.01659634  1.0
  H  H10  1  0.21869008  0.88078702  0.02003394  1.0
  H  H11  1  0.30436809  0.89771746  0.12313241  1.0
  H  H12  1  0.19725797  0.76380119  0.87057812  1.0
  H  H13  1  0.26797753  0.69788232  0.86609394  1.0
  H  H14  1  0.10834685  0.66827860  0.86758118  1.0
  H  H15  1  0.18054704  0.60379969  0.86483516  1.0
  H  H16  1  0.31832213  0.71018947  0.11725985  1.0
  H  H17  1  0.30404552  0.62817911  0.01288806  1.0
  H  H18  1  0.39322897  0.72207779  0.01494217  1.0
  H  H19  1  0.40739484  0.80399911  0.11921548  1.0
  H  H20  1  0.90890274  0.31276382  0.13012125  1.0
  H  H21  1  0.89081091  0.23123525  0.02275312  1.0
  H  H22  1  0.80171058  0.13785587  0.02166501  1.0
  H  H23  1  0.81998324  0.22017613  0.12881991  1.0
  H  H24  1  0.67886533  0.11680485  0.87851437  1.0
  H  H25  1  0.60763274  0.18232095  0.88188395  1.0
  H  H26  1  0.76663315  0.21113068  0.87927244  1.0
  H  H27  1  0.69585684  0.27702374  0.88466988  1.0
  H  H28  1  0.80917103  0.40965573  0.13896915  1.0
  H  H29  1  0.72241608  0.39580170  0.03921620  1.0
  H  H30  1  0.63288291  0.30201386  0.03691789  1.0
  H  H31  1  0.71949422  0.31621309  0.13689699  1.0
  H  H32  1  0.17534384  0.27875277  0.08525375  1.0
  H  H33  1  0.26648781  0.36393917  0.14127795  1.0
  H  H34  1  0.35525109  0.27199753  0.14498898  1.0
  H  H35  1  0.26350524  0.18713853  0.08809943  1.0
  H  H36  1  0.40225477  0.30436269  0.05582808  1.0
  H  H37  1  0.34509492  0.24210589  0.93599176  1.0
  H  H38  1  0.31254568  0.39567090  0.05091716  1.0
  H  H39  1  0.25516903  0.33199125  0.93112265  1.0
  H  H40  1  0.09140713  0.18776424  0.91250657  1.0
  H  H41  1  0.12383178  0.20976997  0.84968708  1.0
  H  H42  1  0.21332518  0.11856736  0.85325101  1.0
  H  H43  1  0.18069553  0.09639293  0.91575542  1.0
  H  H44  1  0.91346500  0.81771083  0.09832803  1.0
  H  H45  1  0.87801204  0.79338388  0.15863985  1.0
  H  H46  1  0.79072477  0.88666398  0.15595477  1.0
  H  H47  1  0.82470017  0.90862341  0.09336579  1.0
  H  H48  1  0.66161576  0.76502461  0.07519242  1.0
  H  H49  1  0.60183291  0.70199002  0.95546389  1.0
  H  H50  1  0.74924122  0.67149108  0.07580817  1.0
  H  H51  1  0.68997206  0.61003899  0.95606617  1.0
  H  H52  1  0.82982733  0.73011835  0.92569239  1.0
  H  H53  1  0.73966577  0.64428081  0.86676223  1.0
  H  H54  1  0.64900069  0.73438290  0.86422911  1.0
  H  H55  1  0.73904633  0.81976903  0.92095695  1.0
  C  C56  1  0.14170277  0.36076989  0.99686438  1.0
  C  C57  1  0.87935128  0.38389710  0.76455443  1.0
  C  C58  1  0.14450638  0.63610983  0.99996088  1.0
  C  C59  1  0.86461228  0.64686151  0.01568521  1.0
  C  C60  1  0.13005394  0.62624669  0.25303114  1.0
  C  C61  1  0.86386119  0.37046774  0.01574591  1.0
  C  C62  1  0.36119117  0.86214081  0.00463771  1.0
  C  C63  1  0.61934164  0.12587753  0.25443709  1.0
  C  C64  1  0.35843508  0.14032161  0.00435109  1.0
  C  C65  1  0.64653320  0.14551477  0.01254621  1.0
  C  C66  1  0.38862245  0.88193443  0.76449827  1.0
  C  C67  1  0.64898203  0.86923342  0.01183425  1.0
  C  C68  1  0.27061419  0.70476237  0.40947834  1.0
  C  C69  1  0.24995712  0.80322081  0.60760855  1.0
  C  C70  1  0.18139239  0.67620582  0.35275046  1.0
  C  C71  1  0.33910970  0.83214781  0.66465404  1.0
  C  C72  1  0.22437257  0.75707092  0.51463455  1.0
  C  C73  1  0.29647621  0.75144982  0.50259543  1.0
  C  C74  1  0.80070631  0.36149477  0.60493104  1.0
  C  C75  1  0.70139812  0.14790490  0.41373218  1.0
  C  C76  1  0.83010622  0.33389471  0.66499762  1.0
  C  C77  1  0.67095964  0.17569294  0.35385295  1.0
  C  C78  1  0.74903627  0.21505713  0.50553740  1.0
  C  C79  1  0.75392159  0.29422955  0.51320758  1.0
  C  C80  1  0.19682849  0.78590639  0.05089387  1.0
  C  C81  1  0.25634512  0.84833956  0.05275898  1.0
  C  C82  1  0.30396559  0.79939682  0.00243429  1.0
  C  C83  1  0.23521016  0.73174456  0.90356190  1.0
  C  C84  1  0.17649671  0.66901999  0.90215636  1.0
  C  C85  1  0.20439615  0.69447596  0.00006038  1.0
  C  C86  1  0.29900740  0.69335135  0.04811460  1.0
  C  C87  1  0.35792928  0.75541537  0.04938107  1.0
  C  C88  1  0.85815186  0.26544011  0.06009562  1.0
  C  C89  1  0.79891723  0.20349263  0.05921406  1.0
  C  C90  1  0.70416981  0.20752367  0.01404156  1.0
  C  C91  1  0.67573081  0.18222981  0.91606105  1.0
  C  C92  1  0.73433487  0.24469232  0.91720039  1.0
  C  C93  1  0.80401011  0.31213517  0.01594076  1.0
  C  C94  1  0.75961915  0.36116103  0.06910088  1.0
  C  C95  1  0.70034098  0.29917630  0.06770920  1.0
  C  C96  1  0.23141273  0.29885395  0.08261978  1.0
  C  C97  1  0.29031253  0.23801838  0.08483994  1.0
  C  C98  1  0.29835292  0.19777836  0.99861322  1.0
  C  C99  1  0.33725922  0.27006114  0.99597892  1.0
  C  C100  1  0.27777599  0.33028791  0.99301843  1.0
  C  C101  1  0.19858865  0.29974926  0.99453270  1.0
  C  C102  1  0.14849736  0.20900859  0.91223713  1.0
  C  C103  1  0.20772271  0.14857008  0.91453658  1.0
  C  C104  1  0.85560550  0.79583866  0.09729643  1.0
  C  C105  1  0.79689244  0.85704011  0.09504368  1.0
  C  C106  1  0.70558302  0.80788359  0.01006374  1.0
  C  C107  1  0.66767067  0.73628207  0.01428369  1.0
  C  C108  1  0.72617420  0.67492748  0.01502140  1.0
  C  C109  1  0.80490088  0.70517693  0.01271596  1.0
  C  C110  1  0.77342767  0.70887132  0.92693541  1.0
  C  C111  1  0.71374860  0.76872496  0.92475843  1.0
  S  S112  1  0.12731680  0.70649527  0.41383525  1.0
  S  S113  1  0.39344435  0.80244128  0.60373966  1.0
  S  S114  1  0.80070242  0.22349389  0.60897105  1.0
  S  S115  1  0.70118473  0.28605186  0.40993560  1.0
  O  O116  1  0.00335689  0.50472225  0.01003362  1.0
  O  O117  1  0.17983990  0.43977380  0.05486895  1.0
  O  O118  1  0.89475648  0.34066258  0.80233505  1.0
  O  O119  1  0.06336125  0.62232240  0.94978746  1.0
  O  O120  1  0.06038126  0.32863460  0.94273447  1.0
  O  O121  1  0.17921470  0.60687787  0.05087193  1.0
  O  O122  1  0.90167078  0.46432339  0.80350024  1.0
  O  O123  1  0.89324989  0.62572595  0.96107875  1.0
  O  O124  1  0.04777298  0.60896684  0.21872646  1.0
  O  O125  1  0.88246670  0.62432726  0.07285821  1.0
  O  O126  1  0.17188106  0.60514993  0.21076313  1.0
  O  O127  1  0.89464091  0.33351554  0.96352024  1.0
  O  O128  1  0.87930283  0.45050403  0.06716335  1.0
  O  O129  1  0.50372027  0.00432586  0.00801493  1.0
  O  O130  1  0.32318436  0.89313586  0.95601686  1.0
  O  O131  1  0.59682040  0.04545443  0.21554002  1.0
  O  O132  1  0.43817287  0.17704537  0.06516638  1.0
  O  O133  1  0.44266038  0.87973561  0.05546648  1.0
  O  O134  1  0.32514389  0.06046074  0.94927096  1.0
  O  O135  1  0.60196541  0.16908833  0.21659244  1.0
  O  O136  1  0.61431802  0.17752259  0.06390255  1.0
  O  O137  1  0.47109620  0.90417675  0.80165439  1.0
  O  O138  1  0.63516925  0.06622654  0.96020387  1.0
  O  O139  1  0.34446924  0.89784822  0.80407987  1.0
  O  O140  1  0.62708194  0.89441715  0.07230111  1.0
  O  O141  1  0.62835441  0.89143545  0.95427159  1.0
  F  F142  1  0.32819188  0.69052710  0.38089785  1.0
  F  F143  1  0.19196312  0.81676331  0.63559717  1.0
  F  F144  1  0.81391640  0.44326281  0.62935323  1.0
  F  F145  1  0.68794584  0.06609783  0.38912109  1.0
