# generated using pymatgen
data_ZnH10C15N4
_symmetry_space_group_name_H-M   'P 1'
_cell_length_a   17.35839648
_cell_length_b   18.02682856
_cell_length_c   19.39869893
_cell_angle_alpha   98.13443909
_cell_angle_beta   89.98889103
_cell_angle_gamma   89.92344870
_symmetry_Int_Tables_number   1
_chemical_formula_structural   ZnH10C15N4
_chemical_formula_sum   'Zn8 H80 C120 N32'
_cell_volume   6009.10033475
_cell_formula_units_Z   8
loop_
 _symmetry_equiv_pos_site_id
 _symmetry_equiv_pos_as_xyz
  1  'x, y, z'
loop_
 _atom_site_type_symbol
 _atom_site_label
 _atom_site_symmetry_multiplicity
 _atom_site_fract_x
 _atom_site_fract_y
 _atom_site_fract_z
 _atom_site_occupancy
  Zn  Zn0  1  0.05009527  0.02409612  0.39133560  1.0
  Zn  Zn1  1  0.94990907  0.97589379  0.60865718  1.0
  Zn  Zn2  1  0.44983437  0.52350909  0.89009623  1.0
  Zn  Zn3  1  0.55015443  0.47651034  0.10990068  1.0
  Zn  Zn4  1  0.89638639  0.07870832  0.52175657  1.0
  Zn  Zn5  1  0.10361333  0.92127711  0.47824663  1.0
  Zn  Zn6  1  0.39857110  0.42029559  0.97762341  1.0
  Zn  Zn7  1  0.60142287  0.57970678  0.02236728  1.0
  H  H8  1  0.95689259  0.89399453  0.30960982  1.0
  H  H9  1  0.98168211  0.62602954  0.81378372  1.0
  H  H10  1  0.69810758  0.94810341  0.89585736  1.0
  H  H11  1  0.30190944  0.05190655  0.10415049  1.0
  H  H12  1  0.19731858  0.54956355  0.60355984  1.0
  H  H13  1  0.80267193  0.45042428  0.39644441  1.0
  H  H14  1  0.51916026  0.12398513  0.31358125  1.0
  H  H15  1  0.48080494  0.87606737  0.68645730  1.0
  H  H16  1  0.94391487  0.81452771  0.66523808  1.0
  H  H17  1  0.05606411  0.18546264  0.33475003  1.0
  H  H18  1  0.19867050  0.10171274  0.33154963  1.0
  H  H19  1  0.04311519  0.10597254  0.69041112  1.0
  H  H20  1  0.80132346  0.89826832  0.66844681  1.0
  H  H21  1  0.69880813  0.39707745  0.16714318  1.0
  H  H22  1  0.30118124  0.60292652  0.83285063  1.0
  H  H23  1  0.44770543  0.68321740  0.82930935  1.0
  H  H24  1  0.55228107  0.31680792  0.17070422  1.0
  H  H25  1  0.68914120  0.08019139  0.58435029  1.0
  H  H26  1  0.31085795  0.91979166  0.41565552  1.0
  H  H27  1  0.87336502  0.24009659  0.48481407  1.0
  H  H28  1  0.12663875  0.75989446  0.51518964  1.0
  H  H29  1  0.38125332  0.25743568  0.01058155  1.0
  H  H30  1  0.87280679  0.08749441  0.77333370  1.0
  H  H31  1  0.61874296  0.74256759  0.98942945  1.0
  H  H32  1  0.18983955  0.41934859  0.91472907  1.0
  H  H33  1  0.81016708  0.58063799  0.08526007  1.0
  H  H34  1  0.22386071  0.66973116  0.31353922  1.0
  H  H35  1  0.77615400  0.33027637  0.68643478  1.0
  H  H36  1  0.21766879  0.25719358  0.58893888  1.0
  H  H37  1  0.78234763  0.74277050  0.41105914  1.0
  H  H38  1  0.72411020  0.24805726  0.91248777  1.0
  H  H39  1  0.27588320  0.75195127  0.08748884  1.0
  H  H40  1  0.72168042  0.83092878  0.18923773  1.0
  H  H41  1  0.12719526  0.91252991  0.22666633  1.0
  H  H42  1  0.27832508  0.16906734  0.81077015  1.0
  H  H43  1  0.37133175  0.70408192  0.26387020  1.0
  H  H44  1  0.62867202  0.29592713  0.73609911  1.0
  H  H45  1  0.36814247  0.22540010  0.63491599  1.0
  H  H46  1  0.63187165  0.77456573  0.36508619  1.0
  H  H47  1  0.87244021  0.28036326  0.86200301  1.0
  H  H48  1  0.12754973  0.71964790  0.13797986  1.0
  H  H49  1  0.87130956  0.79703987  0.23449382  1.0
  H  H50  1  0.12871033  0.20296042  0.76551248  1.0
  H  H51  1  0.02163039  0.29902968  0.28550544  1.0
  H  H52  1  0.37224861  0.41386881  0.72643268  1.0
  H  H53  1  0.97836761  0.70096430  0.71449567  1.0
  H  H54  1  0.72644892  0.99034512  0.78154123  1.0
  H  H55  1  0.27354621  0.00965238  0.21847185  1.0
  H  H56  1  0.22633481  0.50870558  0.71859953  1.0
  H  H57  1  0.77365397  0.49128335  0.28140107  1.0
  H  H58  1  0.52336685  0.19930130  0.21452464  1.0
  H  H59  1  0.47659949  0.80072975  0.78552592  1.0
  H  H60  1  0.86326684  0.35423245  0.45671136  1.0
  H  H61  1  0.13672366  0.64574640  0.54328145  1.0
  H  H62  1  0.56447042  0.94379681  0.61311776  1.0
  H  H63  1  0.62774536  0.58613167  0.27356374  1.0
  H  H64  1  0.43552298  0.05620680  0.38689896  1.0
  H  H65  1  0.06527639  0.55829836  0.88744694  1.0
  H  H66  1  0.93472105  0.44170920  0.11257030  1.0
  H  H67  1  0.36310196  0.14802277  0.04446593  1.0
  H  H68  1  0.63692889  0.85198409  0.95554348  1.0
  H  H69  1  0.13942828  0.76357949  0.38290576  1.0
  H  H70  1  0.86059276  0.23641084  0.61706826  1.0
  H  H71  1  0.20889118  0.06498316  0.52380559  1.0
  H  H72  1  0.79110567  0.93501306  0.47620281  1.0
  H  H73  1  0.71292729  0.44250662  0.97292605  1.0
  H  H74  1  0.45771823  0.60959479  0.18809759  1.0
  H  H75  1  0.28707072  0.55749138  0.02705787  1.0
  H  H76  1  0.64072114  0.73632241  0.11853950  1.0
  H  H77  1  0.35931374  0.26367556  0.88146628  1.0
  H  H78  1  0.68961835  0.16448297  0.78068210  1.0
  H  H79  1  0.31038311  0.83552666  0.21929815  1.0
  H  H80  1  0.68872169  0.90911692  0.32292638  1.0
  H  H81  1  0.31129128  0.09084822  0.67708935  1.0
  H  H82  1  0.18853893  0.58763206  0.18213603  1.0
  H  H83  1  0.81145620  0.41237687  0.81784683  1.0
  H  H84  1  0.18566138  0.33684763  0.72289626  1.0
  H  H85  1  0.54228266  0.39044003  0.81188419  1.0
  H  H86  1  0.81435621  0.66313997  0.27709599  1.0
  H  H87  1  0.01831763  0.37398609  0.18622830  1.0
  C  C88  1  0.92437167  0.91364013  0.35626063  1.0
  C  C89  1  0.68305550  0.29258278  0.76416915  1.0
  C  C90  1  0.76815411  0.76170450  0.36136582  1.0
  C  C91  1  0.73636244  0.26554277  0.86178520  1.0
  C  C92  1  0.26363096  0.73447290  0.13819817  1.0
  C  C93  1  0.73517228  0.81095709  0.23864333  1.0
  C  C94  1  0.26484243  0.18903077  0.76136508  1.0
  C  C95  1  0.71626127  0.22008754  0.78922774  1.0
  C  C96  1  0.28373674  0.77992613  0.21074990  1.0
  C  C97  1  0.71617598  0.85394508  0.31248542  1.0
  C  C98  1  0.28384160  0.14602528  0.68752457  1.0
  C  C99  1  0.21518355  0.64321091  0.19056868  1.0
  C  C100  1  0.31459951  0.21993095  0.66368657  1.0
  C  C101  1  0.78481158  0.35679429  0.80941158  1.0
  C  C102  1  0.21307531  0.28162637  0.71242935  1.0
  C  C103  1  0.78694284  0.71835814  0.28756812  1.0
  C  C104  1  0.79849188  0.23845497  0.76048844  1.0
  C  C105  1  0.20150498  0.76155316  0.23949286  1.0
  C  C106  1  0.80002485  0.83634994  0.33769022  1.0
  C  C107  1  0.19998870  0.16362587  0.66231195  1.0
  C  C108  1  0.29783236  0.66119016  0.16296310  1.0
  C  C109  1  0.70215354  0.33881552  0.83701300  1.0
  C  C110  1  0.29654959  0.26347121  0.73871281  1.0
  C  C111  1  0.68541691  0.78004550  0.33632342  1.0
  C  C112  1  0.70347029  0.73651133  0.26129351  1.0
  C  C113  1  0.81790035  0.28425097  0.83431144  1.0
  C  C114  1  0.18209190  0.71576319  0.16566933  1.0
  C  C115  1  0.81788796  0.79222634  0.26360766  1.0
  C  C116  1  0.18212732  0.20775430  0.73639346  1.0
  C  C117  1  0.94354671  0.31550561  0.37284294  1.0
  C  C118  1  0.05644207  0.68448045  0.62714985  1.0
  C  C119  1  0.65389321  0.96783052  0.69146644  1.0
  C  C120  1  0.07562574  0.08633842  0.64375197  1.0
  C  C121  1  0.34610883  0.03217084  0.30854299  1.0
  C  C122  1  0.15417666  0.53282270  0.80878202  1.0
  C  C123  1  0.84581386  0.46718169  0.19122533  1.0
  C  C124  1  0.44450789  0.18469637  0.12777565  1.0
  C  C125  1  0.55547459  0.81534097  0.87226186  1.0
  C  C126  1  0.14950732  0.58297476  0.62781397  1.0
  C  C127  1  0.85048377  0.41701512  0.37219288  1.0
  C  C128  1  0.46536337  0.09883558  0.29257705  1.0
  C  C129  1  0.53462370  0.90118794  0.70745007  1.0
  C  C130  1  0.96473115  0.39977195  0.20724827  1.0
  C  C131  1  0.87693431  0.11515621  0.72714736  1.0
  C  C132  1  0.03525533  0.60023014  0.79275857  1.0
  C  C133  1  0.64971383  0.91563689  0.87169885  1.0
  C  C134  1  0.35028246  0.08438691  0.12831941  1.0
  C  C135  1  0.11580162  0.63701998  0.59451233  1.0
  C  C136  1  0.88419350  0.36296664  0.40548775  1.0
  C  C137  1  0.41899488  0.06055095  0.33333333  1.0
  C  C138  1  0.58099909  0.93944892  0.66666667  1.0
  C  C139  1  0.91841169  0.43795677  0.16630257  1.0
  C  C140  1  0.08157364  0.56204565  0.83371000  1.0
  C  C141  1  0.61555834  0.86173150  0.90476516  1.0
  C  C142  1  0.12306370  0.88485512  0.27284747  1.0
  C  C143  1  0.38444486  0.13829103  0.09525935  1.0
  C  C144  1  0.02547492  0.66732179  0.68910963  1.0
  C  C145  1  0.97451963  0.33267179  0.31088524  1.0
  C  C146  1  0.32785828  0.03407301  0.23906381  1.0
  C  C147  1  0.67213973  0.96593027  0.76095084  1.0
  C  C148  1  0.82779709  0.46623596  0.26088525  1.0
  C  C149  1  0.17219112  0.53375995  0.73912108  1.0
  C  C150  1  0.52443925  0.83335835  0.81063036  1.0
  C  C151  1  0.47552882  0.16667252  0.18941186  1.0
  C  C152  1  0.05929803  0.61231083  0.72507990  1.0
  C  C153  1  0.37623682  0.38577841  0.77235910  1.0
  C  C154  1  0.94069422  0.38769103  0.27492901  1.0
  C  C155  1  0.37368499  0.07356356  0.19633587  1.0
  C  C156  1  0.62630554  0.92645424  0.80368292  1.0
  C  C157  1  0.87353897  0.42681339  0.30382011  1.0
  C  C158  1  0.12644924  0.57318063  0.69618830  1.0
  C  C159  1  0.55871066  0.88826754  0.77487493  1.0
  C  C160  1  0.44126950  0.11175560  0.22515324  1.0
  C  C161  1  0.98743942  0.81239084  0.62477295  1.0
  C  C162  1  0.01253669  0.18759642  0.37520943  1.0
  C  C163  1  0.21432445  0.05527783  0.35888699  1.0
  C  C164  1  0.62376868  0.61421895  0.22763523  1.0
  C  C165  1  0.78567240  0.94471419  0.64111933  1.0
  C  C166  1  0.71427553  0.44400648  0.14042417  1.0
  C  C167  1  0.28572075  0.55599868  0.85957380  1.0
  C  C168  1  0.48828534  0.68650723  0.87224634  1.0
  C  C169  1  0.51169885  0.31351770  0.12776827  1.0
  C  C170  1  0.72764955  0.03700788  0.59797766  1.0
  C  C171  1  0.27235305  0.96298222  0.40202710  1.0
  C  C172  1  0.91986994  0.21544918  0.45174495  1.0
  C  C173  1  0.08013670  0.78453679  0.54825825  1.0
  C  C174  1  0.42482463  0.28324147  0.04629387  1.0
  C  C175  1  0.42435000  0.58750840  0.14269703  1.0
  C  C176  1  0.57517223  0.71676901  0.95371347  1.0
  C  C177  1  0.22814455  0.46287092  0.90161445  1.0
  C  C178  1  0.77185460  0.53712939  0.09838092  1.0
  C  C179  1  0.12918097  0.80863882  0.35226065  1.0
  C  C180  1  0.87081933  0.19135640  0.64772691  1.0
  C  C181  1  0.15996774  0.06572910  0.55839097  1.0
  C  C182  1  0.84003199  0.93425982  0.44161692  1.0
  C  C183  1  0.66268459  0.43882483  0.93966644  1.0
  C  C184  1  0.33731226  0.56116945  0.06032217  1.0
  C  C185  1  0.63016911  0.69107049  0.14884737  1.0
  C  C186  1  0.57565377  0.41250678  0.85728686  1.0
  C  C187  1  0.36985942  0.30892081  0.85114747  1.0
  C  C188  1  0.85188131  0.89114005  0.37672027  1.0
  C  C189  1  0.14811496  0.10884635  0.62328918  1.0
  C  C190  1  0.84722155  0.18537429  0.71570535  1.0
  C  C191  1  0.15278164  0.81463448  0.28428376  1.0
  C  C192  1  0.34588926  0.31579786  0.78346726  1.0
  C  C193  1  0.65413063  0.68419370  0.21652915  1.0
  C  C194  1  0.35006590  0.60667954  0.12386484  1.0
  C  C195  1  0.64993326  0.39332629  0.87611594  1.0
  C  C196  1  0.03836150  0.75400720  0.59962710  1.0
  C  C197  1  0.31694596  0.70743626  0.23580380  1.0
  C  C198  1  0.96162786  0.24598132  0.40036725  1.0
  C  C199  1  0.28376794  0.01500758  0.35517442  1.0
  C  C200  1  0.71623582  0.98498800  0.64483710  1.0
  C  C201  1  0.78348235  0.48447069  0.14460725  1.0
  C  C202  1  0.21651163  0.51553710  0.85539696  1.0
  C  C203  1  0.53660016  0.74601911  0.89975637  1.0
  C  C204  1  0.46338403  0.25400545  0.10027022  1.0
  C  C205  1  0.23543149  0.68839266  0.26319991  1.0
  C  C206  1  0.76456651  0.31161372  0.73677723  1.0
  C  C207  1  0.23186519  0.23826314  0.63863375  1.0
  N  N208  1  0.95376215  0.96637663  0.40567203  1.0
  N  N209  1  0.00083756  0.12743238  0.40805686  1.0
  N  N210  1  0.16587318  0.02933287  0.40403735  1.0
  N  N211  1  0.83413461  0.97066088  0.59597678  1.0
  N  N212  1  0.66574847  0.47045592  0.09550642  1.0
  N  N213  1  0.33425184  0.52954684  0.90448687  1.0
  N  N214  1  0.49865437  0.62688650  0.90614183  1.0
  N  N215  1  0.50134134  0.37312738  0.09386238  1.0
  N  N216  1  0.79868041  0.02851015  0.56974475  1.0
  N  N217  1  0.20132969  0.97148446  0.43026781  1.0
  N  N218  1  0.94274560  0.14487497  0.45576788  1.0
  N  N219  1  0.04624391  0.03359723  0.59433900  1.0
  N  N220  1  0.05726738  0.85511424  0.54423844  1.0
  N  N221  1  0.44691315  0.35414711  0.04299839  1.0
  N  N222  1  0.55308947  0.64586295  0.95699905  1.0
  N  N223  1  0.29906997  0.47120388  0.92998175  1.0
  N  N224  1  0.70093091  0.52879618  0.07000842  1.0
  N  N225  1  0.08874073  0.87035818  0.37904749  1.0
  N  N226  1  0.91126072  0.12963832  0.62094841  1.0
  N  N227  1  0.09845624  0.02045385  0.54137126  1.0
  N  N228  1  0.90155098  0.97952873  0.45863871  1.0
  N  N229  1  0.59992376  0.48220875  0.95740276  1.0
  N  N230  1  0.91487651  0.08255867  0.67040067  1.0
  N  N231  1  0.40008519  0.51780230  0.04257957  1.0
  N  N232  1  0.58897124  0.63007957  0.12187848  1.0
  N  N233  1  0.41104981  0.36991926  0.87811115  1.0
  N  N234  1  0.08512495  0.91744403  0.32959939  1.0
  N  N235  1  0.41484513  0.41744653  0.82902363  1.0
  N  N236  1  0.58516037  0.58255424  0.17096757  1.0
  N  N237  1  0.45402770  0.53432433  0.09362395  1.0
  N  N238  1  0.54598472  0.46570255  0.90635315  1.0
  N  N239  1  0.99915698  0.87255223  0.59193021  1.0
