# generated using pymatgen
data_ZnH7C13(NO2)2
_symmetry_space_group_name_H-M   'P 1'
_cell_length_a   11.80987289
_cell_length_b   11.94381237
_cell_length_c   13.13781502
_cell_angle_alpha   89.67296175
_cell_angle_beta   85.85579282
_cell_angle_gamma   85.45389459
_symmetry_Int_Tables_number   1
_chemical_formula_structural   ZnH7C13(NO2)2
_chemical_formula_sum   'Zn2 H14 C26 N4 O8'
_cell_volume   1842.49285460
_cell_formula_units_Z   2
loop_
 _symmetry_equiv_pos_site_id
 _symmetry_equiv_pos_as_xyz
  1  'x, y, z'
loop_
 _atom_site_type_symbol
 _atom_site_label
 _atom_site_symmetry_multiplicity
 _atom_site_fract_x
 _atom_site_fract_y
 _atom_site_fract_z
 _atom_site_occupancy
  Zn  Zn0  1  0.38197347  0.51074623  0.49810839  1.0
  Zn  Zn1  1  0.61748994  0.49293283  0.50244277  1.0
  H  H2  1  0.64065169  0.51829443  0.82093296  1.0
  H  H3  1  0.77083587  0.48200446  0.90502938  1.0
  H  H4  1  0.18088830  0.44797482  0.97719044  1.0
  H  H5  1  0.24240326  0.42746236  0.08825533  1.0
  H  H6  1  0.18754698  0.39891044  0.59176642  1.0
  H  H7  1  0.81184813  0.60599764  0.40955708  1.0
  H  H8  1  0.35772246  0.48056125  0.17946901  1.0
  H  H9  1  0.28247831  0.49099381  0.82091623  1.0
  H  H10  1  0.71863340  0.48911679  0.17918938  1.0
  H  H11  1  0.22198929  0.64991564  0.37587589  1.0
  H  H12  1  0.77772859  0.35241635  0.62283820  1.0
  H  H13  1  0.98841634  0.33164167  0.64612619  1.0
  H  H14  1  0.01129161  0.67146711  0.35345961  1.0
  H  H15  1  0.82823134  0.48636556  0.01928199  1.0
  C  C16  1  0.52610845  0.48545295  0.30212557  1.0
  C  C17  1  0.02455657  0.46262531  0.53488550  1.0
  C  C18  1  0.50408629  0.72175869  0.48537197  1.0
  C  C19  1  0.49737893  0.28126424  0.51456394  1.0
  C  C20  1  0.50331499  0.84290319  0.48779090  1.0
  C  C21  1  0.49953996  0.16008097  0.51101394  1.0
  C  C22  1  0.50257135  0.94510434  0.49492796  1.0
  C  C23  1  0.50113299  0.05785342  0.50330420  1.0
  C  C24  1  0.46352541  0.50576335  0.81241899  1.0
  C  C25  1  0.53613644  0.48501542  0.18798348  1.0
  C  C26  1  0.65449139  0.49659510  0.02938041  1.0
  C  C27  1  0.47252039  0.51317854  0.69847994  1.0
  C  C28  1  0.34714786  0.48235220  0.97044939  1.0
  C  C29  1  0.64380184  0.48953085  0.13510632  1.0
  C  C30  1  0.35701418  0.49308789  0.86505587  1.0
  C  C31  1  0.43892721  0.48262240  0.13499586  1.0
  C  C32  1  0.56087208  0.50726021  0.86534077  1.0
  C  C33  1  0.44621382  0.48676321  0.02744056  1.0
  C  C34  1  0.55472570  0.49708809  0.97255710  1.0
  C  C35  1  0.95279559  0.39317111  0.59317647  1.0
  C  C36  1  0.04675062  0.61052639  0.40698690  1.0
  C  C37  1  0.83772877  0.40388943  0.58126789  1.0
  C  C38  1  0.16191470  0.59945861  0.41858271  1.0
  C  C39  1  0.85531072  0.54639611  0.45992545  1.0
  C  C40  1  0.14409387  0.45800984  0.54094329  1.0
  C  C41  1  0.97491443  0.54163150  0.46581012  1.0
  N  N42  1  0.20885213  0.52398888  0.48514040  1.0
  N  N43  1  0.79064794  0.47997502  0.51530791  1.0
  N  N44  1  0.76016962  0.50800153  0.97859474  1.0
  N  N45  1  0.24133745  0.47141655  0.02197115  1.0
  O  O46  1  0.42576332  0.49513841  0.34596970  1.0
  O  O47  1  0.57220259  0.51472503  0.65408835  1.0
  O  O48  1  0.61803438  0.47735965  0.34810054  1.0
  O  O49  1  0.38032078  0.51595218  0.65304191  1.0
  O  O50  1  0.40721131  0.68153963  0.48783493  1.0
  O  O51  1  0.59303659  0.32242816  0.52009453  1.0
  O  O52  1  0.60138556  0.66725016  0.48235195  1.0
  O  O53  1  0.40028217  0.33487942  0.51051599  1.0
