# generated using pymatgen
data_ZnH21C24N3ClO4
_symmetry_space_group_name_H-M   'P 1'
_cell_length_a   12.31045159
_cell_length_b   13.07799658
_cell_length_c   19.27430062
_cell_angle_alpha   87.03712075
_cell_angle_beta   86.37929195
_cell_angle_gamma   85.13685724
_symmetry_Int_Tables_number   1
_chemical_formula_structural   ZnH21C24N3ClO4
_chemical_formula_sum   'Zn2 H42 C48 N6 Cl2 O8'
_cell_volume   3082.39195883
_cell_formula_units_Z   2
loop_
 _symmetry_equiv_pos_site_id
 _symmetry_equiv_pos_as_xyz
  1  'x, y, z'
loop_
 _atom_site_type_symbol
 _atom_site_label
 _atom_site_symmetry_multiplicity
 _atom_site_fract_x
 _atom_site_fract_y
 _atom_site_fract_z
 _atom_site_occupancy
  Zn  Zn0  1  0.62443955  0.50075619  0.48984933  1.0
  Zn  Zn1  1  0.37369594  0.49758902  0.51030848  1.0
  H  H2  1  0.01478315  0.35071893  0.60625879  1.0
  H  H3  1  0.31046348  0.81164366  0.57317431  1.0
  H  H4  1  0.29613289  0.00191494  0.58360598  1.0
  H  H5  1  0.69175489  0.99441451  0.42520982  1.0
  H  H6  1  0.53779577  0.79551797  0.21219676  1.0
  H  H7  1  0.39390456  0.79809061  0.20870223  1.0
  H  H8  1  0.45091943  0.85677940  0.27730907  1.0
  H  H9  1  0.38422560  0.68952970  0.32110138  1.0
  H  H10  1  0.52502714  0.68936722  0.32672841  1.0
  H  H11  1  0.47295470  0.21278881  0.77450050  1.0
  H  H12  1  0.42163215  0.26640454  0.69523713  1.0
  H  H13  1  0.98296854  0.65046356  0.39235715  1.0
  H  H14  1  0.52238005  0.16069696  0.69385232  1.0
  H  H15  1  0.60665612  0.32349946  0.65731545  1.0
  H  H16  1  0.65955321  0.27006878  0.73524092  1.0
  H  H17  1  0.80184053  0.25434248  0.49938772  1.0
  H  H18  1  0.92734693  0.24147036  0.54159919  1.0
  H  H19  1  0.80391015  0.20826741  0.58728635  1.0
  H  H20  1  0.84567264  0.37993155  0.62428020  1.0
  H  H21  1  0.72567254  0.38938392  0.57955979  1.0
  H  H22  1  0.06711221  0.75936662  0.45987884  1.0
  H  H23  1  0.19136970  0.74747855  0.50340768  1.0
  H  H24  1  0.51531158  0.33212884  0.15550790  1.0
  H  H25  1  0.19029153  0.79647426  0.41602221  1.0
  H  H26  1  0.27270553  0.61606576  0.42148445  1.0
  H  H27  1  0.15350200  0.62507047  0.37584735  1.0
  H  H28  1  0.86984449  0.59492927  0.28737067  1.0
  H  H29  1  0.75680926  0.51985392  0.30963258  1.0
  H  H30  1  0.73441641  0.64619820  0.27249944  1.0
  H  H31  1  0.68630739  0.64540178  0.40041756  1.0
  H  H32  1  0.79711704  0.71978437  0.37828266  1.0
  H  H33  1  0.24648973  0.48963776  0.68386317  1.0
  H  H34  1  0.13029649  0.42080029  0.71029979  1.0
  H  H35  1  0.47319530  0.66192345  0.84383166  1.0
  H  H36  1  0.26439227  0.36694570  0.72678468  1.0
  H  H37  1  0.19665501  0.28460213  0.62547704  1.0
  H  H38  1  0.31039990  0.35364763  0.59909795  1.0
  H  H39  1  0.47151866  0.66255262  0.14622475  1.0
  H  H40  1  0.57093152  0.33748586  0.85210238  1.0
  H  H41  1  0.36870472  0.17115519  0.55161493  1.0
  H  H42  1  0.61447743  0.82520981  0.45244357  1.0
  H  H43  1  0.67712658  0.18462438  0.43559390  1.0
  C  C44  1  0.46941737  0.69497364  0.50355561  1.0
  C  C45  1  0.43987161  0.13138778  0.52525111  1.0
  C  C46  1  0.53949410  0.97294611  0.48497942  1.0
  C  C47  1  0.44699958  0.02333777  0.52229287  1.0
  C  C48  1  0.04597463  0.40704943  0.56824922  1.0
  C  C49  1  0.95202880  0.59380506  0.43023800  1.0
  C  C50  1  0.15579630  0.42160530  0.56614702  1.0
  C  C51  1  0.84204058  0.57941977  0.43257843  1.0
  C  C52  1  0.13708755  0.54978474  0.47595388  1.0
  C  C53  1  0.86111911  0.45205300  0.52319634  1.0
  C  C54  1  0.02243250  0.53712300  0.47560639  1.0
  C  C55  1  0.51142518  0.30208069  0.49951815  1.0
  C  C56  1  0.97587524  0.46393038  0.52285238  1.0
  C  C57  1  0.49676963  0.49679654  0.36617389  1.0
  C  C58  1  0.52079545  0.49920905  0.63258736  1.0
  C  C59  1  0.50271422  0.40517015  0.25409645  1.0
  C  C60  1  0.49758591  0.58946015  0.74529505  1.0
  C  C61  1  0.50484685  0.40417433  0.18192687  1.0
  C  C62  1  0.49503651  0.59092915  0.81733846  1.0
  C  C63  1  0.49464989  0.49803216  0.14333980  1.0
  C  C64  1  0.52053048  0.49887130  0.85591255  1.0
  C  C65  1  0.47979509  0.59104591  0.17766523  1.0
  C  C66  1  0.52181810  0.18792722  0.49494361  1.0
  C  C67  1  0.55039846  0.40794035  0.82125740  1.0
  C  C68  1  0.47725587  0.59209742  0.25008107  1.0
  C  C69  1  0.55365156  0.40656353  0.74869175  1.0
  C  C70  1  0.49073505  0.49744039  0.28850988  1.0
  C  C71  1  0.52531006  0.49853268  0.71041300  1.0
  C  C72  1  0.51484932  0.49876695  0.93225889  1.0
  C  C73  1  0.50145364  0.49845355  0.06699259  1.0
  C  C74  1  0.46137882  0.69074371  0.28882541  1.0
  C  C75  1  0.46101959  0.79043922  0.24410604  1.0
  C  C76  1  0.58523473  0.30724869  0.71275353  1.0
  C  C77  1  0.46282439  0.80860101  0.51070784  1.0
  C  C78  1  0.49530590  0.23229768  0.71959960  1.0
  C  C79  1  0.81392871  0.37283005  0.57276277  1.0
  C  C80  1  0.83922269  0.26270671  0.54867522  1.0
  C  C81  1  0.18410148  0.63097076  0.42783522  1.0
  C  C82  1  0.15565260  0.73999790  0.45344800  1.0
  C  C83  1  0.77209377  0.64067748  0.38133660  1.0
  C  C84  1  0.78456547  0.59742974  0.30838119  1.0
  C  C85  1  0.22489310  0.36236902  0.61862669  1.0
  C  C86  1  0.21547439  0.41327383  0.68907738  1.0
  C  C87  1  0.36513316  0.96322641  0.55430132  1.0
  C  C88  1  0.62204973  0.03309627  0.45386130  1.0
  C  C89  1  0.37246214  0.85845563  0.54852032  1.0
  C  C90  1  0.61433200  0.13799691  0.45946352  1.0
  C  C91  1  0.54490091  0.86508271  0.48036200  1.0
  N  N92  1  0.48337361  0.58960168  0.03107648  1.0
  N  N93  1  0.53356166  0.40772386  0.96815575  1.0
  N  N94  1  0.49059499  0.58976988  0.96271128  1.0
  N  N95  1  0.52718600  0.40764835  0.03649438  1.0
  N  N96  1  0.79710819  0.50914110  0.47972951  1.0
  N  N97  1  0.20078468  0.49229983  0.51940287  1.0
  Cl  Cl98  1  0.51572293  0.28915381  0.30212062  1.0
  Cl  Cl99  1  0.46506772  0.70293186  0.69748745  1.0
  O  O100  1  0.56014889  0.65165781  0.48064512  1.0
  O  O101  1  0.41462296  0.34506027  0.50065399  1.0
  O  O102  1  0.38277676  0.65016575  0.52027972  1.0
  O  O103  1  0.59924187  0.34624208  0.50257745  1.0
  O  O104  1  0.59240692  0.48502746  0.38783989  1.0
  O  O105  1  0.43043435  0.47924677  0.61080096  1.0
  O  O106  1  0.40734799  0.51024598  0.40204032  1.0
  O  O107  1  0.60713097  0.51824660  0.59642249  1.0
