# generated using pymatgen
data_Zn2H90C77N4O19
_symmetry_space_group_name_H-M   'P 1'
_cell_length_a   9.97899463
_cell_length_b   10.88688045
_cell_length_c   23.44633745
_cell_angle_alpha   90.43846675
_cell_angle_beta   90.13427817
_cell_angle_gamma   90.80703656
_symmetry_Int_Tables_number   1
_chemical_formula_structural   Zn2H90C77N4O19
_chemical_formula_sum   'Zn2 H90 C77 N4 O19'
_cell_volume   2546.87803767
_cell_formula_units_Z   1
loop_
 _symmetry_equiv_pos_site_id
 _symmetry_equiv_pos_as_xyz
  1  'x, y, z'
loop_
 _atom_site_type_symbol
 _atom_site_label
 _atom_site_symmetry_multiplicity
 _atom_site_fract_x
 _atom_site_fract_y
 _atom_site_fract_z
 _atom_site_occupancy
  Zn  Zn0  1  0.63237835  0.51567702  0.50321446  1.0
  Zn  Zn1  1  0.34188222  0.51024254  0.49777649  1.0
  H  H2  1  0.55730588  0.78755678  0.93421838  1.0
  H  H3  1  0.65111751  0.36698252  0.66834317  1.0
  H  H4  1  0.67449251  0.35032277  0.77477643  1.0
  H  H5  1  0.28140960  0.89183625  0.49347334  1.0
  H  H6  1  0.28174116  0.12131983  0.48432123  1.0
  H  H7  1  0.78422065  0.12963040  0.56176623  1.0
  H  H8  1  0.81256128  0.90862499  0.48158241  1.0
  H  H9  1  0.52816321  0.80876605  0.04146571  1.0
  H  H10  1  0.85322737  0.72823015  0.41661669  1.0
  H  H11  1  0.12945797  0.64718959  0.37665663  1.0
  H  H12  1  0.36433410  0.38423045  0.31369967  1.0
  H  H13  1  0.34376433  0.79198977  0.71285019  1.0
  H  H14  1  0.40455078  0.75076476  0.64429639  1.0
  H  H15  1  0.23671825  0.79901928  0.65193935  1.0
  H  H16  1  0.24333428  0.57061980  0.64065575  1.0
  H  H17  1  0.18141959  0.61020717  0.70834973  1.0
  H  H18  1  0.88284886  0.24550795  0.41000940  1.0
  H  H19  1  0.71731057  0.25235364  0.43708587  1.0
  H  H20  1  0.84350657  0.04511041  0.36697297  1.0
  H  H21  1  0.69426069  0.02183706  0.40586804  1.0
  H  H22  1  0.58221081  0.19173800  0.35376250  1.0
  H  H23  1  0.64266443  0.08064803  0.30462831  1.0
  H  H24  1  0.72977354  0.22222377  0.31435439  1.0
  H  H25  1  0.76417951  0.00842259  0.63960253  1.0
  H  H26  1  0.63986112  0.89297114  0.62755260  1.0
  H  H27  1  0.78958493  0.85699716  0.66412061  1.0
  H  H28  1  0.79971691  0.77671925  0.56455992  1.0
  H  H29  1  0.92383149  0.89198995  0.57493857  1.0
  H  H30  1  0.26193247  0.26643009  0.57996112  1.0
  H  H31  1  0.11787376  0.23334528  0.53640749  1.0
  H  H32  1  0.11287272  0.24267167  0.66709514  1.0
  H  H33  1  0.97951364  0.19487858  0.62184592  1.0
  H  H34  1  0.12379776  0.01538369  0.58733360  1.0
  H  H35  1  0.09271124  0.01087012  0.66178770  1.0
  H  H36  1  0.25054165  0.06322354  0.63605488  1.0
  H  H37  1  0.76976208  0.57197855  0.63895100  1.0
  H  H38  1  0.94074326  0.59940915  0.61971948  1.0
  H  H39  1  0.85608189  0.39762242  0.70283169  1.0
  H  H40  1  0.02066600  0.45169107  0.68908234  1.0
  H  H41  1  0.95481616  0.66346139  0.72720434  1.0
  H  H42  1  0.93246472  0.54857799  0.77964073  1.0
  H  H43  1  0.79183155  0.60451677  0.74206723  1.0
  H  H44  1  0.79627006  0.46280472  0.30455544  1.0
  H  H45  1  0.84799701  0.42028632  0.37370580  1.0
  H  H46  1  0.04351113  0.51728891  0.28314675  1.0
  H  H47  1  0.08748319  0.43954976  0.34616997  1.0
  H  H48  1  0.96628220  0.24694154  0.30805116  1.0
  H  H49  1  0.09947509  0.29409398  0.26328708  1.0
  H  H50  1  0.93115617  0.32635964  0.24411480  1.0
  H  H51  1  0.05714438  0.96105946  0.43842480  1.0
  H  H52  1  0.97166647  0.87235557  0.38573940  1.0
  H  H53  1  0.27338578  0.92792580  0.38742530  1.0
  H  H54  1  0.18994109  0.84017741  0.33418181  1.0
  H  H55  1  0.05382184  0.02540774  0.30716594  1.0
  H  H56  1  0.22817883  0.05735868  0.30217284  1.0
  H  H57  1  0.13623525  0.11297981  0.36139391  1.0
  H  H58  1  0.80352587  0.18613614  0.07843913  1.0
  H  H59  1  0.73868150  0.08074332  0.02535205  1.0
  H  H60  1  0.71374277  0.05419137  0.15527802  1.0
  H  H61  1  0.64686069  0.94856690  0.10473569  1.0
  H  H62  1  0.88089713  0.90628384  0.06806287  1.0
  H  H63  1  0.86929567  0.87605934  0.14206531  1.0
  H  H64  1  0.94834876  0.01322830  0.11847458  1.0
  H  H65  1  0.43818579  0.00986269  0.92100714  1.0
  H  H66  1  0.36018996  0.15495139  0.92036050  1.0
  H  H67  1  0.39635978  0.99566757  0.02739591  1.0
  H  H68  1  0.31507061  0.13823969  0.02570360  1.0
  H  H69  1  0.14165261  0.04895157  0.95659687  1.0
  H  H70  1  0.14533425  0.96641601  0.02159467  1.0
  H  H71  1  0.22247762  0.90495201  0.95974722  1.0
  H  H72  1  0.18322261  0.47145344  0.19868618  1.0
  H  H73  1  0.28479486  0.49198538  0.13768431  1.0
  H  H74  1  0.18500826  0.35625588  0.14454225  1.0
  H  H75  1  0.32134008  0.28938183  0.22777426  1.0
  H  H76  1  0.42378666  0.30836555  0.16801203  1.0
  H  H77  1  0.48735086  0.86817090  0.29261755  1.0
  H  H78  1  0.41083807  0.79169966  0.35087337  1.0
  H  H79  1  0.52617642  0.91413521  0.36404856  1.0
  H  H80  1  0.63313702  0.71315821  0.38246360  1.0
  H  H81  1  0.71203094  0.78398729  0.32429850  1.0
  H  H82  1  0.85218803  0.54444323  0.20688501  1.0
  H  H83  1  0.80465693  0.61040569  0.14134159  1.0
  H  H84  1  0.92295311  0.68710357  0.18552108  1.0
  H  H85  1  0.67327116  0.76929695  0.18930797  1.0
  H  H86  1  0.76641306  0.75374740  0.25224907  1.0
  H  H87  1  0.13643197  0.43508869  0.78916046  1.0
  H  H88  1  0.23844674  0.40191873  0.84870117  1.0
  H  H89  1  0.11069164  0.51398385  0.85497630  1.0
  H  H90  1  0.33425762  0.61867571  0.84592550  1.0
  H  H91  1  0.23390174  0.65164234  0.78721554  1.0
  C  C92  1  0.49507456  0.74581096  0.50632042  1.0
  C  C93  1  0.55290479  0.70755242  0.96186901  1.0
  C  C94  1  0.54105741  0.71947894  0.02106150  1.0
  C  C95  1  0.54585871  0.61555908  0.05506547  1.0
  C  C96  1  0.56052263  0.49769283  0.03029239  1.0
  C  C97  1  0.58421356  0.39403900  0.06496188  1.0
  C  C98  1  0.58265475  0.27723394  0.04021624  1.0
  C  C99  1  0.55296500  0.26135283  0.98018314  1.0
  C  C100  1  0.52306248  0.62655514  0.11718660  1.0
  C  C101  1  0.61381590  0.41553054  0.12641446  1.0
  C  C102  1  0.44791703  0.44713286  0.23431234  1.0
  C  C103  1  0.48266149  0.52981716  0.39024388  1.0
  C  C104  1  0.43106780  0.45090026  0.29329853  1.0
  C  C105  1  0.49657993  0.53957642  0.32668728  1.0
  C  C106  1  0.57964597  0.63035858  0.30215029  1.0
  C  C107  1  0.61051028  0.62021261  0.24349653  1.0
  C  C108  1  0.54122138  0.53037302  0.21089380  1.0
  C  C109  1  0.39232804  0.52588393  0.76822388  1.0
  C  C110  1  0.38042835  0.53653669  0.70841059  1.0
  C  C111  1  0.47813713  0.48170623  0.67354474  1.0
  C  C112  1  0.58047818  0.41150029  0.69691078  1.0
  C  C113  1  0.59325704  0.40176855  0.75564040  1.0
  C  C114  1  0.48897715  0.27970878  0.49611027  1.0
  C  C115  1  0.50200262  0.46178944  0.79040825  1.0
  C  C116  1  0.61138590  0.95176177  0.51100990  1.0
  C  C117  1  0.49385026  0.88185754  0.50657925  1.0
  C  C118  1  0.37404854  0.94553557  0.49764545  1.0
  C  C119  1  0.37456248  0.07292214  0.49264926  1.0
  C  C120  1  0.49335644  0.14356491  0.49809430  1.0
  C  C121  1  0.61159587  0.07943172  0.50763816  1.0
  C  C122  1  0.76274549  0.08925594  0.51943508  1.0
  C  C123  1  0.76169607  0.94300686  0.52000447  1.0
  C  C124  1  0.05669705  0.56639444  0.45982663  1.0
  C  C125  1  0.48058402  0.49802538  0.61001396  1.0
  C  C126  1  0.05735750  0.45416343  0.54040099  1.0
  C  C127  1  0.91353127  0.46414398  0.54236205  1.0
  C  C128  1  0.91878665  0.55751024  0.45673392  1.0
  C  C129  1  0.90862146  0.64456850  0.40583867  1.0
  C  C130  1  0.06758050  0.66531689  0.41448322  1.0
  C  C131  1  0.51752441  0.35443138  0.88230318  1.0
  C  C132  1  0.56112198  0.58134984  0.87402805  1.0
  C  C133  1  0.55503835  0.59137975  0.93663159  1.0
  C  C134  1  0.55223757  0.48380479  0.97007247  1.0
  C  C135  1  0.54210479  0.36445783  0.94479532  1.0
  C  C136  1  0.27156405  0.61252794  0.68165621  1.0
  C  C137  1  0.31661337  0.74643376  0.67234318  1.0
  C  C138  1  0.80049120  0.18990478  0.42799727  1.0
  C  C139  1  0.75564171  0.09219847  0.38448099  1.0
  C  C140  1  0.67345248  0.14969714  0.33663016  1.0
  C  C141  1  0.81467544  0.87582713  0.57230633  1.0
  C  C142  1  0.74852606  0.91077278  0.62883268  1.0
  C  C143  1  0.15211536  0.26743898  0.57830378  1.0
  C  C144  1  0.08923665  0.19524909  0.62659914  1.0
  C  C145  1  0.14200529  0.06400515  0.62795648  1.0
  C  C146  1  0.86886302  0.53005468  0.63561609  1.0
  C  C147  1  0.91561915  0.47984764  0.69209067  1.0
  C  C148  1  0.89765497  0.57949758  0.73780171  1.0
  C  C149  1  0.87486227  0.47788508  0.33691862  1.0
  C  C150  1  0.01095423  0.44384103  0.31229534  1.0
  C  C151  1  0.00165287  0.32118952  0.28015580  1.0
  C  C152  1  0.06920736  0.88548952  0.40747413  1.0
  C  C153  1  0.17790053  0.91695901  0.36447531  1.0
  C  C154  1  0.14709152  0.03443531  0.33203873  1.0
  C  C155  1  0.72530037  0.11628423  0.06909782  1.0
  C  C156  1  0.72984361  0.01433030  0.11261948  1.0
  C  C157  1  0.86439647  0.94893743  0.11012495  1.0
  C  C158  1  0.41498477  0.09062902  0.94736335  1.0
  C  C159  1  0.33561434  0.05520340  0.00020686  1.0
  C  C160  1  0.20400441  0.99042028  0.98361823  1.0
  C  C161  1  0.36293497  0.35941006  0.19893010  1.0
  C  C162  1  0.24757220  0.42338641  0.16810479  1.0
  C  C163  1  0.61768507  0.74121343  0.33813908  1.0
  C  C164  1  0.50432847  0.83478421  0.33616748  1.0
  C  C165  1  0.71881738  0.70117609  0.21756320  1.0
  C  C166  1  0.83011731  0.63167757  0.18591202  1.0
  C  C167  1  0.28741367  0.57686007  0.80797059  1.0
  C  C168  1  0.18732000  0.47636571  0.82639611  1.0
  N  N169  1  0.52546389  0.46522410  0.85124454  1.0
  N  N170  1  0.55928598  0.52459622  0.14984951  1.0
  N  N171  1  0.13085225  0.51135651  0.50009518  1.0
  N  N172  1  0.84257662  0.50971605  0.49883072  1.0
  O  O173  1  0.60780746  0.69788416  0.49430598  1.0
  O  O174  1  0.59015486  0.66843403  0.84311929  1.0
  O  O175  1  0.47469225  0.71922191  0.13887756  1.0
  O  O176  1  0.67907496  0.34585453  0.15611590  1.0
  O  O177  1  0.38563856  0.68918170  0.51656694  1.0
  O  O178  1  0.58848388  0.49954454  0.41668395  1.0
  O  O179  1  0.36779386  0.54795439  0.41214261  1.0
  O  O180  1  0.59586426  0.33529011  0.51248009  1.0
  O  O181  1  0.38079437  0.32910483  0.47967140  1.0
  O  O182  1  0.58849225  0.54162079  0.58920007  1.0
  O  O183  1  0.37736990  0.46529010  0.58178543  1.0
  O  O184  1  0.49090627  0.25765615  0.85711323  1.0
  O  O185  1  0.85444161  0.14602575  0.48080000  1.0
  O  O186  1  0.11560191  0.39764817  0.58374747  1.0
  O  O187  1  0.85108530  0.43358634  0.59080203  1.0
  O  O188  1  0.86226816  0.60493772  0.35244517  1.0
  O  O189  1  0.09846464  0.77933087  0.44158868  1.0
  O  O190  1  0.59576529  0.17574186  0.07280717  1.0
  O  O191  1  0.54610349  0.14327681  0.96166619  1.0
