# generated using pymatgen
data_ZnH4C22I4NO7
_symmetry_space_group_name_H-M   'P 1'
_cell_length_a   14.78324378
_cell_length_b   14.98545959
_cell_length_c   16.04165719
_cell_angle_alpha   89.98477739
_cell_angle_beta   88.97106462
_cell_angle_gamma   92.46368832
_symmetry_Int_Tables_number   1
_chemical_formula_structural   ZnH4C22I4NO7
_chemical_formula_sum   'Zn2 H8 C44 I8 N2 O14'
_cell_volume   3549.90841971
_cell_formula_units_Z   2
loop_
 _symmetry_equiv_pos_site_id
 _symmetry_equiv_pos_as_xyz
  1  'x, y, z'
loop_
 _atom_site_type_symbol
 _atom_site_label
 _atom_site_symmetry_multiplicity
 _atom_site_fract_x
 _atom_site_fract_y
 _atom_site_fract_z
 _atom_site_occupancy
  Zn  Zn0  1  0.39717691  0.49247715  0.50871561  1.0
  Zn  Zn1  1  0.58944489  0.49916362  0.50156182  1.0
  H  H2  1  0.59185668  0.76442579  0.58105371  1.0
  H  H3  1  0.45887929  0.23120125  0.38594330  1.0
  H  H4  1  0.35639749  0.80738591  0.32873315  1.0
  H  H5  1  0.52860161  0.28360470  0.66263795  1.0
  H  H6  1  0.56121179  0.73525106  0.95457084  1.0
  H  H7  1  0.48538347  0.33851072  0.14810860  1.0
  H  H8  1  0.48800924  0.66238282  0.17688157  1.0
  H  H9  1  0.53097068  0.31408192  0.89448965  1.0
  C  C10  1  0.49797365  0.52133299  0.66337164  1.0
  C  C11  1  0.48779033  0.52440576  0.91686761  1.0
  C  C12  1  0.48351967  0.49695527  0.18080975  1.0
  C  C13  1  0.49278061  0.53034478  0.82895120  1.0
  C  C14  1  0.49751913  0.52787855  0.75317490  1.0
  C  C15  1  0.48241900  0.48603326  0.25609091  1.0
  C  C16  1  0.03448517  0.41122087  0.53857731  1.0
  C  C17  1  0.95052580  0.56392269  0.47380175  1.0
  C  C18  1  0.04525171  0.56351391  0.47637781  1.0
  C  C19  1  0.93979393  0.41046720  0.53420783  1.0
  C  C20  1  0.08589619  0.48738575  0.50941730  1.0
  C  C21  1  0.48192894  0.47760301  0.34593452  1.0
  C  C22  1  0.89938909  0.48721460  0.50239989  1.0
  C  C23  1  0.18179644  0.48790249  0.51320847  1.0
  C  C24  1  0.80360249  0.48840631  0.49942074  1.0
  C  C25  1  0.49665254  0.32520301  0.52032416  1.0
  C  C26  1  0.50138899  0.66491294  0.47678029  1.0
  C  C27  1  0.47927020  0.81535362  0.40463804  1.0
  C  C28  1  0.55066762  0.17641336  0.57257753  1.0
  C  C29  1  0.51360273  0.76505856  0.46993825  1.0
  C  C30  1  0.51025727  0.22678892  0.51000881  1.0
  C  C31  1  0.56366509  0.80597500  0.53308184  1.0
  C  C32  1  0.63412082  0.03604993  0.60428025  1.0
  C  C33  1  0.48815333  0.18963327  0.43327670  1.0
  C  C34  1  0.57648373  0.89887510  0.53685951  1.0
  C  C35  1  0.50065553  0.09898190  0.41716566  1.0
  C  C36  1  0.53960303  0.95168954  0.47236847  1.0
  C  C37  1  0.54017600  0.04617579  0.48035094  1.0
  C  C38  1  0.49790304  0.90913952  0.40222429  1.0
  C  C39  1  0.57495405  0.08781579  0.55411096  1.0
  C  C40  1  0.63156645  0.94430970  0.59857098  1.0
  C  C41  1  0.47977984  0.05636971  0.33865930  1.0
  C  C42  1  0.41603244  0.76873485  0.34612617  1.0
  C  C43  1  0.48066063  0.96482700  0.33064026  1.0
  C  C44  1  0.54568145  0.21219590  0.65875708  1.0
  C  C45  1  0.50633826  0.69153993  0.92793782  1.0
  C  C46  1  0.47764265  0.34034512  0.07932694  1.0
  C  C47  1  0.48370037  0.67300390  0.10854888  1.0
  C  C48  1  0.47127866  0.35669105  0.89933687  1.0
  C  C49  1  0.48867401  0.59274283  0.05569752  1.0
  C  C50  1  0.48066487  0.43865788  0.95454153  1.0
  C  C51  1  0.49264739  0.60131108  0.96831511  1.0
  C  C52  1  0.48160460  0.43012069  0.04143683  1.0
  C  C53  1  0.48522558  0.50696131  0.09341935  1.0
  I  I54  1  0.71195321  0.86591527  0.67414501  1.0
  I  I55  1  0.45537830  0.13769724  0.23488626  1.0
  I  I56  1  0.74121476  0.10359066  0.66730426  1.0
  I  I57  1  0.47505494  0.90203787  0.21287268  1.0
  I  I58  1  0.85563950  0.30044954  0.57233402  1.0
  I  I59  1  0.12865413  0.67003732  0.43320941  1.0
  I  I60  1  0.88222554  0.67327795  0.43045301  1.0
  I  I61  1  0.10293038  0.30461290  0.58724840  1.0
  N  N62  1  0.72551374  0.49221734  0.49639839  1.0
  N  N63  1  0.26023076  0.48916042  0.51609222  1.0
  O  O64  1  0.42228518  0.49702026  0.63207928  1.0
  O  O65  1  0.55235593  0.16768934  0.72238977  1.0
  O  O66  1  0.46485648  0.71347213  0.86668493  1.0
  O  O67  1  0.46734792  0.27114401  0.03887126  1.0
  O  O68  1  0.47364361  0.74815161  0.07970168  1.0
  O  O69  1  0.40329204  0.34225332  0.85877865  1.0
  O  O70  1  0.55690787  0.46112707  0.37878466  1.0
  O  O71  1  0.40598383  0.48816039  0.38198718  1.0
  O  O72  1  0.57258176  0.53887221  0.62495379  1.0
  O  O73  1  0.41929466  0.35462802  0.50714115  1.0
  O  O74  1  0.57472014  0.62502982  0.46378509  1.0
  O  O75  1  0.42550519  0.63075529  0.50030873  1.0
  O  O76  1  0.56890578  0.37087791  0.53697728  1.0
  O  O77  1  0.42188139  0.69056870  0.32465590  1.0
