# generated using pymatgen
data_Zn2H16C31N9
_symmetry_space_group_name_H-M   'P 1'
_cell_length_a   18.62678683
_cell_length_b   18.70373494
_cell_length_c   18.81755891
_cell_angle_alpha   110.76781384
_cell_angle_beta   108.56761319
_cell_angle_gamma   103.35592875
_symmetry_Int_Tables_number   1
_chemical_formula_structural   Zn2H16C31N9
_chemical_formula_sum   'Zn4 H32 C62 N18'
_cell_volume   5355.59628885
_cell_formula_units_Z   2
loop_
 _symmetry_equiv_pos_site_id
 _symmetry_equiv_pos_as_xyz
  1  'x, y, z'
loop_
 _atom_site_type_symbol
 _atom_site_label
 _atom_site_symmetry_multiplicity
 _atom_site_fract_x
 _atom_site_fract_y
 _atom_site_fract_z
 _atom_site_occupancy
  Zn  Zn0  1  0.61281398  0.99303849  0.12700182  1.0
  Zn  Zn1  1  0.38592460  0.00182561  0.88259759  1.0
  Zn  Zn2  1  0.51284456  0.87395456  0.92965466  1.0
  Zn  Zn3  1  0.49207575  0.09869763  0.10114835  1.0
  H  H4  1  0.76721562  0.11950643  0.13139805  1.0
  H  H5  1  0.35849054  0.00767459  0.14509869  1.0
  H  H6  1  0.62806776  0.28342176  0.25468957  1.0
  H  H7  1  0.40081594  0.72295338  0.74517810  1.0
  H  H8  1  0.28341899  0.97228334  0.67381277  1.0
  H  H9  1  0.50414604  0.85786936  0.15440420  1.0
  H  H10  1  0.62712002  0.26013466  0.12617135  1.0
  H  H11  1  0.50371597  0.69663715  0.92251241  1.0
  H  H12  1  0.03224176  0.41590392  0.33024113  1.0
  H  H13  1  0.00894872  0.61284431  0.56784024  1.0
  H  H14  1  0.70412705  0.82475090  0.73294593  1.0
  H  H15  1  0.20643421  0.99129929  0.87245747  1.0
  H  H16  1  0.60734484  0.82484158  0.67682124  1.0
  H  H17  1  0.69778405  0.88776484  0.68138596  1.0
  H  H18  1  0.65582910  0.97622617  0.78407233  1.0
  H  H19  1  0.75128998  0.97405434  0.83804952  1.0
  H  H20  1  0.67680384  0.85751572  0.85964675  1.0
  H  H21  1  0.58388808  0.86910924  0.81390127  1.0
  H  H22  1  0.34419861  0.28559595  0.30375277  1.0
  H  H23  1  0.44532821  0.32630567  0.31472512  1.0
  H  H24  1  0.37568257  0.37368195  0.28807519  1.0
  H  H25  1  0.38709348  0.28631371  0.15817371  1.0
  H  H26  1  0.05935940  0.58370767  0.37085651  1.0
  H  H27  1  0.28670637  0.24670029  0.14774983  1.0
  H  H28  1  0.31950845  0.14260207  0.19260558  1.0
  H  H29  1  0.42023976  0.18111520  0.20287993  1.0
  H  H30  1  0.98148001  0.44368117  0.52734102  1.0
  H  H31  1  0.12695981  0.46508369  0.50363743  1.0
  H  H32  1  0.91460915  0.56272367  0.39391097  1.0
  H  H33  1  0.48084997  0.13907187  0.85427160  1.0
  H  H34  1  0.69804804  0.85759095  0.17714108  1.0
  H  H35  1  0.50222790  0.92161764  0.68801952  1.0
  C  C36  1  0.72635259  0.06804037  0.06903739  1.0
  C  C37  1  0.00011851  0.47601325  0.49390753  1.0
  C  C38  1  0.02759704  0.45979617  0.38369300  1.0
  C  C39  1  0.01282706  0.56773494  0.51465297  1.0
  C  C40  1  0.80729224  0.31826932  0.32340212  1.0
  C  C41  1  0.22852829  0.69534846  0.63650540  1.0
  C  C42  1  0.96216528  0.54155149  0.41924131  1.0
  C  C43  1  0.07870989  0.48576704  0.47900418  1.0
  C  C44  1  0.94633550  0.44754186  0.39695293  1.0
  C  C45  1  0.09471712  0.57999574  0.50307941  1.0
  C  C46  1  0.87048068  0.37813790  0.35132831  1.0
  C  C47  1  0.25378993  0.03112619  0.93692688  1.0
  C  C48  1  0.16941670  0.64563085  0.56876184  1.0
  C  C49  1  0.59219264  0.31185969  0.99371070  1.0
  C  C50  1  0.61912079  0.67477502  0.05167683  1.0
  C  C51  1  0.51079377  0.15612184  0.92098854  1.0
  C  C52  1  0.64843407  0.83025755  0.11403673  1.0
  C  C53  1  0.60687505  0.38334482  0.00380795  1.0
  C  C54  1  0.62178673  0.60699079  0.04204505  1.0
  C  C55  1  0.61673184  0.46082792  0.01651532  1.0
  C  C56  1  0.62157086  0.53187719  0.02991755  1.0
  C  C57  1  0.38616870  0.89727741  0.22223985  1.0
  C  C58  1  0.56791395  0.23362325  0.99023352  1.0
  C  C59  1  0.36429123  0.92078735  0.55872734  1.0
  C  C60  1  0.37060482  0.89079057  0.27913750  1.0
  C  C61  1  0.35759451  0.90640734  0.48712387  1.0
  C  C62  1  0.35962901  0.88965160  0.34588107  1.0
  C  C63  1  0.35591361  0.89589233  0.41229755  1.0
  C  C64  1  0.82216124  0.05343984  0.00178241  1.0
  C  C65  1  0.17320326  0.07967717  0.01485605  1.0
  C  C66  1  0.89189729  0.06578544  0.00700386  1.0
  C  C67  1  0.10785808  0.08086748  0.01623337  1.0
  C  C68  1  0.96697044  0.07491265  0.01179676  1.0
  C  C69  1  0.60752358  0.74607062  0.05156888  1.0
  C  C70  1  0.03532005  0.07930523  0.01514514  1.0
  C  C71  1  0.45309392  0.93706808  0.70013431  1.0
  C  C72  1  0.40081515  0.97696330  0.14033923  1.0
  C  C73  1  0.65300529  0.23598856  0.25181637  1.0
  C  C74  1  0.36897546  0.76268180  0.76378193  1.0
  C  C75  1  0.34088765  0.96343294  0.69172249  1.0
  C  C76  1  0.47497896  0.89981610  0.14481649  1.0
  C  C77  1  0.73066154  0.16406719  0.26509593  1.0
  C  C78  1  0.28227040  0.82413189  0.77456354  1.0
  C  C79  1  0.58524722  0.21766738  0.06039122  1.0
  C  C80  1  0.38239704  0.93827571  0.64247685  1.0
  C  C81  1  0.54882681  0.74785994  0.98366630  1.0
  C  C82  1  0.66947149  0.96743895  0.93542205  1.0
  C  C83  1  0.32668051  0.11571915  0.07590339  1.0
  C  C84  1  0.74446774  0.03351758  0.00042446  1.0
  C  C85  1  0.24551702  0.07598352  0.00979218  1.0
  C  C86  1  0.79407036  0.13465483  0.28371921  1.0
  C  C87  1  0.21420426  0.84738106  0.75906401  1.0
  C  C88  1  0.65116058  0.90302507  0.85044519  1.0
  C  C89  1  0.68538217  0.93538374  0.79881497  1.0
  C  C90  1  0.67287165  0.86439556  0.71800779  1.0
  C  C91  1  0.41513529  0.91921168  0.16953604  1.0
  C  C92  1  0.35617322  0.17222607  0.16739446  1.0
  C  C93  1  0.35088852  0.25701479  0.18384376  1.0
  C  C94  1  0.38065833  0.31380402  0.27770100  1.0
  C  C95  1  0.73603740  0.24635911  0.28567627  1.0
  C  C96  1  0.28938999  0.75528762  0.71769785  1.0
  C  C97  1  0.04199721  0.55252489  0.40578801  1.0
  N  N98  1  0.64760700  0.02572178  0.04808560  1.0
  N  N99  1  0.49593373  0.94471522  0.10662089  1.0
  N  N100  1  0.65053164  0.11001109  0.21952383  1.0
  N  N101  1  0.35296906  0.87029289  0.84780523  1.0
  N  N102  1  0.54013814  0.13807414  0.03472568  1.0
  N  N103  1  0.55509567  0.82622953  0.00433582  1.0
  N  N104  1  0.61304452  0.96521672  0.96581240  1.0
  N  N105  1  0.37805679  0.09597101  0.04327718  1.0
  N  N106  1  0.84511393  0.10807261  0.29699480  1.0
  N  N107  1  0.15749034  0.86610382  0.74487483  1.0
  N  N108  1  0.33302758  0.04313285  0.95750497  1.0
  N  N109  1  0.49452013  0.10037461  0.94907061  1.0
  N  N110  1  0.61690696  0.87750216  0.08491477  1.0
  N  N111  1  0.45407150  0.95911218  0.77598933  1.0
  N  N112  1  0.45019934  0.99201372  0.10404076  1.0
  N  N113  1  0.60312967  0.15495626  0.21128209  1.0
  N  N114  1  0.40480149  0.83075577  0.83992506  1.0
  N  N115  1  0.38480079  0.97577923  0.77054741  1.0
