# generated using pymatgen
data_AlH6C24N3(ClO)6
_symmetry_space_group_name_H-M   'P 1'
_cell_length_a   3.98561055
_cell_length_b   15.82552130
_cell_length_c   15.89157295
_cell_angle_alpha   60.22413431
_cell_angle_beta   89.51142029
_cell_angle_gamma   85.23754491
_symmetry_Int_Tables_number   1
_chemical_formula_structural   AlH6C24N3(ClO)6
_chemical_formula_sum   'Al1 H6 C24 N3 Cl6 O6'
_cell_volume   866.39154589
_cell_formula_units_Z   1
loop_
 _symmetry_equiv_pos_site_id
 _symmetry_equiv_pos_as_xyz
  1  'x, y, z'
loop_
 _atom_site_type_symbol
 _atom_site_label
 _atom_site_symmetry_multiplicity
 _atom_site_fract_x
 _atom_site_fract_y
 _atom_site_fract_z
 _atom_site_occupancy
  Al  Al0  1  0.03213471  0.99814949  0.50049115  1.0
  H  H1  1  0.52347787  0.54279585  0.59187991  1.0
  H  H2  1  0.65414308  0.54529674  0.85930144  1.0
  H  H3  1  0.64955907  0.34906473  0.60092826  1.0
  H  H4  1  0.36353541  0.09585766  0.85941814  1.0
  H  H5  1  0.47775524  0.09364899  0.04816811  1.0
  H  H6  1  0.54035674  0.36386017  0.04776189  1.0
  C  C7  1  0.51204991  0.07765411  0.35072155  1.0
  C  C8  1  0.57918569  0.84747195  0.57149302  1.0
  C  C9  1  0.50996830  0.06941722  0.57943558  1.0
  C  C10  1  0.51435790  0.28314721  0.78816825  1.0
  C  C11  1  0.56228617  0.42625060  0.78635230  1.0
  C  C12  1  0.51806980  0.28638582  0.92952543  1.0
  C  C13  1  0.56442290  0.68400484  0.57843617  1.0
  C  C14  1  0.55683596  0.58290509  0.62993695  1.0
  C  C15  1  0.58511052  0.53298038  0.73137179  1.0
  C  C16  1  0.62954699  0.58438068  0.78052600  1.0
  C  C17  1  0.64010246  0.68530594  0.72804089  1.0
  C  C18  1  0.60166794  0.73762099  0.62612921  1.0
  C  C19  1  0.58525989  0.27382435  0.63751260  1.0
  C  C20  1  0.58625840  0.22191610  0.58805169  1.0
  C  C21  1  0.50457087  0.12455807  0.63411840  1.0
  C  C22  1  0.42304171  0.08056158  0.73230763  1.0
  C  C23  1  0.42508141  0.13112180  0.78325405  1.0
  C  C24  1  0.50595557  0.22826283  0.73551763  1.0
  C  C25  1  0.48920754  0.13327329  0.08753570  1.0
  C  C26  1  0.48657257  0.08356982  0.18836561  1.0
  C  C27  1  0.50633056  0.13259557  0.24181210  1.0
  C  C28  1  0.52437516  0.23478282  0.18827989  1.0
  C  C29  1  0.52682315  0.28512194  0.08732729  1.0
  C  C30  1  0.51026118  0.23425953  0.03659612  1.0
  N  N31  1  0.54854875  0.37945611  0.73555084  1.0
  N  N32  1  0.55431900  0.38266195  0.88359543  1.0
  N  N33  1  0.49116205  0.23363037  0.88508204  1.0
  Cl  Cl34  1  0.70900825  0.74622368  0.79024258  1.0
  Cl  Cl35  1  0.51339479  0.74316176  0.45392905  1.0
  Cl  Cl36  1  0.69688122  0.27857349  0.46845333  1.0
  Cl  Cl37  1  0.31497629  0.96168156  0.79123371  1.0
  Cl  Cl38  1  0.47184922  0.95874094  0.24527476  1.0
  Cl  Cl39  1  0.52847386  0.30305584  0.24549944  1.0
  O  O40  1  0.76278553  0.00828935  0.59565920  1.0
  O  O41  1  0.74023226  0.09344458  0.39528396  1.0
  O  O42  1  0.80500201  0.88997347  0.51205964  1.0
  O  O43  1  0.26442747  0.08871844  0.52065637  1.0
  O  O44  1  0.32796578  0.88979243  0.58984239  1.0
  O  O45  1  0.29026857  0.01800579  0.39142994  1.0
