# generated using pymatgen
data_CuP2H27C35NCl
_symmetry_space_group_name_H-M   'P 1'
_cell_length_a   18.38063674
_cell_length_b   18.38515774
_cell_length_c   21.19221278
_cell_angle_alpha   90.01226704
_cell_angle_beta   90.00000793
_cell_angle_gamma   119.99189491
_symmetry_Int_Tables_number   1
_chemical_formula_structural   CuP2H27C35NCl
_chemical_formula_sum   'Cu6 P12 H162 C210 N6 Cl6'
_cell_volume   6202.55038341
_cell_formula_units_Z   6
loop_
 _symmetry_equiv_pos_site_id
 _symmetry_equiv_pos_as_xyz
  1  'x, y, z'
loop_
 _atom_site_type_symbol
 _atom_site_label
 _atom_site_symmetry_multiplicity
 _atom_site_fract_x
 _atom_site_fract_y
 _atom_site_fract_z
 _atom_site_occupancy
  Cu  Cu0  1  0.50681400  0.66631941  0.65710769  1.0
  Cu  Cu1  1  0.15924968  0.49304976  0.99045792  1.0
  Cu  Cu2  1  0.33371490  0.84055039  0.32383302  1.0
  Cu  Cu3  1  0.84049336  0.33367897  0.34289145  1.0
  Cu  Cu4  1  0.66620152  0.50695097  0.00954214  1.0
  Cu  Cu5  1  0.49316303  0.15944971  0.67616750  1.0
  P  P6  1  0.38233632  0.64602208  0.69138207  1.0
  P  P7  1  0.26344488  0.61743011  0.02474208  1.0
  P  P8  1  0.35401056  0.73638615  0.35804489  1.0
  P  P9  1  0.73631352  0.35397623  0.30861706  1.0
  P  P10  1  0.64601531  0.38256939  0.97525845  1.0
  P  P11  1  0.61762440  0.26361464  0.64195470  1.0
  P  P12  1  0.14157538  0.47178448  0.88613885  1.0
  P  P13  1  0.33002103  0.85807038  0.21952841  1.0
  P  P14  1  0.52817110  0.66987938  0.55282066  1.0
  P  P15  1  0.66979112  0.52821562  0.11386073  1.0
  P  P16  1  0.47195135  0.14192972  0.78047259  1.0
  P  P17  1  0.85829145  0.33012089  0.44717896  1.0
  H  H18  1  0.66152834  0.64071153  0.93661820  1.0
  H  H19  1  0.97908526  0.33831619  0.27017319  1.0
  H  H20  1  0.35928319  0.02074548  0.60342980  1.0
  H  H21  1  0.02081664  0.35928665  0.06338374  1.0
  H  H22  1  0.64076718  0.66168352  0.72982596  1.0
  H  H23  1  0.33853872  0.97925333  0.39656977  1.0
  H  H24  1  0.55667342  0.66207555  0.87583859  1.0
  H  H25  1  0.10517692  0.44299051  0.20923376  1.0
  H  H26  1  0.33810144  0.89478428  0.54243911  1.0
  H  H27  1  0.89459873  0.33792599  0.12416480  1.0
  H  H28  1  0.66218683  0.55701084  0.79076676  1.0
  H  H29  1  0.44331825  0.10521456  0.45756094  1.0
  H  H30  1  0.36642384  0.41466546  0.93747507  1.0
  H  H31  1  0.04808655  0.63334102  0.27090000  1.0
  H  H32  1  0.58564019  0.95207278  0.60409208  1.0
  H  H33  1  0.95175978  0.58533479  0.06252502  1.0
  H  H34  1  0.41474610  0.36665646  0.72910050  1.0
  H  H35  1  0.63356822  0.04792557  0.39590799  1.0
  H  H36  1  0.47815364  0.40628733  0.99772644  1.0
  H  H37  1  0.92795244  0.52173588  0.33114515  1.0
  H  H38  1  0.59393090  0.07208473  0.66441122  1.0
  H  H39  1  0.07186675  0.59371081  0.00227360  1.0
  H  H40  1  0.40621483  0.47825998  0.66885399  1.0
  H  H41  1  0.52184753  0.92791484  0.33558885  1.0
  H  H42  1  0.47504619  0.62067979  0.78907174  1.0
  H  H43  1  0.14546851  0.52467591  0.12241841  1.0
  H  H44  1  0.37956326  0.85461755  0.45561812  1.0
  H  H45  1  0.85436619  0.37932173  0.21092881  1.0
  H  H46  1  0.62079400  0.47532418  0.87758258  1.0
  H  H47  1  0.52494513  0.14538007  0.54438100  1.0
  H  H48  1  0.21978235  0.56444544  0.76390491  1.0
  H  H49  1  0.34442679  0.77985737  0.09731777  1.0
  H  H50  1  0.43557637  0.65545769  0.43057677  1.0
  H  H51  1  0.65533517  0.43555405  0.23609468  1.0
  H  H52  1  0.56457073  0.22014276  0.90268276  1.0
  H  H53  1  0.78011709  0.34454316  0.56942142  1.0
  H  H54  1  0.28745325  0.47694078  0.92989787  1.0
  H  H55  1  0.18920472  0.71224486  0.26328519  1.0
  H  H56  1  0.52330405  0.81082769  0.59650261  1.0
  H  H57  1  0.81051421  0.52306129  0.07010409  1.0
  H  H58  1  0.47696059  0.28775520  0.73671627  1.0
  H  H59  1  0.71247614  0.18917065  0.40349653  1.0
  H  H60  1  0.50094648  0.81472238  0.72479396  1.0
  H  H61  1  0.31356517  0.49878822  0.05814618  1.0
  H  H62  1  0.18528491  0.68623938  0.39161341  1.0
  H  H63  1  0.68622082  0.18527532  0.27520517  1.0
  H  H64  1  0.81477765  0.50121260  0.94185530  1.0
  H  H65  1  0.49904657  0.31376131  0.60838616  1.0
  H  H66  1  0.48840479  0.93986986  0.75260540  1.0
  H  H67  1  0.45124283  0.51131476  0.08607129  1.0
  H  H68  1  0.06012546  0.54855211  0.41929807  1.0
  H  H69  1  0.54853079  0.06012842  0.24739513  1.0
  H  H70  1  0.93992826  0.48868615  0.91392880  1.0
  H  H71  1  0.51157272  0.45144730  0.58070150  1.0
  H  H72  1  0.35079353  0.93388394  0.74308625  1.0
  H  H73  1  0.58289157  0.64887879  0.07651923  1.0
  H  H74  1  0.06606464  0.41694475  0.40953652  1.0
  H  H75  1  0.41690628  0.06611490  0.25691569  1.0
  H  H76  1  0.93401488  0.35112278  0.92347992  1.0
  H  H77  1  0.64911942  0.58305595  0.59046305  1.0
  H  H78  1  0.22383988  0.80115858  0.70979095  1.0
  H  H79  1  0.57703740  0.77580541  0.04327586  1.0
  H  H80  1  0.19891249  0.42281812  0.37632251  1.0
  H  H81  1  0.42268178  0.19884336  0.29021098  1.0
  H  H82  1  0.80123378  0.22419674  0.95672422  1.0
  H  H83  1  0.77609426  0.57718329  0.62367802  1.0
  H  H84  1  0.23473636  0.67533647  0.68485786  1.0
  H  H85  1  0.44032467  0.76493670  0.01840392  1.0
  H  H86  1  0.32475711  0.55952870  0.35160773  1.0
  H  H87  1  0.55940114  0.32466363  0.31514125  1.0
  H  H88  1  0.67538933  0.23506349  0.98159710  1.0
  H  H89  1  0.76522881  0.44047274  0.64839187  1.0
  H  H90  1  0.31189761  0.67399735  0.57673311  1.0
  H  H91  1  0.36213590  0.68815804  0.91038010  1.0
  H  H92  1  0.32592666  0.63787711  0.24348141  1.0
  H  H93  1  0.63789938  0.32600280  0.42326836  1.0
  H  H94  1  0.67397599  0.31184025  0.08961949  1.0
  H  H95  1  0.68804906  0.36212369  0.75651771  1.0
  H  H96  1  0.20564877  0.57787980  0.50064294  1.0
  H  H97  1  0.37237412  0.79443996  0.83432004  1.0
  H  H98  1  0.42199389  0.62774547  0.16732325  1.0
  H  H99  1  0.62776929  0.42212157  0.49935759  1.0
  H  H100  1  0.57793310  0.20555893  0.16567908  1.0
  H  H101  1  0.79424821  0.37225476  0.83267588  1.0
  H  H102  1  0.12774529  0.42382584  0.51989374  1.0
  H  H103  1  0.29605190  0.87225540  0.85349042  1.0
  H  H104  1  0.57609675  0.70389173  0.18651992  1.0
  H  H105  1  0.70391844  0.57617490  0.48010490  1.0
  H  H106  1  0.42379560  0.12774279  0.14650915  1.0
  H  H107  1  0.87220543  0.29610982  0.81347875  1.0
  H  H108  1  0.15627340  0.36622010  0.61728125  1.0
  H  H109  1  0.20967710  0.84360527  0.95078765  1.0
  H  H110  1  0.63385422  0.79002678  0.28388915  1.0
  H  H111  1  0.79005300  0.63377879  0.38271693  1.0
  H  H112  1  0.36607005  0.15639226  0.04921191  1.0
  H  H113  1  0.84382662  0.20997351  0.71611047  1.0
  H  H114  1  0.26304789  0.46212675  0.69406552  1.0
  H  H115  1  0.19864628  0.73673609  0.02748717  1.0
  H  H116  1  0.53802264  0.80099315  0.36071367  1.0
  H  H117  1  0.80092127  0.53787092  0.30593407  1.0
  H  H118  1  0.46190947  0.26326209  0.97251193  1.0
  H  H119  1  0.73702980  0.19900834  0.63928547  1.0
  H  H120  1  0.14059035  0.39070078  0.76360660  1.0
  H  H121  1  0.25008064  0.85929612  0.09685610  1.0
  H  H122  1  0.60920699  0.74979294  0.43024484  1.0
  H  H123  1  0.74989057  0.60930186  0.23639487  1.0
  H  H124  1  0.39078413  0.14070393  0.90314536  1.0
  H  H125  1  0.85941363  0.25020925  0.56975525  1.0
  H  H126  1  0.06023030  0.24286061  0.72725501  1.0
  H  H127  1  0.18282655  0.93994042  0.06059506  1.0
  H  H128  1  0.75707831  0.81716806  0.39391558  1.0
  H  H129  1  0.81737076  0.75714202  0.27274458  1.0
  H  H130  1  0.24288522  0.06006083  0.93940449  1.0
  H  H131  1  0.93990921  0.18283293  0.60608405  1.0
  H  H132  1  0.96272300  0.13049655  0.80096163  1.0
  H  H133  1  0.16807424  0.03743352  0.13440575  1.0
  H  H134  1  0.86946908  0.83208064  0.46764388  1.0
  H  H135  1  0.83222835  0.86950636  0.19903754  1.0
  H  H136  1  0.13064059  0.96256831  0.86559427  1.0
  H  H137  1  0.03738479  0.16791823  0.53235571  1.0
  H  H138  1  0.94948109  0.16656765  0.91209825  1.0
  H  H139  1  0.21731088  0.05049624  0.24554401  1.0
  H  H140  1  0.83343758  0.78286234  0.57879240  1.0
  H  H141  1  0.78291372  0.83343210  0.08790091  1.0
  H  H142  1  0.16681473  0.94950499  0.75445601  1.0
  H  H143  1  0.05057237  0.21713590  0.42120671  1.0
  H  H144  1  0.03316407  0.31454745  0.94922527  1.0
  H  H145  1  0.28139377  0.96653555  0.28258002  1.0
  H  H146  1  0.68539284  0.71860516  0.61588231  1.0
  H  H147  1  0.71861721  0.68545327  0.05077525  1.0
  H  H148  1  0.31485914  0.03346511  0.71742049  1.0
  H  H149  1  0.96678602  0.28139456  0.38411732  1.0
  H  H150  1  0.01258664  0.41263802  0.78040726  1.0
  H  H151  1  0.39985106  0.98699411  0.11391478  1.0
  H  H152  1  0.58731069  0.59999211  0.44713668  1.0
  H  H153  1  0.59994754  0.58736266  0.21959278  1.0
  H  H154  1  0.41285784  0.01300536  0.88608574  1.0
  H  H155  1  0.98732010  0.40000947  0.55286389  1.0
  H  H156  1  0.94958549  0.48462169  0.72343817  1.0
  H  H157  1  0.53485515  0.05012804  0.05702145  1.0
  H  H158  1  0.51537698  0.46497403  0.39023420  1.0
  H  H159  1  0.46496298  0.51537608  0.27656192  1.0
  H  H160  1  0.48472779  0.94987213  0.94297862  1.0
  H  H161  1  0.05040481  0.53502788  0.60976583  1.0
  H  H162  1  0.99157606  0.63276920  0.74987435  1.0
  H  H163  1  0.64116295  0.00832266  0.08345747  1.0
  H  H164  1  0.36728848  0.35874043  0.41675956  1.0
  H  H165  1  0.35880651  0.36722856  0.25012431  1.0
  H  H166  1  0.63284148  0.99167632  0.91654166  1.0
  H  H167  1  0.00854852  0.64126080  0.58324141  1.0
  H  H168  1  0.09675572  0.70736775  0.83546708  1.0
  H  H169  1  0.61075044  0.90325437  0.16904426  1.0
  H  H170  1  0.29270534  0.38925043  0.50239260  1.0
  H  H171  1  0.38938945  0.29263288  0.16452917  1.0
  H  H172  1  0.70749675  0.09674462  0.83095535  1.0
  H  H173  1  0.90345497  0.61074915  0.49760747  1.0
  H  H174  1  0.15818740  0.63452192  0.89358168  1.0
  H  H175  1  0.47638160  0.84157699  0.22706928  1.0
  H  H176  1  0.36543634  0.52364093  0.56037354  1.0
  H  H177  1  0.52366641  0.36548192  0.10641553  1.0
  H  H178  1  0.63480559  0.15842258  0.77293079  1.0
  H  H179  1  0.84179658  0.47635992  0.43962701  1.0
  C  C180  1  0.59484024  0.59330734  0.93598385  1.0
  C  C181  1  0.99834188  0.40498185  0.26946544  1.0
  C  C182  1  0.40679830  0.00159359  0.60270370  1.0
  C  C183  1  0.00153391  0.40669208  0.06401761  1.0
  C  C184  1  0.59335740  0.59501535  0.73053419  1.0
  C  C185  1  0.40520412  0.99840526  0.39729729  1.0
  C  C186  1  0.53652017  0.60373705  0.90160019  1.0
  C  C187  1  0.06703622  0.46322044  0.23502010  1.0
  C  C188  1  0.39645550  0.93297280  0.56821250  1.0
  C  C189  1  0.93278206  0.39626388  0.09840179  1.0
  C  C190  1  0.60381469  0.53677900  0.76497947  1.0
  C  C191  1  0.46348324  0.06702606  0.43178803  1.0
  C  C192  1  0.45227114  0.53936272  0.90069954  1.0
  C  C193  1  0.08689692  0.54745713  0.23409786  1.0
  C  C194  1  0.46091097  0.91318596  0.56726268  1.0
  C  C195  1  0.91291047  0.46063566  0.09930243  1.0
  C  C196  1  0.53943911  0.45254103  0.76590359  1.0
  C  C197  1  0.54772449  0.08681295  0.43273786  1.0
  C  C198  1  0.43086751  0.46690690  0.93617047  1.0
  C  C199  1  0.03587138  0.56890448  0.26959260  1.0
  C  C200  1  0.53335474  0.96424212  0.60278188  1.0
  C  C201  1  0.96396286  0.53309401  0.06383009  1.0
  C  C202  1  0.46696791  0.43109491  0.73040790  1.0
  C  C203  1  0.56911434  0.03575806  0.39721866  1.0
  C  C204  1  0.49291171  0.46170898  0.96964296  1.0
  C  C205  1  0.96863331  0.50692468  0.30308488  1.0
  C  C206  1  0.53848927  0.03139384  0.63632024  1.0
  C  C207  1  0.03120261  0.53828916  0.03035802  1.0
  C  C208  1  0.46170887  0.49307183  0.69691521  1.0
  C  C209  1  0.50709509  0.96860445  0.36368030  1.0
  C  C210  1  0.38880168  0.54704156  0.86366117  1.0
  C  C211  1  0.15800514  0.61089826  0.19704344  1.0
  C  C212  1  0.45324065  0.84206275  0.53021417  1.0
  C  C213  1  0.84176163  0.45296118  0.13633890  1.0
  C  C214  1  0.54710628  0.38910118  0.80295708  1.0
  C  C215  1  0.61117797  0.15793617  0.46978543  1.0
  C  C216  1  0.41061650  0.59113472  0.80619746  1.0
  C  C217  1  0.18030561  0.58908367  0.13957078  1.0
  C  C218  1  0.40910322  0.81973883  0.47277118  1.0
  C  C219  1  0.81948125  0.40886613  0.19380309  1.0
  C  C220  1  0.59122254  0.41091705  0.86042974  1.0
  C  C221  1  0.58936370  0.18026070  0.52722794  1.0
  C  C222  1  0.35005406  0.59521443  0.76913186  1.0
  C  C223  1  0.24493089  0.64963909  0.10251562  1.0
  C  C224  1  0.40493161  0.75502762  0.43575441  1.0
  C  C225  1  0.75483705  0.40478450  0.23086915  1.0
  C  C226  1  0.59529293  0.35036165  0.89748585  1.0
  C  C227  1  0.64990310  0.24497255  0.56424518  1.0
  C  C228  1  0.26715105  0.55937128  0.79146928  1.0
  C  C229  1  0.29199779  0.73250556  0.12487680  1.0
  C  C230  1  0.44070662  0.70793433  0.45812053  1.0
  C  C231  1  0.70777813  0.44062950  0.20853078  1.0
  C  C232  1  0.55949238  0.26749330  0.87512372  1.0
  C  C233  1  0.73277315  0.29206712  0.54187813  1.0
  C  C234  1  0.24520888  0.51714086  0.84927622  1.0
  C  C235  1  0.27170112  0.75445083  0.18268875  1.0
  C  C236  1  0.48294939  0.72823927  0.51592100  1.0
  C  C237  1  0.72806803  0.48285993  0.15072573  1.0
  C  C238  1  0.51724940  0.24554926  0.81731224  1.0
  C  C239  1  0.75470989  0.27176222  0.48407955  1.0
  C  C240  1  0.30569992  0.50973240  0.88457860  1.0
  C  C241  1  0.20379188  0.69398994  0.21797110  1.0
  C  C242  1  0.49048233  0.79622276  0.55118319  1.0
  C  C243  1  0.79596903  0.49027030  0.11542336  1.0
  C  C244  1  0.50980106  0.30601013  0.78203036  1.0
  C  C245  1  0.69425945  0.20377683  0.44881689  1.0
  C  C246  1  0.36879169  0.73715827  0.70301649  1.0
  C  C247  1  0.36813198  0.63091229  0.03639715  1.0
  C  C248  1  0.26289988  0.63170948  0.36974561  1.0
  C  C249  1  0.63163295  0.26284063  0.29698310  1.0
  C  C250  1  0.73721854  0.36908602  0.96360386  1.0
  C  C251  1  0.63119065  0.36829065  0.63025350  1.0
  C  C252  1  0.44016526  0.81201328  0.72186999  1.0
  C  C253  1  0.37162446  0.55954961  0.05524981  1.0
  C  C254  1  0.18800928  0.62819633  0.38862485  1.0
  C  C255  1  0.62815095  0.18798565  0.27813008  1.0
  C  C256  1  0.81207523  0.44045061  0.94475073  1.0
  C  C257  1  0.55981317  0.37180375  0.61137425  1.0
  C  C258  1  0.43319827  0.88229506  0.73677443  1.0
  C  C259  1  0.44887718  0.56649976  0.07020596  1.0
  C  C260  1  0.11771015  0.55094412  0.40344766  1.0
  C  C261  1  0.55090050  0.11770385  0.26322610  1.0
  C  C262  1  0.88237757  0.43350111  0.92979460  1.0
  C  C263  1  0.56676519  0.44905595  0.59655286  1.0
  C  C264  1  0.35582851  0.87880058  0.73175953  1.0
  C  C265  1  0.52274793  0.64384214  0.06519384  1.0
  C  C266  1  0.12119700  0.47708931  0.39832147  1.0
  C  C267  1  0.47702496  0.12119889  0.26824147  1.0
  C  C268  1  0.87890538  0.35615876  0.93480672  1.0
  C  C269  1  0.64410775  0.52291141  0.60167858  1.0
  C  C270  1  0.28464043  0.80434376  0.71294429  1.0
  C  C271  1  0.51945302  0.71501456  0.04640439  1.0
  C  C272  1  0.19570007  0.48039648  0.37953941  1.0
  C  C273  1  0.48029577  0.19565759  0.28705623  1.0
  C  C274  1  0.80444011  0.28498508  0.95359664  1.0
  C  C275  1  0.71530414  0.51960303  0.62046112  1.0
  C  C276  1  0.29071619  0.73343725  0.69896466  1.0
  C  C277  1  0.44247501  0.70896637  0.03242227  1.0
  C  C278  1  0.26663267  0.55739011  0.36566693  1.0
  C  C279  1  0.55727768  0.26656223  0.30103493  1.0
  C  C280  1  0.73350980  0.29103446  0.96757827  1.0
  C  C281  1  0.70924434  0.44261193  0.63433218  1.0
  C  C282  1  0.29434650  0.57516615  0.64144536  1.0
  C  C283  1  0.28057762  0.70551617  0.97493372  1.0
  C  C284  1  0.42486746  0.71922951  0.30812214  1.0
  C  C285  1  0.71917943  0.42483276  0.35855659  1.0
  C  C286  1  0.57506094  0.29448269  0.02506633  1.0
  C  C287  1  0.70563517  0.28077007  0.69187652  1.0
  C  C288  1  0.27755759  0.60667311  0.58627330  1.0
  C  C289  1  0.32905710  0.72243763  0.91985516  1.0
  C  C290  1  0.39329434  0.67089128  0.25297664  1.0
  C  C291  1  0.67088431  0.39332515  0.41372629  1.0
  C  C292  1  0.60661810  0.27756062  0.08014443  1.0
  C  C293  1  0.72240171  0.32910891  0.74702296  1.0
  C  C294  1  0.21785455  0.55244109  0.54312883  1.0
  C  C295  1  0.33461861  0.78219007  0.87674439  1.0
  C  C296  1  0.44747963  0.66540292  0.20980414  1.0
  C  C297  1  0.66541380  0.44756029  0.45687076  1.0
  C  C298  1  0.55242715  0.21780817  0.12325520  1.0
  C  C299  1  0.78207616  0.33459668  0.79019593  1.0
  C  C300  1  0.17402714  0.46589181  0.55403801  1.0
  C  C301  1  0.29179815  0.82595597  0.88762792  1.0
  C  C302  1  0.53407565  0.70813265  0.22068947  1.0
  C  C303  1  0.70813367  0.53410769  0.44596157  1.0
  C  C304  1  0.46584184  0.17404223  0.11237166  1.0
  C  C305  1  0.82594136  0.29186699  0.77930873  1.0
  C  C306  1  0.19031016  0.43378437  0.60853855  1.0
  C  C307  1  0.24324060  0.80956821  0.94206431  1.0
  C  C308  1  0.56625063  0.75654298  0.27518945  1.0
  C  C309  1  0.75652742  0.56621515  0.39145915  1.0
  C  C310  1  0.43367149  0.19042996  0.05793384  1.0
  C  C311  1  0.80970770  0.24345792  0.72481111  1.0
  C  C312  1  0.25029633  0.48793414  0.65188686  1.0
  C  C313  1  0.23730604  0.74951688  0.98536522  1.0
  C  C314  1  0.51214732  0.76241509  0.31854932  1.0
  C  C315  1  0.76236270  0.51206539  0.34811415  1.0
  C  C316  1  0.48778712  0.25048006  0.01463389  1.0
  C  C317  1  0.74973139  0.23758514  0.68144982  1.0
  C  C318  1  0.08920302  0.36283648  0.85822604  1.0
  C  C319  1  0.27360477  0.91057053  0.19153997  1.0
  C  C320  1  0.63710163  0.72630966  0.52488026  1.0
  C  C321  1  0.72636816  0.63716739  0.14177449  1.0
  C  C322  1  0.36303350  0.08942890  0.80846054  1.0
  C  C323  1  0.91079124  0.27369192  0.47511937  1.0
  C  C324  1  0.09822905  0.34175716  0.79613854  1.0
  C  C325  1  0.24356890  0.90167331  0.12944322  1.0
  C  C326  1  0.65816897  0.75637294  0.46278241  1.0
  C  C327  1  0.75647259  0.65824484  0.20386199  1.0
  C  C328  1  0.34189516  0.09832672  0.87055729  1.0
  C  C329  1  0.90179584  0.24362863  0.53721627  1.0
  C  C330  1  0.05285518  0.25856632  0.77563225  1.0
  C  C331  1  0.20588092  0.94721698  0.10897908  1.0
  C  C332  1  0.74138339  0.79413811  0.44229112  1.0
  C  C333  1  0.79429014  0.74143568  0.22436733  1.0
  C  C334  1  0.25866302  0.05278427  0.89102190  1.0
  C  C335  1  0.94724307  0.20586162  0.55770851  1.0
  C  C336  1  0.99824435  0.19551330  0.81701129  1.0
  C  C337  1  0.19749798  0.00183052  0.15040030  1.0
  C  C338  1  0.80445481  0.80262207  0.48368477  1.0
  C  C339  1  0.80273260  0.80448898  0.18298835  1.0
  C  C340  1  0.19566759  0.99817072  0.84959925  1.0
  C  C341  1  0.00182963  0.19737677  0.51631339  1.0
  C  C342  1  0.99050382  0.21578942  0.87924216  1.0
  C  C343  1  0.22546603  0.00946796  0.21264038  1.0
  C  C344  1  0.78420616  0.77464882  0.54591494  1.0
  C  C345  1  0.77471498  0.78421096  0.12075700  1.0
  C  C346  1  0.21599796  0.99053392  0.78736012  1.0
  C  C347  1  0.00955392  0.22534940  0.45408417  1.0
  C  C348  1  0.03625883  0.29896407  0.89998828  1.0
  C  C349  1  0.26274987  0.96356323  0.23334043  1.0
  C  C350  1  0.70100792  0.73726339  0.56665134  1.0
  C  C351  1  0.73729568  0.70103728  0.10001177  1.0
  C  C352  1  0.29918757  0.03643743  0.76666008  1.0
  C  C353  1  0.96374255  0.26273570  0.43334782  1.0
  C  C354  1  0.09058360  0.51869999  0.84068499  1.0
  C  C355  1  0.42798703  0.90902154  0.17414194  1.0
  C  C356  1  0.48123761  0.57192118  0.50743499  1.0
  C  C357  1  0.57188279  0.48130132  0.15931411  1.0
  C  C358  1  0.51896706  0.09097923  0.82585812  1.0
  C  C359  1  0.90931792  0.42808035  0.49256557  1.0
  C  C360  1  0.03147285  0.47723211  0.79267813  1.0
  C  C361  1  0.44561071  0.96815271  0.12617509  1.0
  C  C362  1  0.52272661  0.55425742  0.45944497  1.0
  C  C363  1  0.55424071  0.52276855  0.20732096  1.0
  C  C364  1  0.47745946  0.03184680  0.87382544  1.0
  C  C365  1  0.96847017  0.44574414  0.54055512  1.0
  C  C366  1  0.99598570  0.51814340  0.76025480  1.0
  C  C367  1  0.52202953  0.00373107  0.09379810  1.0
  C  C368  1  0.48185208  0.47782352  0.42707487  1.0
  C  C369  1  0.47784186  0.48185627  0.23974388  1.0
  C  C370  1  0.51829915  0.99626910  0.90620291  1.0
  C  C371  1  0.00402946  0.52217649  0.57292563  1.0
  C  C372  1  0.01945397  0.60100746  0.77514779  1.0
  C  C373  1  0.58151666  0.98036969  0.10870377  1.0
  C  C374  1  0.39902043  0.41838206  0.44201134  1.0
  C  C375  1  0.41844687  0.39899191  0.22484988  1.0
  C  C376  1  0.60114847  0.01962990  0.89129583  1.0
  C  C377  1  0.98063854  0.58161884  0.55798875  1.0
  C  C378  1  0.07806921  0.64274978  0.82313203  1.0
  C  C379  1  0.56470629  0.92179117  0.15667728  1.0
  C  C380  1  0.35728280  0.43524825  0.49000931  1.0
  C  C381  1  0.43531877  0.35725087  0.17686517  1.0
  C  C382  1  0.64291640  0.07820904  0.84332232  1.0
  C  C383  1  0.92203469  0.56475262  0.50999125  1.0
  C  C384  1  0.11284751  0.60174113  0.85599643  1.0
  C  C385  1  0.48887516  0.88688549  0.18948940  1.0
  C  C386  1  0.39823299  0.51108460  0.52279773  1.0
  C  C387  1  0.51110778  0.39826143  0.14400030  1.0
  C  C388  1  0.60199087  0.11311345  0.81051114  1.0
  C  C389  1  0.88714849  0.48891627  0.47720283  1.0
  N  N390  1  0.57399895  0.52320683  0.96942359  1.0
  N  N391  1  0.94905674  0.42586552  0.30288342  1.0
  N  N392  1  0.47690809  0.05089790  0.63615783  1.0
  N  N393  1  0.05079112  0.47679070  0.03057692  1.0
  N  N394  1  0.52318987  0.57413101  0.69711620  1.0
  N  N395  1  0.42601184  0.94910223  0.36384223  1.0
  Cl  Cl396  1  0.61722087  0.78678945  0.69987892  1.0
  Cl  Cl397  1  0.16944109  0.38271152  0.03318473  1.0
  Cl  Cl398  1  0.21324909  0.83044645  0.36665300  1.0
  Cl  Cl399  1  0.83042928  0.21320832  0.30012070  1.0
  Cl  Cl400  1  0.78673054  0.61728863  0.96681439  1.0
  Cl  Cl401  1  0.38280175  0.16955485  0.63334752  1.0
