# generated using pymatgen
data_Zn2H13(C5O2)5
_symmetry_space_group_name_H-M   'P 1'
_cell_length_a   15.36050543
_cell_length_b   15.63716236
_cell_length_c   19.54246375
_cell_angle_alpha   76.33735686
_cell_angle_beta   81.13711783
_cell_angle_gamma   66.95982667
_symmetry_Int_Tables_number   1
_chemical_formula_structural   Zn2H13(C5O2)5
_chemical_formula_sum   'Zn4 H26 C50 O20'
_cell_volume   4187.35070266
_cell_formula_units_Z   2
loop_
 _symmetry_equiv_pos_site_id
 _symmetry_equiv_pos_as_xyz
  1  'x, y, z'
loop_
 _atom_site_type_symbol
 _atom_site_label
 _atom_site_symmetry_multiplicity
 _atom_site_fract_x
 _atom_site_fract_y
 _atom_site_fract_z
 _atom_site_occupancy
  Zn  Zn0  1  0.41269034  0.58847508  0.55433283  1.0
  Zn  Zn1  1  0.57263291  0.55533938  0.42682713  1.0
  Zn  Zn2  1  0.43522547  0.44513360  0.45274344  1.0
  Zn  Zn3  1  0.58890597  0.38838627  0.56240647  1.0
  H  H4  1  0.37559975  0.58435021  0.76604146  1.0
  H  H5  1  0.57787933  0.60993627  0.21238592  1.0
  H  H6  1  0.42435218  0.16348975  0.33614970  1.0
  H  H7  1  0.41296029  0.02687953  0.30415273  1.0
  H  H8  1  0.48114892  0.84114603  0.54730351  1.0
  H  H9  1  0.57631056  0.12643389  0.65321059  1.0
  H  H10  1  0.53596515  0.89072487  0.60676344  1.0
  H  H11  1  0.45756807  0.23817529  0.42065315  1.0
  H  H12  1  0.46692078  0.38907886  0.24613220  1.0
  H  H13  1  0.64981521  0.35932752  0.90171185  1.0
  H  H14  1  0.55927857  0.64118534  0.08379625  1.0
  H  H15  1  0.45304046  0.41595106  0.11669359  1.0
  H  H16  1  0.64885000  0.35823322  0.77432146  1.0
  H  H17  1  0.55463055  0.40210007  0.01180175  1.0
  H  H18  1  0.81685409  0.27488807  0.51395180  1.0
  H  H19  1  0.06470941  0.81299787  0.51329091  1.0
  H  H20  1  0.63718063  0.82338401  0.76056446  1.0
  H  H21  1  0.47805221  0.73320687  0.89643964  1.0
  H  H22  1  0.31016810  0.63033742  0.87006312  1.0
  H  H23  1  0.19221460  0.28240456  0.50898987  1.0
  H  H24  1  0.06142707  0.22973179  0.50953031  1.0
  H  H25  1  0.83074259  0.56166836  0.48576623  1.0
  H  H26  1  0.87557244  0.65855396  0.50538652  1.0
  H  H27  1  0.93622847  0.77903702  0.51305830  1.0
  H  H28  1  0.25134307  0.40556302  0.50858082  1.0
  H  H29  1  0.42691010  0.85785274  0.33506767  1.0
  C  C30  1  0.74895437  0.44069470  0.48945750  1.0
  C  C31  1  0.52253206  0.47305530  0.98013215  1.0
  C  C32  1  0.49840382  0.54620810  0.01433681  1.0
  C  C33  1  0.25151068  0.57147855  0.50382709  1.0
  C  C34  1  0.52446976  0.49704520  0.23691775  1.0
  C  C35  1  0.01136711  0.30269700  0.50560797  1.0
  C  C36  1  0.85042735  0.41729916  0.49561261  1.0
  C  C37  1  0.08349612  0.68498055  0.51108580  1.0
  C  C38  1  0.98551034  0.70699087  0.51029107  1.0
  C  C39  1  0.95186388  0.63872420  0.50564367  1.0
  C  C40  1  0.01353926  0.54479727  0.50249875  1.0
  C  C41  1  0.51541435  0.47445606  0.90619416  1.0
  C  C42  1  0.11291536  0.52169875  0.50417395  1.0
  C  C43  1  0.97879460  0.47164478  0.49945394  1.0
  C  C44  1  0.04402242  0.37573270  0.50337315  1.0
  C  C45  1  0.46243146  0.74068320  0.46193550  1.0
  C  C46  1  0.14266724  0.35549957  0.50629724  1.0
  C  C47  1  0.17564829  0.42480199  0.50615527  1.0
  C  C48  1  0.88324921  0.48973954  0.49283676  1.0
  C  C49  1  0.91550147  0.32103929  0.50472787  1.0
  C  C50  1  0.14741686  0.59325465  0.50720494  1.0
  C  C51  1  0.42978409  0.98542537  0.35711272  1.0
  C  C52  1  0.58978396  0.40897660  0.87158715  1.0
  C  C53  1  0.45405855  0.84159153  0.44375701  1.0
  C  C54  1  0.55258938  0.09721597  0.61759307  1.0
  C  C55  1  0.55873349  0.00263478  0.63664499  1.0
  C  C56  1  0.52934752  0.96438521  0.59127793  1.0
  C  C57  1  0.51237609  0.25308915  0.53913610  1.0
  C  C58  1  0.49484373  0.01787140  0.52561649  1.0
  C  C59  1  0.48937587  0.11409888  0.50551372  1.0
  C  C60  1  0.46956067  0.97553343  0.47668789  1.0
  C  C61  1  0.44662143  0.02839768  0.40727957  1.0
  C  C62  1  0.44275320  0.12366460  0.38926834  1.0
  C  C63  1  0.58990021  0.40793178  0.80069780  1.0
  C  C64  1  0.46178829  0.16534201  0.43621492  1.0
  C  C65  1  0.46867770  0.88306208  0.49420732  1.0
  C  C66  1  0.43635784  0.89249814  0.37407721  1.0
  C  C67  1  0.51746916  0.15285527  0.55399642  1.0
  C  C68  1  0.52795542  0.48552890  0.31431737  1.0
  C  C69  1  0.51085736  0.47627107  0.68563004  1.0
  C  C70  1  0.51282412  0.47274479  0.76236829  1.0
  C  C71  1  0.43593557  0.53567176  0.79627127  1.0
  C  C72  1  0.43636771  0.53626552  0.86733353  1.0
  C  C73  1  0.59966401  0.94620801  0.70448735  1.0
  C  C74  1  0.54068503  0.58453185  0.11891021  1.0
  C  C75  1  0.46288008  0.64815237  0.97877760  1.0
  C  C76  1  0.55098621  0.56766522  0.19072394  1.0
  C  C77  1  0.48952609  0.44222275  0.20977722  1.0
  C  C78  1  0.48197680  0.45739977  0.13754054  1.0
  C  C79  1  0.50697780  0.52909226  0.09098308  1.0
  O  O80  1  0.50233691  0.49434583  0.50080918  1.0
  O  O81  1  0.57479336  0.52598651  0.33453475  1.0
  O  O82  1  0.57915047  0.41320060  0.65746695  1.0
  O  O83  1  0.48266728  0.43721351  0.35481358  1.0
  O  O84  1  0.44110684  0.54227689  0.65428098  1.0
  O  O85  1  0.88750656  0.24755123  0.51040739  1.0
  O  O86  1  0.11773202  0.75288195  0.51326864  1.0
  O  O87  1  0.62559813  0.97649523  0.74663984  1.0
  O  O88  1  0.60725675  0.85377160  0.71579581  1.0
  O  O89  1  0.40136085  0.71162186  0.00467068  1.0
  O  O90  1  0.50934621  0.66524285  0.91464394  1.0
  O  O91  1  0.43279880  0.70985646  0.52393501  1.0
  O  O92  1  0.36055529  0.59489104  0.90212471  1.0
  O  O93  1  0.57512924  0.26772068  0.56565330  1.0
  O  O94  1  0.69763638  0.52476450  0.46154584  1.0
  O  O95  1  0.30142695  0.52791702  0.45495521  1.0
  O  O96  1  0.71689302  0.37274899  0.51280635  1.0
  O  O97  1  0.28266719  0.59748903  0.54903516  1.0
  O  O98  1  0.50032060  0.69282699  0.41315178  1.0
  O  O99  1  0.44563084  0.31627832  0.50279041  1.0
