# generated using pymatgen
data_Zn4H20C44O21
_symmetry_space_group_name_H-M   'P 1'
_cell_length_a   23.70929104
_cell_length_b   23.70902097
_cell_length_c   23.70706040
_cell_angle_alpha   114.18364416
_cell_angle_beta   107.17083442
_cell_angle_gamma   107.16856597
_symmetry_Int_Tables_number   1
_chemical_formula_structural   Zn4H20C44O21
_chemical_formula_sum   'Zn8 H40 C88 O42'
_cell_volume   10205.61493832
_cell_formula_units_Z   2
loop_
 _symmetry_equiv_pos_site_id
 _symmetry_equiv_pos_as_xyz
  1  'x, y, z'
loop_
 _atom_site_type_symbol
 _atom_site_label
 _atom_site_symmetry_multiplicity
 _atom_site_fract_x
 _atom_site_fract_y
 _atom_site_fract_z
 _atom_site_occupancy
  Zn  Zn0  1  0.94007162  0.89973719  0.45617136  1.0
  Zn  Zn1  1  0.94006161  0.04032712  0.48388871  1.0
  Zn  Zn2  1  0.05993757  0.04384250  0.60027566  1.0
  Zn  Zn3  1  0.05992981  0.01610452  0.45966254  1.0
  Zn  Zn4  1  0.05644223  0.60026658  0.04033822  1.0
  Zn  Zn5  1  0.94355539  0.45965624  0.89972210  1.0
  Zn  Zn6  1  0.05643400  0.45617175  0.01610294  1.0
  Zn  Zn7  1  0.94357217  0.48390352  0.04383596  1.0
  H  H8  1  0.07811387  0.73016436  0.96313308  1.0
  H  H9  1  0.07813304  0.79336709  0.90076681  1.0
  H  H10  1  0.92190677  0.59922812  0.70659891  1.0
  H  H11  1  0.92187759  0.53686289  0.76980259  1.0
  H  H12  1  0.07251265  0.90480882  0.79221451  1.0
  H  H13  1  0.07165072  0.96738176  0.72916986  1.0
  H  H14  1  0.92840839  0.77088474  0.53262401  1.0
  H  H15  1  0.92754163  0.70780906  0.59516992  1.0
  H  H16  1  0.92188617  0.38500591  0.15204713  1.0
  H  H17  1  0.92187321  0.32262303  0.21523295  1.0
  H  H18  1  0.07807442  0.28468916  0.17729885  1.0
  H  H19  1  0.07809903  0.34792208  0.11496324  1.0
  H  H20  1  0.92751675  0.21970849  0.33231783  1.0
  H  H21  1  0.92839930  0.15753738  0.39576326  1.0
  H  H22  1  0.07162881  0.10426333  0.34249486  1.0
  H  H23  1  0.07247801  0.16767009  0.28028032  1.0
  H  H24  1  0.26177595  0.72913692  0.15752300  1.0
  H  H25  1  0.38739691  0.79219442  0.21974114  1.0
  H  H26  1  0.38737626  0.59518187  0.16767840  1.0
  H  H27  1  0.26176040  0.53262602  0.10423206  1.0
  H  H28  1  0.60738459  0.90075538  0.32273192  1.0
  H  H29  1  0.73295426  0.96311849  0.38504917  1.0
  H  H30  1  0.73296610  0.76981967  0.34794587  1.0
  H  H31  1  0.60739619  0.70662166  0.28477737  1.0
  H  H32  1  0.73820857  0.34245913  0.77083984  1.0
  H  H33  1  0.61259042  0.28024215  0.70779077  1.0
  H  H34  1  0.61264319  0.33233684  0.90483461  1.0
  H  H35  1  0.73825822  0.39578217  0.96738849  1.0
  H  H36  1  0.39260816  0.17727116  0.59923431  1.0
  H  H37  1  0.26703826  0.11494440  0.53686414  1.0
  H  H38  1  0.26704452  0.15206967  0.73019312  1.0
  H  H39  1  0.39261665  0.21524221  0.79339800  1.0
  H  H40  1  0.16277564  0.89578727  0.35325777  1.0
  H  H41  1  0.95747418  0.60423201  0.26700554  1.0
  H  H42  1  0.04250564  0.80951835  0.14673002  1.0
  H  H43  1  0.83722081  0.69047157  0.23298249  1.0
  H  H44  1  0.16278390  0.26701955  0.80953382  1.0
  H  H45  1  0.95749567  0.35325581  0.69046440  1.0
  H  H46  1  0.04253125  0.23301068  0.89578747  1.0
  H  H47  1  0.83723092  0.14676253  0.60420415  1.0
  C  C48  1  0.81506608  0.90752672  0.40753695  1.0
  C  C49  1  0.00000358  0.13731414  0.63731099  1.0
  C  C50  1  0.00002884  0.91007915  0.58996764  1.0
  C  C51  1  0.18493585  0.09246054  0.59247038  1.0
  C  C52  1  0.99999758  0.86269147  0.36268916  1.0
  C  C53  1  0.00000834  0.08996088  0.41006422  1.0
  C  C54  1  0.99999581  0.59245601  0.90752260  1.0
  C  C55  1  0.99999421  0.36268750  0.86268774  1.0
  C  C56  1  0.17989312  0.58994499  0.08993940  1.0
  C  C57  1  0.99999812  0.40752979  0.09246201  1.0
  C  C58  1  0.99999928  0.63730892  0.13730861  1.0
  C  C59  1  0.82011187  0.41005732  0.91004706  1.0
  C  C60  1  0.99999950  0.80446164  0.30445858  1.0
  C  C61  1  0.99999700  0.69554083  0.19553696  1.0
  C  C62  1  0.04281186  0.82053490  0.27681081  1.0
  C  C63  1  0.95628519  0.67947149  0.22228051  1.0
  C  C64  1  0.04370565  0.76599791  0.22317232  1.0
  C  C65  1  0.95718487  0.73400640  0.27771195  1.0
  C  C66  1  0.00000371  0.19554547  0.69553435  1.0
  C  C67  1  0.00000517  0.30446794  0.80446561  1.0
  C  C68  1  0.04282414  0.22230130  0.76600725  1.0
  C  C69  1  0.95629712  0.27682232  0.73399407  1.0
  C  C70  1  0.04371970  0.27772618  0.82054039  1.0
  C  C71  1  0.95719322  0.22319210  0.67946005  1.0
  C  C72  1  0.99999715  0.62983427  0.87014241  1.0
  C  C73  1  0.04411366  0.70218969  0.90703296  1.0
  C  C74  1  0.04412476  0.73722620  0.87235288  1.0
  C  C75  1  0.00001678  0.70046681  0.79951550  1.0
  C  C76  1  0.95589536  0.62764188  0.76275085  1.0
  C  C77  1  0.95588962  0.59295272  0.79778032  1.0
  C  C78  1  0.00004045  0.73597103  0.76401214  1.0
  C  C79  1  0.00004289  0.76665469  0.73333207  1.0
  C  C80  1  0.00003565  0.80216765  0.69783606  1.0
  C  C81  1  0.04091186  0.87580924  0.73547595  1.0
  C  C82  1  0.04064830  0.91057821  0.70053311  1.0
  C  C83  1  0.00002171  0.87271489  0.62731799  1.0
  C  C84  1  0.95940400  0.79949833  0.58943215  1.0
  C  C85  1  0.95914857  0.76454391  0.62418574  1.0
  C  C86  1  0.99999238  0.37014096  0.12983072  1.0
  C  C87  1  0.95588327  0.36290582  0.15806873  1.0
  C  C88  1  0.95587380  0.32821719  0.19309688  1.0
  C  C89  1  0.99997882  0.29949485  0.20044209  1.0
  C  C90  1  0.04409367  0.30685239  0.17173108  1.0
  C  C91  1  0.04409210  0.34189113  0.13705234  1.0
  C  C92  1  0.99995832  0.26397150  0.23592520  1.0
  C  C93  1  0.99996723  0.23329625  0.26661837  1.0
  C  C94  1  0.99999326  0.19782235  0.30215048  1.0
  C  C95  1  0.95912439  0.19458403  0.33492430  1.0
  C  C96  1  0.95938861  0.15990518  0.36995212  1.0
  C  C97  1  0.00000473  0.12731038  0.37269881  1.0
  C  C98  1  0.04062731  0.13005758  0.34011137  1.0
  C  C99  1  0.04087723  0.16507037  0.30541464  1.0
  C  C100  1  0.25460921  0.62730263  0.12730119  1.0
  C  C101  1  0.28995367  0.70051398  0.15989725  1.0
  C  C102  1  0.35966294  0.73545804  0.19460022  1.0
  C  C103  1  0.39567316  0.69782967  0.19786265  1.0
  C  C104  1  0.35965219  0.62418865  0.16507706  1.0
  C  C105  1  0.28994341  0.58942740  0.13004457  1.0
  C  C106  1  0.46667867  0.73333244  0.23339933  1.0
  C  C107  1  0.52804710  0.76401776  0.26408659  1.0
  C  C108  1  0.59905268  0.79951646  0.29957694  1.0
  C  C109  1  0.63511717  0.87234111  0.32829513  1.0
  C  C110  1  0.70483688  0.90702343  0.36296080  1.0
  C  C111  1  0.74031305  0.87014942  0.37017603  1.0
  C  C112  1  0.70484247  0.79779331  0.34193108  1.0
  C  C113  1  0.63512570  0.76275673  0.30691570  1.0
  C  C114  1  0.74539915  0.37270132  0.87269622  1.0
  C  C115  1  0.71003934  0.34009400  0.79947350  1.0
  C  C116  1  0.64032948  0.30538663  0.76453029  1.0
  C  C117  1  0.60432833  0.30213678  0.80217076  1.0
  C  C118  1  0.64035804  0.33492818  0.87582046  1.0
  C  C119  1  0.71006825  0.36996369  0.91058078  1.0
  C  C120  1  0.53331712  0.26659805  0.76666684  1.0
  C  C121  1  0.47195724  0.23591696  0.73598974  1.0
  C  C122  1  0.40095124  0.20043447  0.70048807  1.0
  C  C123  1  0.36487879  0.17170762  0.62764907  1.0
  C  C124  1  0.29516044  0.13703670  0.59296561  1.0
  C  C125  1  0.25968811  0.12982486  0.62984947  1.0
  C  C126  1  0.29516465  0.15808267  0.70221570  1.0
  C  C127  1  0.36488263  0.19310103  0.73725489  1.0
  C  C128  1  0.08398718  0.89534530  0.29855426  1.0
  C  C129  1  0.90321753  0.60465994  0.18864737  1.0
  C  C130  1  0.09676848  0.78543604  0.20142489  1.0
  C  C131  1  0.91600464  0.71456840  0.31134490  1.0
  C  C132  1  0.08400453  0.18867095  0.78544846  1.0
  C  C133  1  0.90323340  0.29856638  0.71454370  1.0
  C  C134  1  0.09678918  0.31136703  0.89536316  1.0
  C  C135  1  0.91601425  0.20144056  0.60463843  1.0
  O  O136  1  0.99999892  0.00000340  0.49999853  1.0
  O  O137  1  0.84437683  0.87214795  0.41659841  1.0
  O  O138  1  0.94861013  0.10230345  0.57715774  1.0
  O  O139  1  0.03631615  0.97706751  0.62784740  1.0
  O  O140  1  0.84436393  0.97221210  0.42776450  1.0
  O  O141  1  0.96374948  0.87220735  0.52297383  1.0
  O  O142  1  0.05138589  0.12855239  0.65368417  1.0
  O  O143  1  0.15563373  0.08341780  0.62786194  1.0
  O  O144  1  0.05138252  0.92284193  0.39769556  1.0
  O  O145  1  0.15563404  0.07222388  0.52777855  1.0
  O  O146  1  0.94861747  0.84631501  0.37145356  1.0
  O  O147  1  0.96371777  0.09153638  0.44075863  1.0
  O  O148  1  0.03629531  0.05926349  0.40848316  1.0
  O  O149  1  0.00000160  0.50000032  0.99999974  1.0
  O  O150  1  0.04444250  0.62784999  0.97222064  1.0
  O  O151  1  0.97485045  0.39769148  0.84631263  1.0
  O  O152  1  0.15077212  0.52295780  0.05923341  1.0
  O  O153  1  0.95554680  0.52777093  0.87213366  1.0
  O  O154  1  0.15078100  0.62781792  0.09153505  1.0
  O  O155  1  0.02513382  0.37144291  0.92283773  1.0
  O  O156  1  0.04445159  0.41660250  0.07223346  1.0
  O  O157  1  0.97485940  0.57716269  0.12854905  1.0
  O  O158  1  0.95556012  0.42777725  0.08340663  1.0
  O  O159  1  0.02513831  0.65368061  0.10229565  1.0
  O  O160  1  0.84921943  0.40845572  0.87217110  1.0
  O  O161  1  0.84923445  0.44077063  0.97704200  1.0
  O  O162  1  0.15111099  0.92649257  0.34014904  1.0
  O  O163  1  0.05885450  0.92366704  0.27464970  1.0
  O  O164  1  0.91365981  0.57352033  0.22462746  1.0
  O  O165  1  0.85098318  0.57633162  0.13517871  1.0
  O  O166  1  0.08631669  0.81096102  0.15983058  1.0
  O  O167  1  0.14899792  0.78420742  0.22533258  1.0
  O  O168  1  0.84888439  0.68903525  0.27536109  1.0
  O  O169  1  0.94114351  0.71580254  0.36481122  1.0
  O  O170  1  0.15112466  0.22465372  0.81097974  1.0
  O  O171  1  0.05886864  0.13521946  0.78421904  1.0
  O  O172  1  0.91368042  0.34015281  0.68901665  1.0
  O  O173  1  0.85099684  0.27464997  0.71576636  1.0
  O  O174  1  0.08634287  0.27538477  0.92650180  1.0
  O  O175  1  0.14901306  0.36482522  0.92369558  1.0
  O  O176  1  0.84889387  0.15985937  0.57349082  1.0
  O  O177  1  0.94114680  0.22533560  0.57630249  1.0
