# generated using pymatgen
data_Zn2H15C24O11
_symmetry_space_group_name_H-M   'P 1'
_cell_length_a   12.45519982
_cell_length_b   15.12858535
_cell_length_c   26.12030240
_cell_angle_alpha   90.29524221
_cell_angle_beta   78.12696150
_cell_angle_gamma   90.01943915
_symmetry_Int_Tables_number   1
_chemical_formula_structural   Zn2H15C24O11
_chemical_formula_sum   'Zn8 H60 C96 O44'
_cell_volume   4816.47344217
_cell_formula_units_Z   4
loop_
 _symmetry_equiv_pos_site_id
 _symmetry_equiv_pos_as_xyz
  1  'x, y, z'
loop_
 _atom_site_type_symbol
 _atom_site_label
 _atom_site_symmetry_multiplicity
 _atom_site_fract_x
 _atom_site_fract_y
 _atom_site_fract_z
 _atom_site_occupancy
  Zn  Zn0  1  0.14888062  0.99077045  0.86913769  1.0
  Zn  Zn1  1  0.03981159  0.85413328  0.79090431  1.0
  Zn  Zn2  1  0.86448248  0.04189278  0.14702548  1.0
  Zn  Zn3  1  0.36962958  0.48746974  0.64499080  1.0
  Zn  Zn4  1  0.47801593  0.36068436  0.72113507  1.0
  Zn  Zn5  1  0.95591566  0.18871072  0.23847912  1.0
  Zn  Zn6  1  0.65686539  0.53833717  0.36638776  1.0
  Zn  Zn7  1  0.54373658  0.67111026  0.29227090  1.0
  H  H8  1  0.79018249  0.75343391  0.90139697  1.0
  H  H9  1  0.91921129  0.94028080  0.99751073  1.0
  H  H10  1  0.63515913  0.78583729  0.06415337  1.0
  H  H11  1  0.58347320  0.76902573  0.90814684  1.0
  H  H12  1  0.72060131  0.64113572  0.05023028  1.0
  H  H13  1  0.68134288  0.50717740  0.10190294  1.0
  H  H14  1  0.36646198  0.79018458  0.89981645  1.0
  H  H15  1  0.50307178  0.54250149  0.83392570  1.0
  H  H16  1  0.31049537  0.70157285  0.75073394  1.0
  H  H17  1  0.33454905  0.52533095  0.91157471  1.0
  H  H18  1  0.29169304  0.39255269  0.96503267  1.0
  H  H19  1  0.43085023  0.26473556  0.10686474  1.0
  H  H20  1  0.64823439  0.24138478  0.11382577  1.0
  H  H21  1  0.51711632  0.49174534  0.17786692  1.0
  H  H22  1  0.22547487  0.27989429  0.11593290  1.0
  H  H23  1  0.37788727  0.24478398  0.95364194  1.0
  H  H24  1  0.70574106  0.33142681  0.26240939  1.0
  H  H25  1  0.09550863  0.08964337  0.02160307  1.0
  H  H26  1  0.74353909  0.26146332  0.61100460  1.0
  H  H27  1  0.61097834  0.43754180  0.51054457  1.0
  H  H28  1  0.88194249  0.26798037  0.44575532  1.0
  H  H29  1  0.94041617  0.26365681  0.60385220  1.0
  H  H30  1  0.79303563  0.13102220  0.46534018  1.0
  H  H31  1  0.83305460  0.99764661  0.41213898  1.0
  H  H32  1  0.15518889  0.28381110  0.61257692  1.0
  H  H33  1  0.01838711  0.03686804  0.67751441  1.0
  H  H34  1  0.22082822  0.19095574  0.75882150  1.0
  H  H35  1  0.18768516  0.01887435  0.59908446  1.0
  H  H36  1  0.22841455  0.88534814  0.54526719  1.0
  H  H37  1  0.09070444  0.75870320  0.40242607  1.0
  H  H38  1  0.87345830  0.73635490  0.39403860  1.0
  H  H39  1  0.00286016  0.98847761  0.33405763  1.0
  H  H40  1  0.30208456  0.77272755  0.39898360  1.0
  H  H41  1  0.12751177  0.73719609  0.55765915  1.0
  H  H42  1  0.80474073  0.83585083  0.24997874  1.0
  H  H43  1  0.42184795  0.58829559  0.49897451  1.0
  H  H44  1  0.86854242  0.92120327  0.75320132  1.0
  H  H45  1  0.05112962  0.76275531  0.70441657  1.0
  H  H46  1  0.10076114  0.83387568  0.63264915  1.0
  H  H47  1  0.84720330  0.81991407  0.75080227  1.0
  H  H48  1  0.10424714  0.71057627  0.74593338  1.0
  H  H49  1  0.12527902  0.72938994  0.63388376  1.0
  H  H50  1  0.35938924  0.69137099  0.25573344  1.0
  H  H51  1  0.52396229  0.81877334  0.24531976  1.0
  H  H52  1  0.70362871  0.78367435  0.14787988  1.0
  H  H53  1  0.35453909  0.59330708  0.27199230  1.0
  H  H54  1  0.58751744  0.74491174  0.20420167  1.0
  H  H55  1  0.73874134  0.71520607  0.18833523  1.0
  H  H56  1  0.11953254  0.11492903  0.25862708  1.0
  H  H57  1  0.00869752  0.32877349  0.18729332  1.0
  H  H58  1  0.99092907  0.23917230  0.32744751  1.0
  H  H59  1  0.17148958  0.19389716  0.22416542  1.0
  H  H60  1  0.91469286  0.36844775  0.23103175  1.0
  H  H61  1  0.86771266  0.26867460  0.33934319  1.0
  H  H62  1  0.61746084  0.27985152  0.75925681  1.0
  H  H63  1  0.38461916  0.22902161  0.87362150  1.0
  H  H64  1  0.78943795  0.35558788  0.72786201  1.0
  H  H65  1  0.50177439  0.27545464  0.80479966  1.0
  H  H66  1  0.41083473  0.33248458  0.87607017  1.0
  H  H67  1  0.71299938  0.33101471  0.68927934  1.0
  C  C68  1  0.95047416  0.87329718  0.89918240  1.0
  C  C69  1  0.86305655  0.84899636  0.94496999  1.0
  C  C70  1  0.78495496  0.78525584  0.93935499  1.0
  C  C71  1  0.85908190  0.89005066  0.99325917  1.0
  C  C72  1  0.70153959  0.76192065  0.98180053  1.0
  C  C73  1  0.77817601  0.86586200  0.03640823  1.0
  C  C74  1  0.61890764  0.69602278  0.97307405  1.0
  C  C75  1  0.69953977  0.80240804  0.03054627  1.0
  C  C76  1  0.77752482  0.90925344  0.08833261  1.0
  C  C77  1  0.59812522  0.61758567  0.00297047  1.0
  C  C78  1  0.56527188  0.70934472  0.93163512  1.0
  C  C79  1  0.51960121  0.55519129  0.99142821  1.0
  C  C80  1  0.65665730  0.59654067  0.04301585  1.0
  C  C81  1  0.49078403  0.64842987  0.91867044  1.0
  C  C82  1  0.46482450  0.57120018  0.94930252  1.0
  C  C83  1  0.63454345  0.52153703  0.07200923  1.0
  C  C84  1  0.44177135  0.66467647  0.87245520  1.0
  C  C85  1  0.38051668  0.74111618  0.86843192  1.0
  C  C86  1  0.45568601  0.60236958  0.83175761  1.0
  C  C87  1  0.33226138  0.75401753  0.82507104  1.0
  C  C88  1  0.40934032  0.61553823  0.78788220  1.0
  C  C89  1  0.25683745  0.83081047  0.82391614  1.0
  C  C90  1  0.34745616  0.69154558  0.78456318  1.0
  C  C91  1  0.42193231  0.54550387  0.74657919  1.0
  C  C92  1  0.49611563  0.47653678  0.02193642  1.0
  C  C93  1  0.38174453  0.51025651  0.94125415  1.0
  C  C94  1  0.55180556  0.46066119  0.06376006  1.0
  C  C95  1  0.41623182  0.41461284  0.01120536  1.0
  C  C96  1  0.35802569  0.43592274  0.97098401  1.0
  C  C97  1  0.52561870  0.38399048  0.09469791  1.0
  C  C98  1  0.39391205  0.33736222  0.04219020  1.0
  C  C99  1  0.57545165  0.36793907  0.14049305  1.0
  C  C100  1  0.44916267  0.32397851  0.08298710  1.0
  C  C101  1  0.31058288  0.27109267  0.03515314  1.0
  C  C102  1  0.63522256  0.29097338  0.14491550  1.0
  C  C103  1  0.56280911  0.43118596  0.18066452  1.0
  C  C104  1  0.22925824  0.24699770  0.07836176  1.0
  C  C105  1  0.31270793  0.22896151  0.98700199  1.0
  C  C106  1  0.68287124  0.27821751  0.18849762  1.0
  C  C107  1  0.60942405  0.41814951  0.22429111  1.0
  C  C108  1  0.15243287  0.18144805  0.07390691  1.0
  C  C109  1  0.23475923  0.16475676  0.98162565  1.0
  C  C110  1  0.75465650  0.20011841  0.19122131  1.0
  C  C111  1  0.66952276  0.34151287  0.22833556  1.0
  C  C112  1  0.59949621  0.48740692  0.26555466  1.0
  C  C113  1  0.06653399  0.15501409  0.12039329  1.0
  C  C114  1  0.15532708  0.14040554  0.02540240  1.0
  C  C115  1  0.23620225  0.12225795  0.92899923  1.0
  C  C116  1  0.58540141  0.38387740  0.61199040  1.0
  C  C117  1  0.66939032  0.35384418  0.56588878  1.0
  C  C118  1  0.74585057  0.28928374  0.57242108  1.0
  C  C119  1  0.67005709  0.38728940  0.51592760  1.0
  C  C120  1  0.82325573  0.25730441  0.52971000  1.0
  C  C121  1  0.74651912  0.35573474  0.47264134  1.0
  C  C122  1  0.90272133  0.18978428  0.53920639  1.0
  C  C123  1  0.82229414  0.29107095  0.47976334  1.0
  C  C124  1  0.74726187  0.39219203  0.41867279  1.0
  C  C125  1  0.92084837  0.11021021  0.50978458  1.0
  C  C126  1  0.95720107  0.20340556  0.58040970  1.0
  C  C127  1  0.99966681  0.04795533  0.52074891  1.0
  C  C128  1  0.85960398  0.08781691  0.47085094  1.0
  C  C129  1  0.03069595  0.14198416  0.59334767  1.0
  C  C130  1  0.05565608  0.06432340  0.56251456  1.0
  C  C131  1  0.88182208  0.01303055  0.44117708  1.0
  C  C132  1  0.08066547  0.15826514  0.63933896  1.0
  C  C133  1  0.14243275  0.23445032  0.64350881  1.0
  C  C134  1  0.06704910  0.09608283  0.67976489  1.0
  C  C135  1  0.19341120  0.24583640  0.68620182  1.0
  C  C136  1  0.11526710  0.10830432  0.72315451  1.0
  C  C137  1  0.27000508  0.32142346  0.68733525  1.0
  C  C138  1  0.18000853  0.18284340  0.72604440  1.0
  C  C139  1  0.10124650  0.03991358  0.76520031  1.0
  C  C140  1  0.02254715  0.96926502  0.48981033  1.0
  C  C141  1  0.13902401  0.00336687  0.56997227  1.0
  C  C142  1  0.96688986  0.95336973  0.44790949  1.0
  C  C143  1  0.10216965  0.90726145  0.50014868  1.0
  C  C144  1  0.16154845  0.92864160  0.54004990  1.0
  C  C145  1  0.99483293  0.87778208  0.41565825  1.0
  C  C146  1  0.12381371  0.82973573  0.46896483  1.0
  C  C147  1  0.94530803  0.86356286  0.36939916  1.0
  C  C148  1  0.07095468  0.81726913  0.42714932  1.0
  C  C149  1  0.20551573  0.76350505  0.47782390  1.0
  C  C150  1  0.88504418  0.78721665  0.36399616  1.0
  C  C151  1  0.95666080  0.92839880  0.33044427  1.0
  C  C152  1  0.29306183  0.74122350  0.43704260  1.0
  C  C153  1  0.19745097  0.72197116  0.52637471  1.0
  C  C154  1  0.83406110  0.77698707  0.32116513  1.0
  C  C155  1  0.90787319  0.91787961  0.28719308  1.0
  C  C156  1  0.37021497  0.67804189  0.44463741  1.0
  C  C157  1  0.27585151  0.66029939  0.53464876  1.0
  C  C158  1  0.76023041  0.69978791  0.31893568  1.0
  C  C159  1  0.84560405  0.84228477  0.28282883  1.0
  C  C160  1  0.91716982  0.98881755  0.24687474  1.0
  C  C161  1  0.46110232  0.65412819  0.40033344  1.0
  C  C162  1  0.36165678  0.63733620  0.49317580  1.0
  C  C163  1  0.27041270  0.61926958  0.58754532  1.0
  O  O164  1  0.99880370  0.94680397  0.90097057  1.0
  O  O165  1  0.96934708  0.81798254  0.86107112  1.0
  O  O166  1  0.71917049  0.87978381  0.13005521  1.0
  O  O167  1  0.84053397  0.97706663  0.08624368  1.0
  O  O168  1  0.25002349  0.88839602  0.86034261  1.0
  O  O169  1  0.20312607  0.83184395  0.78739675  1.0
  O  O170  1  0.37774327  0.55878890  0.70738111  1.0
  O  O171  1  0.47523034  0.47648579  0.75454971  1.0
  O  O172  1  0.04059796  0.74662049  0.74359441  1.0
  O  O173  1  0.06818268  0.77793120  0.64605955  1.0
  O  O174  1  0.86087898  0.86735443  0.77396044  1.0
  O  O175  1  0.16767693  0.05796421  0.93006542  1.0
  O  O176  1  0.14601075  0.05496252  0.80381468  1.0
  O  O177  1  0.04516623  0.97146072  0.75823977  1.0
  O  O178  1  0.76519440  0.14446612  0.15378027  1.0
  O  O179  1  0.80123358  0.19577543  0.23027814  1.0
  O  O180  1  0.65540665  0.47616644  0.30050095  1.0
  O  O181  1  0.53659910  0.55316040  0.26206420  1.0
  O  O182  1  0.01313247  0.08534716  0.11538643  1.0
  O  O183  1  0.05314958  0.20360383  0.16178177  1.0
  O  O184  1  0.29920468  0.14950105  0.88826352  1.0
  O  O185  1  0.86310785  0.97604529  0.21110783  1.0
  O  O186  1  0.97673305  0.05608232  0.25125940  1.0
  O  O187  1  0.12704172  0.17948873  0.25837721  1.0
  O  O188  1  0.98324748  0.33534024  0.22518420  1.0
  O  O189  1  0.91975428  0.22362109  0.32009761  1.0
  O  O190  1  0.51044115  0.43547658  0.60443229  1.0
  O  O191  1  0.59408037  0.35360207  0.65719354  1.0
  O  O192  1  0.79840284  0.35424945  0.37819450  1.0
  O  O193  1  0.69099289  0.46435503  0.42018366  1.0
  O  O194  1  0.26824750  0.38524041  0.65592415  1.0
  O  O195  1  0.33374007  0.31457920  0.71971936  1.0
  O  O196  1  0.53640528  0.27564849  0.76558766  1.0
  O  O197  1  0.44287154  0.27622587  0.86273688  1.0
  O  O198  1  0.74724654  0.30733951  0.71721467  1.0
  O  O199  1  0.34015517  0.55640764  0.58762634  1.0
  O  O200  1  0.75271307  0.64325295  0.35550784  1.0
  O  O201  1  0.70758098  0.69667189  0.28166434  1.0
  O  O202  1  0.50888413  0.58036229  0.40228991  1.0
  O  O203  1  0.48347559  0.70997556  0.36277363  1.0
  O  O204  1  0.20359299  0.64680839  0.62731119  1.0
  O  O205  1  0.34047924  0.65289396  0.28617016  1.0
  O  O206  1  0.51929981  0.75683691  0.23575701  1.0
  O  O207  1  0.68509995  0.72409314  0.16635404  1.0
