# generated using pymatgen
data_AlH8C15O5F
_symmetry_space_group_name_H-M   'P 1'
_cell_length_a   6.75232672
_cell_length_b   15.39466956
_cell_length_c   17.81324619
_cell_angle_alpha   92.27200423
_cell_angle_beta   100.87565946
_cell_angle_gamma   101.95922214
_symmetry_Int_Tables_number   1
_chemical_formula_structural   AlH8C15O5F
_chemical_formula_sum   'Al2 H16 C30 O10 F2'
_cell_volume   1772.97250530
_cell_formula_units_Z   2
loop_
 _symmetry_equiv_pos_site_id
 _symmetry_equiv_pos_as_xyz
  1  'x, y, z'
loop_
 _atom_site_type_symbol
 _atom_site_label
 _atom_site_symmetry_multiplicity
 _atom_site_fract_x
 _atom_site_fract_y
 _atom_site_fract_z
 _atom_site_occupancy
  Al  Al0  1  0.00000316  0.50000731  0.50000024  1.0
  Al  Al1  1  0.49999636  0.50000553  0.49999950  1.0
  H  H2  1  0.17150609  0.41281931  0.42569770  1.0
  H  H3  1  0.82849247  0.58719271  0.57430377  1.0
  H  H4  1  0.04604356  0.49727883  0.73147668  1.0
  H  H5  1  0.11650532  0.49830941  0.87481477  1.0
  H  H6  1  0.75466779  0.49824948  0.87468518  1.0
  H  H7  1  0.68110115  0.49718861  0.73135668  1.0
  H  H8  1  0.24531273  0.50180962  0.12532769  1.0
  H  H9  1  0.31893549  0.50289386  0.26866224  1.0
  H  H10  1  0.95391407  0.50267693  0.26851300  1.0
  H  H11  1  0.88343731  0.50166309  0.12517628  1.0
  H  H12  1  0.69729516  0.76851633  0.49710829  1.0
  H  H13  1  0.30269812  0.23149300  0.50289217  1.0
  H  H14  1  0.93610256  0.22566655  0.50297406  1.0
  H  H15  1  0.85061264  0.06396355  0.50136817  1.0
  H  H16  1  0.06389200  0.77434305  0.49703358  1.0
  H  H17  1  0.14938908  0.93604972  0.49863135  1.0
  C  C18  1  0.67481666  0.33968727  0.50172229  1.0
  C  C19  1  0.68190637  0.50114024  0.36183745  1.0
  C  C20  1  0.32517778  0.66032656  0.49827422  1.0
  C  C21  1  0.31808868  0.49887700  0.63816111  1.0
  C  C22  1  0.35978603  0.49779906  0.72328938  1.0
  C  C23  1  0.20039848  0.49779973  0.76373158  1.0
  C  C24  1  0.23958732  0.49826588  0.84310493  1.0
  C  C25  1  0.44054344  0.49874203  0.88417726  1.0
  C  C26  1  0.59995187  0.49823513  0.84302120  1.0
  C  C27  1  0.55944871  0.49774933  0.76366578  1.0
  C  C28  1  0.48168730  0.49955642  0.96505950  1.0
  C  C29  1  0.51825003  0.50043315  0.03494246  1.0
  C  C30  1  0.55941733  0.50126610  0.11582443  1.0
  C  C31  1  0.40003309  0.50180792  0.15698999  1.0
  C  C32  1  0.44056188  0.50230777  0.23634942  1.0
  C  C33  1  0.64020580  0.50221295  0.27671141  1.0
  C  C34  1  0.79956548  0.50218554  0.23626431  1.0
  C  C35  1  0.76035986  0.50171004  0.15688907  1.0
  C  C36  1  0.37359440  0.75920052  0.49752289  1.0
  C  C37  1  0.62640257  0.24080948  0.50247793  1.0
  C  C38  1  0.57522370  0.80476368  0.49773227  1.0
  C  C39  1  0.62069545  0.89666364  0.49864625  1.0
  C  C40  1  0.42477535  0.19524764  0.50226851  1.0
  C  C41  1  0.37930834  0.10335094  0.50135322  1.0
  C  C42  1  0.77775430  0.19116749  0.50233170  1.0
  C  C43  1  0.72776284  0.09894843  0.50146813  1.0
  C  C44  1  0.22224454  0.80884121  0.49767008  1.0
  C  C45  1  0.27223636  0.90106153  0.49853192  1.0
  C  C46  1  0.47480676  0.95062689  0.49934227  1.0
  C  C47  1  0.52519850  0.04938840  0.50065835  1.0
  O  O48  1  0.86111064  0.37752977  0.50106691  1.0
  O  O49  1  0.52958514  0.50030302  0.39482402  1.0
  O  O50  1  0.47554143  0.62181288  0.49934452  1.0
  O  O51  1  0.13400432  0.50015241  0.60509696  1.0
  O  O52  1  0.13888183  0.62248405  0.49892914  1.0
  O  O53  1  0.47042135  0.49970637  0.60517905  1.0
  O  O54  1  0.52445001  0.37819835  0.50065322  1.0
  O  O55  1  0.86600496  0.49987742  0.39490093  1.0
  O  O56  1  0.21437812  0.46056793  0.46620245  1.0
  O  O57  1  0.78561562  0.53944011  0.53379907  1.0
  F  F58  1  0.82351228  0.93356838  0.49889868  1.0
  F  F59  1  0.17648408  0.06644208  0.50109679  1.0
