# generated using pymatgen
data_ZnH12C11NO4
_symmetry_space_group_name_H-M   'P 1'
_cell_length_a   6.74549771
_cell_length_b   21.65479849
_cell_length_c   21.65468644
_cell_angle_alpha   60.00348709
_cell_angle_beta   89.99368699
_cell_angle_gamma   89.99370602
_symmetry_Int_Tables_number   1
_chemical_formula_structural   ZnH12C11NO4
_chemical_formula_sum   'Zn6 H72 C66 N6 O24'
_cell_volume   2739.46611515
_cell_formula_units_Z   6
loop_
 _symmetry_equiv_pos_site_id
 _symmetry_equiv_pos_as_xyz
  1  'x, y, z'
loop_
 _atom_site_type_symbol
 _atom_site_label
 _atom_site_symmetry_multiplicity
 _atom_site_fract_x
 _atom_site_fract_y
 _atom_site_fract_z
 _atom_site_occupancy
  Zn  Zn0  1  0.65214133  0.27607035  0.39179352  1.0
  Zn  Zn1  1  0.98515955  0.39167754  0.33209099  1.0
  Zn  Zn2  1  0.31871024  0.33212087  0.27619572  1.0
  Zn  Zn3  1  0.34786262  0.60820965  0.72392844  1.0
  Zn  Zn4  1  0.01483708  0.66791113  0.60832194  1.0
  Zn  Zn5  1  0.68129084  0.72380736  0.66787835  1.0
  H  H6  1  0.27929836  0.44362905  0.46864172  1.0
  H  H7  1  0.61262370  0.46858541  0.08776799  1.0
  H  H8  1  0.94709545  0.08766737  0.44372094  1.0
  H  H9  1  0.72069822  0.53136162  0.55636840  1.0
  H  H10  1  0.38737162  0.91223256  0.53141260  1.0
  H  H11  1  0.05290836  0.55627771  0.91233367  1.0
  H  H12  1  0.83030587  0.41633519  0.57965606  1.0
  H  H13  1  0.16287440  0.58015087  0.00403646  1.0
  H  H14  1  0.49773243  0.00404171  0.41595859  1.0
  H  H15  1  0.16969212  0.42034471  0.58367068  1.0
  H  H16  1  0.83712399  0.99596449  0.41984572  1.0
  H  H17  1  0.50226839  0.58403862  0.99595905  1.0
  H  H18  1  0.97647818  0.36179771  0.51266558  1.0
  H  H19  1  0.30942621  0.51301115  0.12544500  1.0
  H  H20  1  0.64399001  0.12553903  0.36165342  1.0
  H  H21  1  0.02352130  0.48733781  0.63820545  1.0
  H  H22  1  0.69057356  0.87455717  0.48698487  1.0
  H  H23  1  0.35601535  0.63834638  0.87446087  1.0
  H  H24  1  0.65163159  0.10934321  0.51482701  1.0
  H  H25  1  0.98532283  0.51461043  0.37571111  1.0
  H  H26  1  0.31863126  0.37568905  0.10947735  1.0
  H  H27  1  0.34836478  0.48517555  0.89065380  1.0
  H  H28  1  0.01467977  0.62428848  0.48538937  1.0
  H  H29  1  0.68137289  0.89052277  0.62431113  1.0
  H  H30  1  0.41731858  0.06518295  0.53198132  1.0
  H  H31  1  0.75121663  0.53179544  0.40282017  1.0
  H  H32  1  0.08443514  0.40274319  0.06527247  1.0
  H  H33  1  0.58267776  0.46802011  0.93481568  1.0
  H  H34  1  0.24878448  0.59717843  0.46820502  1.0
  H  H35  1  0.91556757  0.93472962  0.59725483  1.0
  H  H36  1  0.54963427  0.06510650  0.60303193  1.0
  H  H37  1  0.88348414  0.60284113  0.33185694  1.0
  H  H38  1  0.21675965  0.33177318  0.06517776  1.0
  H  H39  1  0.45036055  0.39697099  0.93489066  1.0
  H  H40  1  0.11651557  0.66814126  0.39715844  1.0
  H  H41  1  0.78324451  0.93482255  0.66822667  1.0
  H  H42  1  0.25498748  0.27176734  0.53030789  1.0
  H  H43  1  0.58818591  0.53026704  0.19789955  1.0
  H  H44  1  0.92206604  0.19783923  0.27181684  1.0
  H  H45  1  0.74501342  0.46969261  0.72823092  1.0
  H  H46  1  0.41181383  0.80209984  0.46973246  1.0
  H  H47  1  0.07794534  0.72818418  0.80215907  1.0
  H  H48  1  0.06825604  0.22091619  0.59482300  1.0
  H  H49  1  0.40158284  0.59482096  0.18426448  1.0
  H  H50  1  0.73544928  0.18408682  0.22097998  1.0
  H  H51  1  0.93174480  0.40517832  0.77908292  1.0
  H  H52  1  0.59841398  0.81573536  0.40517700  1.0
  H  H53  1  0.26456212  0.77902088  0.81591046  1.0
  H  H54  1  0.03230431  0.24772816  0.50307083  1.0
  H  H55  1  0.36561687  0.50308607  0.24924250  1.0
  H  H56  1  0.69930527  0.24908030  0.24773225  1.0
  H  H57  1  0.96769363  0.49692940  0.75227145  1.0
  H  H58  1  0.63438431  0.75075757  0.49691179  1.0
  H  H59  1  0.30070319  0.75226980  0.75091691  1.0
  H  H60  1  0.07259617  0.07964298  0.56292253  1.0
  H  H61  1  0.40638471  0.56300033  0.35740039  1.0
  H  H62  1  0.73928182  0.35730689  0.07980682  1.0
  H  H63  1  0.92739719  0.43707717  0.92035761  1.0
  H  H64  1  0.59361051  0.64260069  0.43699581  1.0
  H  H65  1  0.26072679  0.92019391  0.64269110  1.0
  H  H66  1  0.00395974  0.10706513  0.62505648  1.0
  H  H67  1  0.33780162  0.62515995  0.26786945  1.0
  H  H68  1  0.67087086  0.26774718  0.10714365  1.0
  H  H69  1  0.99603213  0.37494403  0.89293480  1.0
  H  H70  1  0.66219516  0.73213097  0.37483735  1.0
  H  H71  1  0.32913620  0.89285682  0.73225129  1.0
  H  H72  1  0.22289594  0.05566224  0.63980191  1.0
  H  H73  1  0.55687052  0.63982920  0.30449929  1.0
  H  H74  1  0.88959863  0.30452989  0.05564901  1.0
  H  H75  1  0.77709589  0.36019881  0.94433729  1.0
  H  H76  1  0.44312329  0.69550335  0.36016714  1.0
  H  H77  1  0.11040848  0.94435123  0.69546902  1.0
  C  C78  1  0.71288165  0.37080109  0.45330153  1.0
  C  C79  1  0.04614108  0.45340546  0.17586488  1.0
  C  C80  1  0.38032365  0.17587253  0.37073954  1.0
  C  C81  1  0.28711787  0.54670334  0.62919832  1.0
  C  C82  1  0.95385714  0.82413694  0.54659008  1.0
  C  C83  1  0.61968025  0.62926148  0.82412777  1.0
  C  C84  1  0.51143705  0.39459637  0.44135252  1.0
  C  C85  1  0.84475650  0.44139745  0.16403150  1.0
  C  C86  1  0.17897685  0.16402743  0.39458423  1.0
  C  C87  1  0.48856397  0.55865134  0.60540424  1.0
  C  C88  1  0.15524321  0.83597005  0.55859956  1.0
  C  C89  1  0.82102703  0.60541661  0.83597181  1.0
  C  C90  1  0.43263299  0.42528914  0.47990929  1.0
  C  C91  1  0.76585153  0.47998630  0.09480055  1.0
  C  C92  1  0.10026300  0.09478421  0.42521555  1.0
  C  C93  1  0.56736210  0.52009434  0.57470926  1.0
  C  C94  1  0.23414823  0.90519968  0.52001093  1.0
  C  C95  1  0.89973935  0.57478342  0.90521595  1.0
  C  C96  1  0.54301475  0.43480220  0.52907061  1.0
  C  C97  1  0.87581248  0.52936416  0.03612203  1.0
  C  C98  1  0.21044000  0.03614016  0.43450899  1.0
  C  C99  1  0.45698179  0.47093017  0.56520007  1.0
  C  C100  1  0.12419031  0.96387971  0.47063242  1.0
  C  C101  1  0.78955489  0.56548939  0.96386079  1.0
  C  C102  1  0.74110166  0.41074674  0.54068150  1.0
  C  C103  1  0.07382290  0.54105975  0.04859424  1.0
  C  C104  1  0.40851493  0.04861234  0.41037901  1.0
  C  C105  1  0.25889190  0.45932127  0.58925495  1.0
  C  C106  1  0.92617841  0.95140671  0.45893542  1.0
  C  C107  1  0.59148740  0.58961894  0.95138948  1.0
  C  C108  1  0.82273399  0.37968607  0.50409392  1.0
  C  C109  1  0.15572538  0.50436374  0.11619023  1.0
  C  C110  1  0.49019406  0.11625160  0.37944773  1.0
  C  C111  1  0.17726254  0.49590753  0.62031696  1.0
  C  C112  1  0.84426995  0.88381190  0.49563306  1.0
  C  C113  1  0.50980832  0.62055242  0.88375006  1.0
  C  C114  1  0.37903735  0.39038313  0.38850461  1.0
  C  C115  1  0.71241857  0.38848721  0.22109942  1.0
  C  C116  1  0.04641984  0.22104452  0.39045933  1.0
  C  C117  1  0.62096369  0.61149750  0.60961654  1.0
  C  C118  1  0.28757663  0.77890234  0.61151105  1.0
  C  C119  1  0.95358111  0.60953660  0.77895572  1.0
  C  C120  1  0.41852262  0.16667827  0.52965850  1.0
  C  C121  1  0.75189281  0.52955686  0.30362069  1.0
  C  C122  1  0.08549465  0.30355841  0.16673519  1.0
  C  C123  1  0.58147526  0.47034371  0.83331909  1.0
  C  C124  1  0.24810687  0.69638000  0.47044309  1.0
  C  C125  1  0.91450795  0.83326474  0.69644123  1.0
  C  C126  1  0.51448641  0.09720116  0.54578523  1.0
  C  C127  1  0.84825148  0.54561283  0.35695924  1.0
  C  C128  1  0.18155568  0.35690376  0.09727932  1.0
  C  C129  1  0.48551143  0.45421718  0.90279617  1.0
  C  C130  1  0.15174670  0.64303979  0.45438742  1.0
  C  C131  1  0.81844995  0.90272194  0.64309603  1.0
  C  C132  1  0.14286248  0.23008725  0.54587882  1.0
  C  C133  1  0.47621051  0.54588242  0.22403324  1.0
  C  C134  1  0.80996145  0.22390402  0.23010916  1.0
  C  C135  1  0.85713691  0.45412268  0.76991109  1.0
  C  C136  1  0.52378923  0.77596701  0.45411475  1.0
  C  C137  1  0.19004552  0.76989219  0.77609377  1.0
  C  C138  1  0.13004123  0.09785836  0.59875516  1.0
  C  C139  1  0.46387668  0.59881272  0.30335320  1.0
  C  C140  1  0.79685247  0.30329262  0.09791469  1.0
  C  C141  1  0.86995213  0.40124422  0.90214158  1.0
  C  C142  1  0.53612008  0.69664796  0.40118519  1.0
  C  C143  1  0.20315313  0.90208659  0.69670462  1.0
  N  N144  1  0.24071916  0.16413889  0.55970647  1.0
  N  N145  1  0.57426573  0.55972813  0.27609629  1.0
  N  N146  1  0.90777732  0.27601985  0.16416020  1.0
  N  N147  1  0.75927722  0.44029424  0.83585913  1.0
  N  N148  1  0.42573546  0.72390345  0.44027055  1.0
  N  N149  1  0.09222971  0.83584032  0.72397845  1.0
  O  O150  1  0.80328644  0.34081967  0.42012715  1.0
  O  O151  1  0.13660946  0.42015594  0.23897835  1.0
  O  O152  1  0.47061654  0.23901612  0.34085887  1.0
  O  O153  1  0.19671752  0.57987704  0.65918022  1.0
  O  O154  1  0.86338724  0.76102384  0.57984184  1.0
  O  O155  1  0.52938741  0.65914582  0.76098309  1.0
  O  O156  1  0.44312252  0.36154783  0.35332517  1.0
  O  O157  1  0.77649917  0.35324112  0.28510813  1.0
  O  O158  1  0.11009169  0.28510933  0.36151637  1.0
  O  O159  1  0.55687852  0.64667738  0.63845087  1.0
  O  O160  1  0.22349598  0.71489533  0.64675861  1.0
  O  O161  1  0.88990487  0.63848322  0.71489127  1.0
  O  O162  1  0.20528565  0.41738338  0.37976369  1.0
  O  O163  1  0.53865411  0.37976881  0.20283209  1.0
  O  O164  1  0.87278576  0.20274817  0.41758252  1.0
  O  O165  1  0.79471393  0.62023839  0.58261729  1.0
  O  O166  1  0.46134406  0.79716988  0.62022955  1.0
  O  O167  1  0.12721813  0.58241845  0.79725012  1.0
  O  O168  1  0.50336818  0.22547217  0.49152720  1.0
  O  O169  1  0.83625875  0.49131260  0.28297674  1.0
  O  O170  1  0.17007169  0.28296162  0.22556061  1.0
  O  O171  1  0.49663271  0.50847600  0.77452539  1.0
  O  O172  1  0.16373796  0.71702375  0.50868587  1.0
  O  O173  1  0.82993383  0.77444198  0.71703694  1.0
