# generated using pymatgen
data_AlH15(C8O3)3
_symmetry_space_group_name_H-M   'P 1'
_cell_length_a   3.97927184
_cell_length_b   28.51349538
_cell_length_c   28.51347484
_cell_angle_alpha   59.99985918
_cell_angle_beta   89.99874284
_cell_angle_gamma   89.99889986
_symmetry_Int_Tables_number   1
_chemical_formula_structural   AlH15(C8O3)3
_chemical_formula_sum   'Al2 H30 C48 O18'
_cell_volume   2801.78128327
_cell_formula_units_Z   2
loop_
 _symmetry_equiv_pos_site_id
 _symmetry_equiv_pos_as_xyz
  1  'x, y, z'
loop_
 _atom_site_type_symbol
 _atom_site_label
 _atom_site_symmetry_multiplicity
 _atom_site_fract_x
 _atom_site_fract_y
 _atom_site_fract_z
 _atom_site_occupancy
  Al  Al0  1  0.97703451  0.99999847  0.50000093  1.0
  Al  Al1  1  0.97707237  0.66666510  0.16666889  1.0
  H  H2  1  0.18700343  0.51254695  0.29955420  1.0
  H  H3  1  0.18637351  0.41212205  0.34519981  1.0
  H  H4  1  0.74980555  0.42155028  0.21100043  1.0
  H  H5  1  0.74972569  0.24511607  0.45566484  1.0
  H  H6  1  0.18635862  0.25454474  0.32146451  1.0
  H  H7  1  0.18695756  0.15412025  0.36711272  1.0
  H  H8  1  0.48836142  0.33488672  0.27866367  1.0
  H  H9  1  0.48831789  0.33178003  0.38799974  1.0
  H  H10  1  0.18699235  0.79955220  0.18790037  1.0
  H  H11  1  0.18637297  0.84519900  0.24267892  1.0
  H  H12  1  0.74978208  0.71100096  0.36744998  1.0
  H  H13  1  0.74974287  0.95566283  0.29921772  1.0
  H  H14  1  0.18634281  0.82146483  0.42399119  1.0
  H  H15  1  0.18697367  0.86711136  0.47876942  1.0
  H  H16  1  0.48835371  0.77866415  0.38645021  1.0
  H  H17  1  0.48831679  0.88800124  0.28021784  1.0
  H  H18  1  0.18702134  0.68789552  0.01255078  1.0
  H  H19  1  0.18640047  0.74267453  0.91212515  1.0
  H  H20  1  0.74978816  0.86744793  0.92154874  1.0
  H  H21  1  0.74972880  0.79921339  0.74511792  1.0
  H  H22  1  0.18633495  0.92398561  0.75454804  1.0
  H  H23  1  0.18695724  0.97876479  0.65412309  1.0
  H  H24  1  0.48833625  0.88644688  0.83488507  1.0
  H  H25  1  0.48834133  0.78021402  0.83178260  1.0
  H  H26  1  0.82402010  0.56286705  0.15098058  1.0
  H  H27  1  0.82394785  0.10379838  0.51568877  1.0
  H  H28  1  0.82400091  0.65097783  0.28615508  1.0
  H  H29  1  0.82397207  0.01568597  0.38051123  1.0
  H  H30  1  0.82401158  0.78615239  0.06286651  1.0
  H  H31  1  0.82395386  0.88050817  0.60380037  1.0
  C  C32  1  0.47306450  0.95434927  0.58401883  1.0
  C  C33  1  0.47306262  0.08401611  0.46163211  1.0
  C  C34  1  0.47308673  0.96162835  0.45435255  1.0
  C  C35  1  0.47311613  0.58264903  0.20503496  1.0
  C  C36  1  0.47309956  0.70503235  0.21231744  1.0
  C  C37  1  0.47311676  0.71231588  0.08265139  1.0
  C  C38  1  0.48329838  0.52355788  0.23170651  1.0
  C  C39  1  0.31735424  0.49179963  0.28154707  1.0
  C  C40  1  0.31896696  0.43595146  0.30698889  1.0
  C  C41  1  0.47205908  0.40968647  0.28148997  1.0
  C  C42  1  0.62753152  0.44085631  0.23120188  1.0
  C  C43  1  0.64812123  0.49722322  0.20697470  1.0
  C  C44  1  0.47131231  0.35088650  0.30638304  1.0
  C  C45  1  0.47129795  0.31578068  0.36027951  1.0
  C  C46  1  0.62747257  0.22581144  0.43546236  1.0
  C  C47  1  0.47202130  0.25698232  0.38517352  1.0
  C  C48  1  0.31892926  0.23071432  0.35967623  1.0
  C  C49  1  0.31731023  0.17486615  0.38511981  1.0
  C  C50  1  0.48323837  0.14310725  0.43495983  1.0
  C  C51  1  0.64806376  0.16944287  0.45969171  1.0
  C  C52  1  0.48328046  0.73170662  0.24473687  1.0
  C  C53  1  0.31734480  0.78154467  0.22665561  1.0
  C  C54  1  0.31895402  0.80698907  0.25705930  1.0
  C  C55  1  0.47205008  0.78148853  0.30882601  1.0
  C  C56  1  0.62751769  0.73120246  0.32794259  1.0
  C  C57  1  0.64811359  0.70697416  0.29580328  1.0
  C  C58  1  0.47130185  0.80639068  0.34272632  1.0
  C  C59  1  0.47128452  0.86027556  0.32394066  1.0
  C  C60  1  0.62748514  0.93546029  0.33872460  1.0
  C  C61  1  0.47202651  0.88517568  0.35784339  1.0
  C  C62  1  0.31893088  0.85967577  0.40961025  1.0
  C  C63  1  0.31732343  0.88511856  0.44001545  1.0
  C  C64  1  0.48325880  0.93495689  0.42193379  1.0
  C  C65  1  0.64808773  0.95969100  0.37086510  1.0
  C  C66  1  0.48329689  0.74473355  0.02355997  1.0
  C  C67  1  0.31735900  0.72665139  0.99180090  1.0
  C  C68  1  0.31896961  0.75705435  0.93595509  1.0
  C  C69  1  0.47206645  0.80882277  0.90968655  1.0
  C  C70  1  0.62751826  0.82793864  0.94085506  1.0
  C  C71  1  0.64812034  0.79580120  0.99722298  1.0
  C  C72  1  0.47129973  0.84272303  0.85088213  1.0
  C  C73  1  0.47129121  0.82393830  0.81578538  1.0
  C  C74  1  0.62746903  0.83872123  0.72581305  1.0
  C  C75  1  0.47201723  0.85783896  0.75698216  1.0
  C  C76  1  0.31891986  0.90960478  0.73071750  1.0
  C  C77  1  0.31730626  0.94000977  0.67486822  1.0
  C  C78  1  0.48323483  0.92193036  0.64310979  1.0
  C  C79  1  0.64805791  0.87086027  0.66944427  1.0
  O  O80  1  0.70436596  0.99743776  0.44545231  1.0
  O  O81  1  0.70435075  0.94544999  0.55710962  1.0
  O  O82  1  0.70434017  0.05710707  0.49744065  1.0
  O  O83  1  0.23864242  0.94998689  0.48908911  1.0
  O  O84  1  0.23862274  0.06092228  0.44999073  1.0
  O  O85  1  0.23861901  0.98908387  0.56092543  1.0
  O  O86  1  0.70437494  0.72121642  0.10955751  1.0
  O  O87  1  0.70438300  0.60955692  0.16922734  1.0
  O  O88  1  0.70436224  0.66922421  0.22121844  1.0
  O  O89  1  0.23866239  0.67757880  0.10574605  1.0
  O  O90  1  0.23864904  0.71667496  0.17758419  1.0
  O  O91  1  0.23865364  0.60574281  0.21667744  1.0
  O  O92  1  0.81776715  0.52442519  0.15982963  1.0
  O  O93  1  0.81768092  0.14224390  0.50683581  1.0
  O  O94  1  0.81774809  0.65982914  0.31574808  1.0
  O  O95  1  0.81770250  0.00683427  0.35091880  1.0
  O  O96  1  0.81774758  0.81574540  0.02442116  1.0
  O  O97  1  0.81767034  0.85091437  0.64224438  1.0
