# generated using pymatgen
data_Zn6H60C67O26
_symmetry_space_group_name_H-M   'P 1'
_cell_length_a   18.60197706
_cell_length_b   18.62298782
_cell_length_c   18.71120383
_cell_angle_alpha   109.14735623
_cell_angle_beta   109.70351776
_cell_angle_gamma   109.22792723
_symmetry_Int_Tables_number   1
_chemical_formula_structural   Zn6H60C67O26
_chemical_formula_sum   'Zn6 H60 C67 O26'
_cell_volume   5010.27079686
_cell_formula_units_Z   1
loop_
 _symmetry_equiv_pos_site_id
 _symmetry_equiv_pos_as_xyz
  1  'x, y, z'
loop_
 _atom_site_type_symbol
 _atom_site_label
 _atom_site_symmetry_multiplicity
 _atom_site_fract_x
 _atom_site_fract_y
 _atom_site_fract_z
 _atom_site_occupancy
  Zn  Zn0  1  0.55833170  0.49131786  0.56622536  1.0
  Zn  Zn1  1  0.43651894  0.49597735  0.44201184  1.0
  Zn  Zn2  1  0.55814946  0.06077515  0.00387287  1.0
  Zn  Zn3  1  0.43703918  0.93378381  0.00558879  1.0
  Zn  Zn4  1  0.00272519  0.93230477  0.43335372  1.0
  Zn  Zn5  1  0.98963502  0.04859681  0.55250749  1.0
  H  H6  1  0.37226590  0.38031424  0.62799442  1.0
  H  H7  1  0.64144678  0.86929524  0.08803034  1.0
  H  H8  1  0.75135323  0.84696689  0.18671519  1.0
  H  H9  1  0.90112028  0.12414409  0.36634399  1.0
  H  H10  1  0.80051830  0.14793385  0.26001024  1.0
  H  H11  1  0.65894530  0.93768427  0.84875966  1.0
  H  H12  1  0.70533356  0.91803634  0.93636493  1.0
  H  H13  1  0.72029277  0.80153931  0.83532470  1.0
  H  H14  1  0.18411779  0.25654593  0.35563721  1.0
  H  H15  1  0.07866693  0.14738539  0.37246662  1.0
  H  H16  1  0.26155968  0.28113287  0.64832769  1.0
  H  H17  1  0.49394416  0.35582502  0.26052701  1.0
  H  H18  1  0.20737751  0.42844592  0.47015857  1.0
  H  H19  1  0.16228595  0.45023934  0.53918834  1.0
  H  H20  1  0.14893658  0.48643517  0.46116427  1.0
  H  H21  1  0.26585328  0.61403254  0.60706985  1.0
  H  H22  1  0.31369709  0.58831658  0.54239651  1.0
  H  H23  1  0.36103226  0.50766146  0.61482694  1.0
  H  H24  1  0.31191194  0.53159058  0.67843132  1.0
  H  H25  1  0.53778851  0.77958491  0.42378710  1.0
  H  H26  1  0.62471403  0.88452136  0.51603545  1.0
  H  H27  1  0.53086401  0.82370142  0.52065584  1.0
  H  H28  1  0.48209452  0.23598803  0.13745982  1.0
  H  H29  1  0.93494851  0.76684602  0.65540166  1.0
  H  H30  1  0.97501849  0.69615957  0.61853602  1.0
  H  H31  1  0.04905946  0.80930073  0.69164472  1.0
  H  H32  1  0.01991711  0.77247999  0.53984475  1.0
  H  H33  1  0.98685730  0.84694550  0.58042651  1.0
  H  H34  1  0.86311329  0.65034265  0.45818235  1.0
  H  H35  1  0.88320902  0.72787219  0.42269192  1.0
  H  H36  1  0.69429811  0.41106466  0.43124553  1.0
  H  H37  1  0.79136382  0.45956072  0.42709480  1.0
  H  H38  1  0.79811573  0.45075978  0.52058419  1.0
  H  H39  1  0.48824355  0.09291648  0.27716473  1.0
  H  H40  1  0.83982929  0.60453778  0.55068196  1.0
  H  H41  1  0.74465312  0.55816642  0.55676291  1.0
  H  H42  1  0.64962204  0.52566717  0.40966797  1.0
  H  H43  1  0.73825730  0.55769798  0.39122860  1.0
  H  H44  1  0.00171223  0.06856259  0.76346069  1.0
  H  H45  1  0.05009289  0.06893126  0.86325157  1.0
  H  H46  1  0.07851704  0.16943680  0.86242515  1.0
  H  H47  1  0.19912120  0.13231598  0.87344638  1.0
  H  H48  1  0.15010913  0.13040970  0.77344540  1.0
  H  H49  1  0.05297269  0.96741924  0.69969237  1.0
  H  H50  1  0.51474683  0.21939222  0.40599603  1.0
  H  H51  1  0.10649800  0.97066646  0.79953913  1.0
  H  H52  1  0.57385739  0.01280546  0.75505664  1.0
  H  H53  1  0.51686591  0.98381744  0.64380543  1.0
  H  H54  1  0.59597044  0.09470817  0.72404784  1.0
  H  H55  1  0.44298930  0.07194313  0.68098808  1.0
  H  H56  1  0.50013882  0.10047680  0.79171160  1.0
  H  H57  1  0.42846777  0.94157523  0.74889534  1.0
  H  H58  1  0.36856407  0.91405554  0.63900279  1.0
  H  H59  1  0.81164316  0.86704315  0.78569870  1.0
  H  H60  1  0.78575380  0.95377860  0.81088384  1.0
  H  H61  1  0.75213312  0.89405413  0.53875866  1.0
  H  H62  1  0.76316128  0.89093644  0.70217758  1.0
  H  H63  1  0.25741339  0.01152291  0.86997730  1.0
  H  H64  1  0.36115339  0.68573482  0.77807666  1.0
  H  H65  1  0.25213854  0.95040220  0.59040527  1.0
  C  C66  1  0.35303564  0.38299626  0.48166877  1.0
  C  C67  1  0.28457325  0.32370225  0.49076858  1.0
  C  C68  1  0.49496434  0.29896896  0.26419830  1.0
  C  C69  1  0.51500890  0.60514267  0.64326118  1.0
  C  C70  1  0.48699960  0.23203382  0.19559326  1.0
  C  C71  1  0.48395920  0.15743776  0.20011813  1.0
  C  C72  1  0.49156482  0.15161856  0.27487522  1.0
  C  C73  1  0.50562593  0.22163263  0.34623663  1.0
  C  C74  1  0.50609281  0.29492914  0.34055616  1.0
  C  C75  1  0.67549258  0.76291107  0.51265590  1.0
  C  C76  1  0.74583327  0.82958349  0.52114709  1.0
  C  C77  1  0.56831575  0.81310282  0.83052688  1.0
  C  C78  1  0.81016989  0.81457262  0.50717300  1.0
  C  C79  1  0.80682402  0.73263641  0.48610232  1.0
  C  C80  1  0.73398005  0.66451407  0.47534226  1.0
  C  C81  1  0.59565568  0.61087322  0.48455485  1.0
  C  C82  1  0.66955141  0.68057440  0.48934114  1.0
  C  C83  1  0.39921914  0.00832551  0.87880977  1.0
  C  C84  1  0.48124312  0.85677108  0.89521283  1.0
  C  C85  1  0.64475774  0.02064125  0.11276456  1.0
  C  C86  1  0.47747780  0.08800055  0.12578043  1.0
  C  C87  1  0.11835741  0.97297495  0.58990697  1.0
  C  C88  1  0.65922177  0.88684036  0.86618647  1.0
  C  C89  1  0.10372353  0.13786610  0.51793350  1.0
  C  C90  1  0.88902037  0.97238896  0.35034863  1.0
  C  C91  1  0.87824500  0.88807097  0.51014963  1.0
  C  C92  1  0.25715429  0.00140765  0.80900239  1.0
  C  C93  1  0.51467458  0.36917965  0.41216544  1.0
  C  C94  1  0.18688928  0.99404622  0.74256142  1.0
  C  C95  1  0.18766084  0.97732537  0.66338593  1.0
  C  C96  1  0.25562486  0.96671763  0.65354073  1.0
  C  C97  1  0.32743656  0.97722887  0.72143029  1.0
  C  C98  1  0.32763716  0.99645619  0.80090944  1.0
  C  C99  1  0.66935577  0.81520090  0.80124073  1.0
  C  C100  1  0.70050133  0.92495822  0.14746041  1.0
  C  C101  1  0.76087404  0.91239403  0.20281273  1.0
  C  C102  1  0.83170474  0.98427665  0.28272782  1.0
  C  C103  1  0.84608927  0.06911161  0.30348808  1.0
  C  C104  1  0.78950730  0.08225522  0.24502090  1.0
  C  C105  1  0.57607140  0.75118007  0.77217716  1.0
  C  C106  1  0.71455877  0.00977182  0.16862866  1.0
  C  C107  1  0.50690751  0.66658187  0.71104938  1.0
  C  C108  1  0.42707962  0.64335176  0.71274600  1.0
  C  C109  1  0.42239127  0.70469449  0.77626976  1.0
  C  C110  1  0.20087341  0.26039492  0.41897920  1.0
  C  C111  1  0.49141089  0.79105140  0.83532234  1.0
  C  C112  1  0.34483670  0.55643738  0.64573752  1.0
  C  C113  1  0.28035360  0.56386513  0.57488579  1.0
  C  C114  1  0.19507844  0.47748411  0.50770318  1.0
  C  C115  1  0.57539904  0.81851761  0.49562644  1.0
  C  C116  1  0.87939383  0.71823901  0.47642914  1.0
  C  C117  1  0.97131108  0.77869334  0.55866770  1.0
  C  C118  1  0.98290395  0.76166870  0.63510559  1.0
  C  C119  1  0.72020392  0.57234234  0.44249401  1.0
  C  C120  1  0.77040507  0.55344474  0.51149656  1.0
  C  C121  1  0.14191444  0.20076030  0.42872318  1.0
  C  C122  1  0.76310431  0.46386255  0.47041646  1.0
  C  C123  1  0.11589294  0.00235163  0.76042276  1.0
  C  C124  1  0.13758820  0.09742503  0.81062358  1.0
  C  C125  1  0.06301410  0.10158169  0.82589524  1.0
  C  C126  1  0.39869904  0.96532044  0.70704197  1.0
  C  C127  1  0.47194054  0.04907640  0.72442610  1.0
  C  C128  1  0.54363496  0.03448242  0.71109355  1.0
  C  C129  1  0.76430210  0.88801213  0.76007413  1.0
  C  C130  1  0.16412076  0.20815419  0.51125785  1.0
  C  C131  1  0.24545042  0.27527603  0.58427149  1.0
  C  C132  1  0.30662219  0.33084296  0.57320551  1.0
  O  O133  1  0.43199165  0.40731473  0.53317040  1.0
  O  O134  1  0.08463760  0.02029324  0.60987506  1.0
  O  O135  1  0.08329352  0.06084730  0.46704779  1.0
  O  O136  1  0.32919514  0.40674112  0.42425437  1.0
  O  O137  1  0.07704795  0.15864955  0.57275348  1.0
  O  O138  1  0.91574523  0.91784242  0.32698160  1.0
  O  O139  1  0.90754474  0.01881573  0.42791125  1.0
  O  O140  1  0.90740787  0.86944785  0.45831951  1.0
  O  O141  1  0.90168492  0.96723225  0.56356992  1.0
  O  O142  1  0.57023242  0.57953266  0.66920793  1.0
  O  O143  1  0.46605730  0.58263661  0.56465015  1.0
  O  O144  1  0.37572225  0.96443974  0.91423956  1.0
  O  O145  1  0.61818003  0.58287956  0.53709728  1.0
  O  O146  1  0.51598825  0.58385507  0.42918134  1.0
  O  O147  1  0.56506729  0.39315038  0.49228781  1.0
  O  O148  1  0.47111207  0.40501817  0.38803282  1.0
  O  O149  1  0.47922908  0.06330379  0.90617898  1.0
  O  O150  1  0.61362873  0.77454682  0.53133872  1.0
  O  O151  1  0.67747666  0.82649716  0.73287647  1.0
  O  O152  1  0.52964115  0.93620235  0.91890764  1.0
  O  O153  1  0.42489387  0.83034293  0.91935943  1.0
  O  O154  1  0.66715263  0.08023431  0.09137082  1.0
  O  O155  1  0.56669286  0.96939340  0.09026414  1.0
  O  O156  1  0.51986779  0.11422816  0.09024819  1.0
  O  O157  1  0.43028182  0.00728947  0.10239151  1.0
  O  O158  1  0.09668383  0.92320707  0.51058504  1.0
