# generated using pymatgen
data_Zn4H12C24N3Cl3O13
_symmetry_space_group_name_H-M   'P 1'
_cell_length_a   17.92642485
_cell_length_b   18.10174915
_cell_length_c   18.16978282
_cell_angle_alpha   62.35987558
_cell_angle_beta   62.09568884
_cell_angle_gamma   61.67326321
_symmetry_Int_Tables_number   1
_chemical_formula_structural   Zn4H12C24N3Cl3O13
_chemical_formula_sum   'Zn8 H24 C48 N6 Cl6 O26'
_cell_volume   4359.31772561
_cell_formula_units_Z   2
loop_
 _symmetry_equiv_pos_site_id
 _symmetry_equiv_pos_as_xyz
  1  'x, y, z'
loop_
 _atom_site_type_symbol
 _atom_site_label
 _atom_site_symmetry_multiplicity
 _atom_site_fract_x
 _atom_site_fract_y
 _atom_site_fract_z
 _atom_site_occupancy
  Zn  Zn0  1  0.85412019  0.99569964  0.08583363  1.0
  Zn  Zn1  1  0.02965666  0.99732402  0.08734933  1.0
  Zn  Zn2  1  0.01846069  0.00206639  0.91472722  1.0
  Zn  Zn3  1  0.02354488  0.82501136  0.08028828  1.0
  Zn  Zn4  1  0.61307833  0.41198558  0.50720132  1.0
  Zn  Zn5  1  0.44029582  0.40530386  0.49820878  1.0
  Zn  Zn6  1  0.43989924  0.58422785  0.49742139  1.0
  Zn  Zn7  1  0.43412642  0.41778909  0.67109614  1.0
  H  H8  1  0.89436545  0.10307764  0.29453370  1.0
  H  H9  1  0.58094496  0.28789569  0.30942845  1.0
  H  H10  1  0.59967879  0.25055796  0.19208964  1.0
  H  H11  1  0.69809923  0.17370322  0.14727193  1.0
  H  H12  1  0.86772640  0.22771383  0.77077521  1.0
  H  H13  1  0.56744845  0.22100892  0.84501157  1.0
  H  H14  1  0.59151729  0.09607270  0.96965785  1.0
  H  H15  1  0.68626948  0.05641517  0.00043460  1.0
  H  H16  1  0.88258677  0.65563436  0.19048812  1.0
  H  H17  1  0.58045434  0.75519552  0.39407027  1.0
  H  H18  1  0.60151965  0.89029464  0.35443222  1.0
  H  H19  1  0.69503679  0.91729565  0.26980403  1.0
  H  H20  1  0.22146226  0.10135323  0.74639569  1.0
  H  H21  1  0.24809025  0.30229441  0.83923983  1.0
  H  H22  1  0.13910179  0.26298296  0.97633805  1.0
  H  H23  1  0.09793740  0.17905551  0.00546257  1.0
  H  H24  1  0.11927070  0.66156283  0.29030286  1.0
  H  H25  1  0.36180724  0.73204442  0.27551028  1.0
  H  H26  1  0.32465910  0.86623262  0.16393331  1.0
  H  H27  1  0.23411695  0.89951845  0.12987820  1.0
  H  H28  1  0.22623219  0.66778311  0.93398820  1.0
  H  H29  1  0.22769245  0.76399426  0.63030734  1.0
  H  H30  1  0.11721019  0.90053599  0.64936029  1.0
  H  H31  1  0.07525897  0.92431917  0.74775518  1.0
  C  C32  1  0.85035530  0.09403137  0.18002346  1.0
  C  C33  1  0.79104265  0.14707200  0.24063890  1.0
  C  C34  1  0.82566362  0.14469120  0.29732182  1.0
  C  C35  1  0.77527721  0.19235741  0.35624793  1.0
  C  C36  1  0.68573100  0.24600849  0.35946845  1.0
  C  C37  1  0.65044852  0.24746306  0.30485323  1.0
  C  C38  1  0.70027761  0.19927341  0.24457506  1.0
  C  C39  1  0.62573026  0.30497172  0.41622956  1.0
  C  C40  1  0.83260604  0.09819476  0.91445485  1.0
  C  C41  1  0.77111714  0.16211247  0.86314218  1.0
  C  C42  1  0.80188532  0.22621197  0.78635968  1.0
  C  C43  1  0.75111719  0.28634801  0.73132497  1.0
  C  C44  1  0.66639522  0.28222275  0.75198929  1.0
  C  C45  1  0.63380494  0.22161675  0.82947432  1.0
  C  C46  1  0.68362559  0.16066814  0.88743755  1.0
  C  C47  1  0.61106333  0.33592438  0.69161761  1.0
  C  C48  1  0.84041393  0.81925085  0.18091437  1.0
  C  C49  1  0.78300235  0.76340634  0.23930722  1.0
  C  C50  1  0.81647591  0.67680058  0.23615499  1.0
  C  C51  1  0.76790803  0.61912971  0.28817669  1.0
  C  C52  1  0.68158921  0.64820971  0.34647320  1.0
  C  C53  1  0.64764745  0.73388109  0.34961494  1.0
  C  C54  1  0.69589970  0.79371645  0.29755120  1.0
  C  C55  1  0.62301310  0.59181363  0.40646248  1.0
  C  C56  1  0.12075851  0.09328185  0.90905917  1.0
  C  C57  1  0.17787243  0.14980030  0.85230214  1.0
  C  C58  1  0.22706588  0.14625371  0.76619458  1.0
  C  C59  1  0.28218964  0.19680181  0.70727916  1.0
  C  C60  1  0.28903908  0.25461328  0.73426566  1.0
  C  C61  1  0.24088458  0.25818440  0.81952146  1.0
  C  C62  1  0.18479549  0.20698170  0.88081664  1.0
  C  C63  1  0.34544591  0.31348448  0.67702955  1.0
  C  C64  1  0.12787160  0.81504492  0.17229260  1.0
  C  C65  1  0.18844227  0.75564025  0.22582655  1.0
  C  C66  1  0.17370110  0.67600027  0.28636372  1.0
  C  C67  1  0.22448396  0.61744645  0.34198427  1.0
  C  C68  1  0.29319201  0.63842514  0.33780491  1.0
  C  C69  1  0.30896888  0.71664624  0.27722221  1.0
  C  C70  1  0.25869605  0.77684151  0.21967896  1.0
  C  C71  1  0.34961936  0.58236200  0.39726691  1.0
  C  C72  1  0.10893544  0.82513042  0.89629797  1.0
  C  C73  1  0.16721866  0.77164757  0.83597621  1.0
  C  C74  1  0.22609643  0.68808193  0.86754835  1.0
  C  C75  1  0.28357246  0.63262867  0.81663989  1.0
  C  C76  1  0.28280114  0.66030441  0.73018819  1.0
  C  C77  1  0.22630581  0.74348584  0.69754384  1.0
  C  C78  1  0.16717888  0.80139338  0.74819011  1.0
  C  C79  1  0.33827201  0.60267392  0.67221430  1.0
  N  N80  1  0.65985705  0.20406092  0.19420358  1.0
  N  N81  1  0.64695006  0.10368728  0.96288070  1.0
  N  N82  1  0.65740585  0.87692792  0.30391403  1.0
  N  N83  1  0.14108163  0.21332942  0.96350555  1.0
  N  N84  1  0.28003833  0.85070845  0.15943831  1.0
  N  N85  1  0.11183032  0.88095166  0.71298670  1.0
  Cl  Cl86  1  0.82386289  0.17958901  0.42614750  1.0
  Cl  Cl87  1  0.79192106  0.36654062  0.64166029  1.0
  Cl  Cl88  1  0.81365940  0.51589679  0.27506977  1.0
  Cl  Cl89  1  0.34359579  0.18216189  0.60502517  1.0
  Cl  Cl90  1  0.19678440  0.52423248  0.41847349  1.0
  Cl  Cl91  1  0.35809271  0.53402469  0.85966227  1.0
  O  O92  1  0.98345262  0.95428332  0.04235941  1.0
  O  O93  1  0.93288295  0.05515279  0.17542518  1.0
  O  O94  1  0.81510621  0.08989752  0.13475929  1.0
  O  O95  1  0.54193972  0.32023005  0.43942891  1.0
  O  O96  1  0.66285040  0.33676246  0.43400464  1.0
  O  O97  1  0.91427544  0.09523681  0.87940568  1.0
  O  O98  1  0.80085372  0.04845854  0.99191069  1.0
  O  O99  1  0.52652786  0.36336130  0.72738097  1.0
  O  O100  1  0.65327220  0.34580013  0.61056037  1.0
  O  O101  1  0.91990813  0.78414876  0.13602770  1.0
  O  O102  1  0.80658443  0.90123915  0.17798296  1.0
  O  O103  1  0.53908641  0.63192383  0.42016362  1.0
  O  O104  1  0.66097171  0.51023321  0.43975255  1.0
  O  O105  1  0.11110964  0.05342654  0.87318582  1.0
  O  O106  1  0.08429116  0.08715096  0.99122130  1.0
  O  O107  1  0.37537861  0.33041785  0.71697139  1.0
  O  O108  1  0.35754641  0.34291032  0.59517855  1.0
  O  O109  1  0.08129789  0.78209194  0.16811240  1.0
  O  O110  1  0.12472101  0.89661412  0.13419695  1.0
  O  O111  1  0.36527905  0.62493540  0.42515975  1.0
  O  O112  1  0.37795714  0.49910100  0.41351555  1.0
  O  O113  1  0.10608682  0.78716838  0.97657979  1.0
  O  O114  1  0.06489948  0.90690920  0.86450190  1.0
  O  O115  1  0.37158419  0.64041364  0.59086584  1.0
  O  O116  1  0.34531481  0.52142464  0.70864793  1.0
  O  O117  1  0.48173549  0.45492205  0.54265987  1.0
