# generated using pymatgen
data_ZnH10C22NO8
_symmetry_space_group_name_H-M   'P 1'
_cell_length_a   14.29401886
_cell_length_b   15.33188065
_cell_length_c   16.09959951
_cell_angle_alpha   87.45247395
_cell_angle_beta   89.97985821
_cell_angle_gamma   89.98601210
_symmetry_Int_Tables_number   1
_chemical_formula_structural   ZnH10C22NO8
_chemical_formula_sum   'Zn2 H20 C44 N2 O16'
_cell_volume   3524.80737176
_cell_formula_units_Z   2
loop_
 _symmetry_equiv_pos_site_id
 _symmetry_equiv_pos_as_xyz
  1  'x, y, z'
loop_
 _atom_site_type_symbol
 _atom_site_label
 _atom_site_symmetry_multiplicity
 _atom_site_fract_x
 _atom_site_fract_y
 _atom_site_fract_z
 _atom_site_occupancy
  Zn  Zn0  1  0.60224778  0.49970132  0.49981296  1.0
  Zn  Zn1  1  0.39720323  0.50013428  0.49970301  1.0
  H  H2  1  0.65160882  0.47240409  0.92373096  1.0
  H  H3  1  0.92961115  0.57464064  0.38221957  1.0
  H  H4  1  0.06970573  0.62119188  0.42460376  1.0
  H  H5  1  0.92948035  0.42557139  0.61842787  1.0
  H  H6  1  0.46047173  0.30899010  0.34672210  1.0
  H  H7  1  0.46137265  0.69054190  0.65331604  1.0
  H  H8  1  0.52692758  0.70715823  0.34287756  1.0
  H  H9  1  0.52610727  0.29289794  0.65724725  1.0
  H  H10  1  0.32501460  0.37775798  0.60633067  1.0
  H  H11  1  0.67491408  0.60590352  0.37800074  1.0
  H  H12  1  0.32481667  0.62231336  0.39345354  1.0
  H  H13  1  0.35535146  0.52878641  0.07578557  1.0
  H  H14  1  0.67498917  0.39316540  0.62181292  1.0
  H  H15  1  0.65169541  0.47496259  0.07858205  1.0
  H  H16  1  0.35511170  0.52573257  0.92105018  1.0
  H  H17  1  0.44928714  0.06742070  0.37326120  1.0
  H  H18  1  0.44945381  0.93216090  0.62719276  1.0
  H  H19  1  0.54868121  0.94459853  0.37275508  1.0
  H  H20  1  0.54855391  0.05549106  0.62762852  1.0
  H  H21  1  0.06994914  0.37883309  0.57568114  1.0
  C  C22  1  0.49645626  0.33049077  0.50153225  1.0
  C  C23  1  0.79926743  0.54135258  0.43821123  1.0
  C  C24  1  0.20012962  0.56335026  0.45791555  1.0
  C  C25  1  0.79917736  0.45855820  0.56214912  1.0
  C  C26  1  0.05139068  0.50005114  0.50021737  1.0
  C  C27  1  0.94806435  0.50004264  0.50029568  1.0
  C  C28  1  0.50279779  0.49897793  0.66019406  1.0
  C  C29  1  0.50309291  0.50127370  0.33938995  1.0
  C  C30  1  0.58725946  0.48602141  0.04357279  1.0
  C  C31  1  0.41956865  0.51465882  0.95604075  1.0
  C  C32  1  0.58726451  0.48473326  0.95755549  1.0
  C  C33  1  0.49667177  0.66937247  0.49835663  1.0
  C  C34  1  0.41972165  0.51643153  0.04201046  1.0
  C  C35  1  0.50354375  0.50195700  0.08693879  1.0
  C  C36  1  0.50336548  0.49895623  0.91267956  1.0
  C  C37  1  0.50353348  0.50269906  0.17463430  1.0
  C  C38  1  0.50320856  0.49814573  0.82497053  1.0
  C  C39  1  0.50289455  0.49816874  0.74928379  1.0
  C  C40  1  0.50336758  0.50256051  0.25033111  1.0
  C  C41  1  0.47157790  0.09828068  0.42975502  1.0
  C  C42  1  0.47182858  0.90141998  0.57065439  1.0
  C  C43  1  0.52590656  0.90839241  0.42904812  1.0
  C  C44  1  0.49915964  0.04811602  0.50034882  1.0
  C  C45  1  0.52566961  0.09159487  0.57131687  1.0
  C  C46  1  0.47005529  0.18955685  0.42930166  1.0
  C  C47  1  0.47051786  0.81015534  0.57095260  1.0
  C  C48  1  0.52506617  0.81723666  0.42775882  1.0
  C  C49  1  0.52464630  0.18276080  0.57243782  1.0
  C  C50  1  0.49683665  0.23255794  0.50105424  1.0
  C  C51  1  0.49734703  0.76730524  0.49908723  1.0
  C  C52  1  0.44249648  0.23833304  0.35098318  1.0
  C  C53  1  0.44299353  0.76112961  0.64914814  1.0
  C  C54  1  0.55002265  0.77607562  0.34865316  1.0
  C  C55  1  0.49929222  0.95172367  0.50009021  1.0
  C  C56  1  0.54968766  0.22413410  0.65140115  1.0
  C  C57  1  0.25061202  0.36589667  0.59237852  1.0
  C  C58  1  0.74957989  0.59109732  0.36831670  1.0
  C  C59  1  0.25031155  0.63401397  0.40722931  1.0
  C  C60  1  0.74932675  0.40893476  0.63202678  1.0
  C  C61  1  0.10271341  0.43414752  0.54218074  1.0
  C  C62  1  0.89682739  0.54159327  0.43606439  1.0
  C  C63  1  0.10257451  0.56590406  0.45804710  1.0
  C  C64  1  0.89674513  0.45847731  0.56449413  1.0
  C  C65  1  0.20027423  0.43666857  0.54197612  1.0
  N  N66  1  0.24936725  0.50001869  0.49988621  1.0
  N  N67  1  0.75001023  0.49983882  0.50009169  1.0
  O  O68  1  0.57341384  0.36710911  0.51887681  1.0
  O  O69  1  0.40368172  0.79527916  0.70689991  1.0
  O  O70  1  0.59151474  0.81459791  0.29160892  1.0
  O  O71  1  0.59177317  0.18592807  0.70826503  1.0
  O  O72  1  0.20910443  0.30048114  0.61803093  1.0
  O  O73  1  0.79185459  0.61494598  0.30546174  1.0
  O  O74  1  0.20861310  0.69916898  0.38116500  1.0
  O  O75  1  0.79112477  0.38615850  0.69543538  1.0
  O  O76  1  0.41912051  0.63169021  0.51490341  1.0
  O  O77  1  0.57351771  0.63247026  0.48108133  1.0
  O  O78  1  0.41915462  0.36851340  0.48473042  1.0
  O  O79  1  0.58003164  0.51757723  0.62344934  1.0
  O  O80  1  0.42599476  0.51972614  0.37489436  1.0
  O  O81  1  0.58007401  0.48184907  0.37626412  1.0
  O  O82  1  0.42564606  0.48094271  0.62472599  1.0
  O  O83  1  0.40357560  0.20385109  0.29325105  1.0
