# generated using pymatgen
data_Zn4H39C48N3O19
_symmetry_space_group_name_H-M   'P 1'
_cell_length_a   25.92172486
_cell_length_b   26.36385071
_cell_length_c   26.43194553
_cell_angle_alpha   61.52478453
_cell_angle_beta   60.91575121
_cell_angle_gamma   60.93067547
_symmetry_Int_Tables_number   1
_chemical_formula_structural   Zn4H39C48N3O19
_chemical_formula_sum   'Zn8 H78 C96 N6 O38'
_cell_volume   13094.92193556
_cell_formula_units_Z   2
loop_
 _symmetry_equiv_pos_site_id
 _symmetry_equiv_pos_as_xyz
  1  'x, y, z'
loop_
 _atom_site_type_symbol
 _atom_site_label
 _atom_site_symmetry_multiplicity
 _atom_site_fract_x
 _atom_site_fract_y
 _atom_site_fract_z
 _atom_site_occupancy
  Zn  Zn0  1  0.10043916  0.95580590  0.96556676  1.0
  Zn  Zn1  1  0.97724550  0.95652851  0.96527116  1.0
  Zn  Zn2  1  0.98096651  0.07699992  0.96319612  1.0
  Zn  Zn3  1  0.97770368  0.96091037  0.08428841  1.0
  Zn  Zn4  1  0.41763859  0.51547807  0.52265923  1.0
  Zn  Zn5  1  0.52555684  0.52407260  0.53196889  1.0
  Zn  Zn6  1  0.53725815  0.51952170  0.40517740  1.0
  Zn  Zn7  1  0.53408450  0.39827356  0.53089677  1.0
  H  H8  1  0.16747206  0.88158733  0.81201955  1.0
  H  H9  1  0.08367780  0.80121328  0.89322212  1.0
  H  H10  1  0.07300913  0.86469747  0.82826857  1.0
  H  H11  1  0.17513590  0.81166585  0.76157052  1.0
  H  H12  1  0.12618078  0.76569741  0.80452352  1.0
  H  H13  1  0.18065102  0.70662722  0.88111853  1.0
  H  H14  1  0.27725897  0.72134180  0.86152101  1.0
  H  H15  1  0.26578913  0.78521081  0.79612591  1.0
  H  H16  1  0.22412351  0.82040732  0.88560883  1.0
  H  H17  1  0.17655218  0.77329688  0.92851181  1.0
  H  H18  1  0.27377761  0.51221653  0.81662519  1.0
  H  H19  1  0.34348226  0.48830599  0.71759516  1.0
  H  H20  1  0.37222983  0.66307355  0.63237879  1.0
  H  H21  1  0.17794165  0.10854779  0.89780207  1.0
  H  H22  1  0.09179050  0.19065004  0.82008673  1.0
  H  H23  1  0.08556513  0.20183637  0.88354890  1.0
  H  H24  1  0.18935769  0.21932603  0.82766598  1.0
  H  H25  1  0.13789375  0.26957685  0.78462079  1.0
  H  H26  1  0.18598610  0.19863422  0.72483346  1.0
  H  H27  1  0.28401069  0.11076485  0.73492557  1.0
  H  H28  1  0.27590492  0.12439822  0.79842418  1.0
  H  H29  1  0.23148731  0.04266824  0.83392732  1.0
  H  H30  1  0.18257021  0.09205022  0.78852322  1.0
  H  H31  1  0.27388983  0.35975439  0.52708147  1.0
  H  H32  1  0.34667631  0.41428744  0.49768345  1.0
  H  H33  1  0.38645402  0.30337086  0.66666667  1.0
  H  H34  1  0.16764924  0.79325359  0.11891400  1.0
  H  H35  1  0.08535393  0.86979066  0.20618475  1.0
  H  H36  1  0.07571909  0.80527539  0.21228870  1.0
  H  H37  1  0.17862522  0.73834681  0.23053023  1.0
  H  H38  1  0.12918206  0.77989065  0.28341740  1.0
  H  H39  1  0.18116635  0.85895866  0.21747965  1.0
  H  H40  1  0.27966789  0.83894147  0.13000276  1.0
  H  H41  1  0.26772478  0.77393201  0.13893469  1.0
  H  H42  1  0.22607445  0.86478709  0.05851227  1.0
  H  H43  1  0.17951514  0.90717688  0.11041573  1.0
  H  H44  1  0.27081435  0.80432915  0.38212079  1.0
  H  H45  1  0.34706240  0.71015114  0.43061275  1.0
  H  H46  1  0.38481317  0.62001401  0.31003627  1.0
  H  H47  1  0.91559752  0.10873207  0.80331503  1.0
  H  H48  1  0.83425167  0.19582523  0.87997455  1.0
  H  H49  1  0.90127077  0.20288737  0.81541231  1.0
  H  H50  1  0.84704171  0.21916893  0.74910533  1.0
  H  H51  1  0.80189943  0.27234502  0.79043879  1.0
  H  H52  1  0.73865162  0.20464833  0.86965954  1.0
  H  H53  1  0.74878107  0.11611720  0.84950857  1.0
  H  H54  1  0.81570085  0.12618900  0.78450509  1.0
  H  H55  1  0.84803551  0.04636687  0.87512224  1.0
  H  H56  1  0.80021766  0.09837468  0.91733442  1.0
  H  H57  1  0.54252770  0.37388014  0.81272656  1.0
  H  H58  1  0.51314279  0.42499140  0.71744468  1.0
  H  H59  1  0.68185730  0.30132512  0.62908898  1.0
  H  H60  1  0.81474658  0.89156076  0.11999714  1.0
  H  H61  1  0.89192934  0.81924352  0.20621128  1.0
  H  H62  1  0.82501642  0.88462713  0.21223665  1.0
  H  H63  1  0.75892903  0.82846510  0.23128465  1.0
  H  H64  1  0.79994811  0.78797198  0.28423203  1.0
  H  H65  1  0.88222653  0.72135692  0.22055093  1.0
  H  H66  1  0.86713037  0.72560604  0.13221330  1.0
  H  H67  1  0.79965937  0.79134002  0.13974510  1.0
  H  H68  1  0.89271003  0.82225977  0.05988253  1.0
  H  H69  1  0.93389215  0.78005857  0.11257562  1.0
  H  H70  1  0.81471135  0.53432602  0.39274634  1.0
  H  H71  1  0.71544582  0.50897475  0.44204201  1.0
  H  H72  1  0.63384658  0.67102857  0.31295149  1.0
  H  H73  1  0.91180927  0.15142000  0.11881310  1.0
  H  H74  1  0.82464166  0.07460905  0.19926282  1.0
  H  H75  1  0.89140590  0.06316162  0.21074963  1.0
  H  H76  1  0.84154181  0.16467903  0.22835984  1.0
  H  H77  1  0.79224435  0.11921654  0.27821733  1.0
  H  H78  1  0.73156169  0.17191197  0.20736414  1.0
  H  H79  1  0.74917477  0.26466077  0.11962180  1.0
  H  H80  1  0.81594028  0.25144873  0.13324514  1.0
  H  H81  1  0.84810375  0.20843960  0.05182641  1.0
  H  H82  1  0.79709361  0.16513729  0.10092915  1.0
  H  H83  1  0.53630907  0.26546772  0.37102899  1.0
  H  H84  1  0.51367312  0.33537107  0.42438484  1.0
  H  H85  1  0.69201627  0.36386038  0.30866586  1.0
  C  C86  1  0.10374073  0.89284109  0.89747895  1.0
  C  C87  1  0.14516091  0.85243206  0.85663676  1.0
  C  C88  1  0.10891492  0.82703767  0.84810592  1.0
  C  C89  1  0.15270634  0.78544740  0.80809025  1.0
  C  C90  1  0.20349817  0.73386229  0.83540027  1.0
  C  C91  1  0.24140378  0.75929403  0.84165302  1.0
  C  C92  1  0.19783246  0.80059923  0.88193986  1.0
  C  C93  1  0.24020548  0.63049018  0.82626831  1.0
  C  C94  1  0.28263680  0.60186011  0.77696923  1.0
  C  C95  1  0.29492299  0.54471334  0.77629754  1.0
  C  C96  1  0.33395301  0.53155078  0.72155898  1.0
  C  C97  1  0.36166007  0.57367792  0.67031059  1.0
  C  C98  1  0.35055785  0.63063566  0.67215532  1.0
  C  C99  1  0.30938796  0.64420391  0.72585021  1.0
  C  C100  1  0.28362195  0.70183447  0.74073055  1.0
  C  C101  1  0.40189904  0.55734328  0.61290559  1.0
  C  C102  1  0.11101060  0.07807753  0.90690528  1.0
  C  C103  1  0.15444954  0.11604971  0.86820411  1.0
  C  C104  1  0.11944962  0.18442318  0.84493390  1.0
  C  C105  1  0.16428751  0.22123237  0.80271680  1.0
  C  C106  1  0.21183730  0.19552046  0.74979685  1.0
  C  C107  1  0.24969775  0.12827733  0.77346274  1.0
  C  C108  1  0.20545471  0.09082372  0.81523862  1.0
  C  C109  1  0.24457708  0.26896175  0.64594342  1.0
  C  C110  1  0.28825509  0.30439386  0.61419245  1.0
  C  C111  1  0.29822804  0.34814356  0.55707978  1.0
  C  C112  1  0.33903576  0.37769358  0.54080515  1.0
  C  C113  1  0.37062994  0.36161704  0.57980745  1.0
  C  C114  1  0.36189899  0.31563194  0.63664030  1.0
  C  C115  1  0.31903214  0.28868707  0.65340272  1.0
  C  C116  1  0.29488916  0.24329777  0.71201689  1.0
  C  C117  1  0.41080421  0.39744291  0.56099814  1.0
  C  C118  1  0.10435693  0.88109326  0.09013494  1.0
  C  C119  1  0.14646928  0.83670409  0.12893263  1.0
  C  C120  1  0.11116718  0.82545974  0.19748641  1.0
  C  C121  1  0.15556947  0.78458458  0.23479864  1.0
  C  C122  1  0.20536647  0.81298207  0.21235000  1.0
  C  C123  1  0.24358561  0.81941797  0.14495766  1.0
  C  C124  1  0.20005403  0.86071247  0.10693523  1.0
  C  C125  1  0.23900245  0.80769235  0.28919415  1.0
  C  C126  1  0.28411505  0.76173292  0.32230967  1.0
  C  C127  1  0.29543034  0.76401209  0.36724514  1.0
  C  C128  1  0.33814043  0.71203759  0.39339749  1.0
  C  C129  1  0.37029558  0.66087865  0.37275235  1.0
  C  C130  1  0.35995949  0.65980643  0.32580148  1.0
  C  C131  1  0.31508417  0.71059033  0.30235362  1.0
  C  C132  1  0.28911259  0.72198923  0.25675958  1.0
  C  C133  1  0.41255306  0.60592999  0.40548195  1.0
  C  C134  1  0.92146154  0.08057256  0.89032569  1.0
  C  C135  1  0.88383269  0.11835726  0.84687018  1.0
  C  C136  1  0.86110686  0.18719179  0.83570013  1.0
  C  C137  1  0.81996726  0.22349337  0.79520124  1.0
  C  C138  1  0.76516992  0.19974425  0.82371059  1.0
  C  C139  1  0.78869230  0.13208020  0.82992847  1.0
  C  C140  1  0.82925223  0.09499430  0.87097538  1.0
  C  C141  1  0.66101199  0.27732598  0.81801377  1.0
  C  C142  1  0.62951821  0.31220757  0.77121699  1.0
  C  C143  1  0.57248581  0.35886886  0.77256255  1.0
  C  C144  1  0.55625239  0.38656945  0.71992216  1.0
  C  C145  1  0.59497693  0.36578030  0.66893712  1.0
  C  C146  1  0.65188170  0.31726153  0.66870031  1.0
  C  C147  1  0.66891727  0.29226063  0.72016773  1.0
  C  C148  1  0.72791631  0.24493197  0.73246017  1.0
  C  C149  1  0.57433782  0.39893244  0.61420216  1.0
  C  C150  1  0.90203396  0.90173401  0.09001913  1.0
  C  C151  1  0.85936137  0.86289796  0.12942958  1.0
  C  C152  1  0.84685913  0.84394089  0.19778686  1.0
  C  C153  1  0.80586259  0.80307533  0.23566322  1.0
  C  C154  1  0.83609119  0.74711315  0.21423942  1.0
  C  C155  1  0.84544197  0.76636935  0.14659735  1.0
  C  C156  1  0.88682784  0.80679495  0.10838717  1.0
  C  C157  1  0.82596318  0.64738566  0.29416483  1.0
  C  C158  1  0.77662936  0.61820171  0.32852548  1.0
  C  C159  1  0.77509126  0.56391318  0.37620537  1.0
  C  C160  1  0.72014943  0.54984755  0.40294046  1.0
  C  C161  1  0.66996883  0.58775002  0.38021635  1.0
  C  C162  1  0.67276930  0.64162206  0.33056799  1.0
  C  C163  1  0.72630571  0.65668223  0.30659170  1.0
  C  C164  1  0.74152917  0.71269296  0.25847821  1.0
  C  C165  1  0.61262860  0.56957370  0.41226896  1.0
  C  C166  1  0.91799288  0.08823609  0.08711395  1.0
  C  C167  1  0.87923278  0.13149722  0.12521542  1.0
  C  C168  1  0.85306430  0.09864162  0.19332875  1.0
  C  C169  1  0.81287675  0.14349928  0.23003758  1.0
  C  C170  1  0.76059731  0.19373825  0.20413935  1.0
  C  C171  1  0.78747250  0.22875675  0.13708005  1.0
  C  C172  1  0.82719546  0.18443898  0.09983604  1.0
  C  C173  1  0.65599740  0.23132022  0.27835935  1.0
  C  C174  1  0.62764607  0.27418547  0.31350700  1.0
  C  C175  1  0.56980156  0.28668734  0.35827183  1.0
  C  C176  1  0.55735842  0.32602632  0.38713609  1.0
  C  C177  1  0.60064089  0.35390062  0.36927131  1.0
  C  C178  1  0.65826999  0.34249203  0.32247204  1.0
  C  C179  1  0.67128908  0.30093485  0.29636305  1.0
  C  C180  1  0.72974545  0.27448993  0.25060248  1.0
  C  C181  1  0.58397988  0.39397938  0.40406198  1.0
  N  N182  1  0.24301973  0.69002832  0.80143775  1.0
  N  N183  1  0.25107785  0.23343896  0.70393435  1.0
  N  N184  1  0.24442386  0.78098150  0.25095872  1.0
  N  N185  1  0.71938804  0.23807094  0.79187666  1.0
  N  N186  1  0.80191712  0.70354363  0.25314180  1.0
  N  N187  1  0.71684031  0.23378797  0.24181636  1.0
  O  O188  1  0.00856090  0.98765597  0.99511719  1.0
  O  O189  1  0.04653581  0.89586785  0.92505566  1.0
  O  O190  1  0.13033519  0.92017037  0.90151224  1.0
  O  O191  1  0.20824870  0.60858567  0.87794575  1.0
  O  O192  1  0.29396171  0.75012954  0.70772452  1.0
  O  O193  1  0.44846378  0.57668533  0.57796471  1.0
  O  O194  1  0.38618542  0.52444857  0.60326112  1.0
  O  O195  1  0.05356040  0.10553791  0.91115064  1.0
  O  O196  1  0.13611957  0.02102036  0.93136892  1.0
  O  O197  1  0.20910764  0.26981121  0.62731663  1.0
  O  O198  1  0.30869391  0.21967597  0.75836384  1.0
  O  O199  1  0.45818577  0.37139361  0.57855050  1.0
  O  O200  1  0.39304480  0.45330341  0.52823085  1.0
  O  O201  1  0.04715353  0.90685183  0.11712721  1.0
  O  O202  1  0.13065301  0.88982014  0.03276556  1.0
  O  O203  1  0.20343430  0.85852967  0.29330486  1.0
  O  O204  1  0.30227936  0.68775487  0.23014692  1.0
  O  O205  1  0.46475735  0.57546497  0.37494734  1.0
  O  O206  1  0.39119649  0.59428035  0.46339441  1.0
  O  O207  1  0.92941669  0.10891666  0.91244151  1.0
  O  O208  1  0.94144967  0.02275026  0.90176582  1.0
  O  O209  1  0.64198560  0.28103642  0.86894317  1.0
  O  O210  1  0.77488396  0.21794777  0.69851051  1.0
  O  O211  1  0.58174638  0.36741758  0.58495301  1.0
  O  O212  1  0.55010264  0.45676140  0.60218023  1.0
  O  O213  1  0.92256287  0.91334399  0.11703146  1.0
  O  O214  1  0.91423535  0.91916304  0.03244268  1.0
  O  O215  1  0.87714406  0.62834500  0.29946375  1.0
  O  O216  1  0.70880542  0.75812878  0.22986198  1.0
  O  O217  1  0.58938924  0.56855903  0.38009236  1.0
  O  O218  1  0.59289458  0.55609978  0.47031120  1.0
  O  O219  1  0.93056364  0.03100235  0.11541606  1.0
  O  O220  1  0.93484883  0.11327396  0.02934072  1.0
  O  O221  1  0.63310020  0.19922277  0.27998184  1.0
  O  O222  1  0.77939706  0.28440164  0.22604906  1.0
  O  O223  1  0.58369718  0.44894065  0.37403608  1.0
  O  O224  1  0.57080509  0.36811824  0.46156615  1.0
  O  O225  1  0.50939063  0.48737505  0.49439988  1.0
