# generated using pymatgen
data_ZnH7C10N5O2
_symmetry_space_group_name_H-M   'P 1'
_cell_length_a   9.83581554
_cell_length_b   14.40781810
_cell_length_c   22.11212687
_cell_angle_alpha   89.99982104
_cell_angle_beta   89.99999570
_cell_angle_gamma   89.99992642
_symmetry_Int_Tables_number   1
_chemical_formula_structural   ZnH7C10N5O2
_chemical_formula_sum   'Zn8 H56 C80 N40 O16'
_cell_volume   3133.56790052
_cell_formula_units_Z   8
loop_
 _symmetry_equiv_pos_site_id
 _symmetry_equiv_pos_as_xyz
  1  'x, y, z'
loop_
 _atom_site_type_symbol
 _atom_site_label
 _atom_site_symmetry_multiplicity
 _atom_site_fract_x
 _atom_site_fract_y
 _atom_site_fract_z
 _atom_site_occupancy
  Zn  Zn0  1  0.91489765  0.13977779  0.63521903  1.0
  Zn  Zn1  1  0.91489742  0.36022353  0.86478152  1.0
  Zn  Zn2  1  0.58510229  0.86022269  0.13521935  1.0
  Zn  Zn3  1  0.58510350  0.63977864  0.36478139  1.0
  Zn  Zn4  1  0.08510205  0.86022237  0.36478072  1.0
  Zn  Zn5  1  0.08510227  0.63977662  0.13521823  1.0
  Zn  Zn6  1  0.41489740  0.13977746  0.86478085  1.0
  Zn  Zn7  1  0.41489721  0.36022082  0.63521836  1.0
  H  H8  1  0.52653055  0.91503435  0.54628242  1.0
  H  H9  1  0.52652778  0.58496814  0.95371937  1.0
  H  H10  1  0.97347144  0.08496725  0.04628071  1.0
  H  H11  1  0.97347109  0.41503222  0.45371924  1.0
  H  H12  1  0.47347016  0.08496650  0.45371778  1.0
  H  H13  1  0.47347191  0.41503132  0.04628083  1.0
  H  H14  1  0.02652927  0.91503221  0.95371904  1.0
  H  H15  1  0.02652860  0.58496724  0.54628096  1.0
  H  H16  1  0.92825418  0.96883707  0.47566364  1.0
  H  H17  1  0.92825362  0.53116465  0.02433709  1.0
  H  H18  1  0.57174469  0.03116319  0.97566265  1.0
  H  H19  1  0.57174431  0.46883705  0.52433700  1.0
  H  H20  1  0.07174653  0.03116239  0.52433656  1.0
  H  H21  1  0.07174506  0.46883620  0.97566266  1.0
  H  H22  1  0.42825501  0.96883628  0.02433710  1.0
  H  H23  1  0.42825640  0.53116450  0.47566320  1.0
  H  H24  1  0.48352153  0.79404885  0.46738512  1.0
  H  H25  1  0.48351961  0.70595326  0.03261654  1.0
  H  H26  1  0.01647892  0.20595258  0.96738331  1.0
  H  H27  1  0.01647989  0.29404744  0.53261681  1.0
  H  H28  1  0.51647715  0.20595131  0.53261463  1.0
  H  H29  1  0.51648008  0.29404689  0.96738321  1.0
  H  H30  1  0.98352077  0.79404688  0.03261644  1.0
  H  H31  1  0.98351980  0.70595271  0.46738339  1.0
  H  H32  1  0.03142648  0.06087953  0.85070269  1.0
  H  H33  1  0.03142614  0.43911979  0.64929698  1.0
  H  H34  1  0.46857399  0.93912037  0.35070284  1.0
  H  H35  1  0.46857334  0.56088037  0.14929791  1.0
  H  H36  1  0.96857321  0.93911993  0.14929706  1.0
  H  H37  1  0.96857457  0.56087967  0.35070277  1.0
  H  H38  1  0.53142673  0.06087979  0.64929691  1.0
  H  H39  1  0.53142635  0.43911979  0.85070229  1.0
  H  H40  1  0.07374418  0.16626487  0.76071395  1.0
  H  H41  1  0.07374403  0.33373511  0.73928572  1.0
  H  H42  1  0.42625630  0.83373476  0.26071477  1.0
  H  H43  1  0.42625544  0.66626532  0.23928598  1.0
  H  H44  1  0.92625551  0.83373459  0.23928580  1.0
  H  H45  1  0.92625669  0.66626505  0.26071448  1.0
  H  H46  1  0.57374339  0.16626470  0.73928498  1.0
  H  H47  1  0.57374425  0.33373414  0.76071422  1.0
  H  H48  1  0.74472081  0.99121680  0.71444798  1.0
  H  H49  1  0.74472025  0.50878342  0.78555154  1.0
  H  H50  1  0.75528013  0.00878331  0.21444824  1.0
  H  H51  1  0.75528069  0.49121705  0.28555217  1.0
  H  H52  1  0.25527888  0.00878336  0.28555177  1.0
  H  H53  1  0.25527945  0.49121605  0.21444775  1.0
  H  H54  1  0.24472058  0.99121615  0.78555151  1.0
  H  H55  1  0.24472002  0.50878311  0.71444803  1.0
  H  H56  1  0.82506700  0.95499309  0.83357088  1.0
  H  H57  1  0.82506638  0.54500705  0.66642954  1.0
  H  H58  1  0.67493291  0.04500645  0.33357062  1.0
  H  H59  1  0.67493254  0.45499398  0.16643024  1.0
  H  H60  1  0.17493270  0.04500637  0.16642932  1.0
  H  H61  1  0.17493332  0.45499241  0.33357066  1.0
  H  H62  1  0.32506678  0.95499301  0.66642958  1.0
  H  H63  1  0.32506716  0.54500618  0.83356996  1.0
  C  C64  1  0.80803955  0.86440366  0.42984726  1.0
  C  C65  1  0.80803776  0.63559748  0.07015392  1.0
  C  C66  1  0.69196035  0.13559751  0.92984605  1.0
  C  C67  1  0.69196219  0.36440123  0.57015405  1.0
  C  C68  1  0.19196015  0.13559650  0.57015249  1.0
  C  C69  1  0.19196194  0.36440129  0.92984583  1.0
  C  C70  1  0.30803833  0.86440195  0.07015415  1.0
  C  C71  1  0.30803852  0.63559824  0.42984615  1.0
  C  C72  1  0.60408896  0.89827613  0.51287905  1.0
  C  C73  1  0.60408717  0.60172490  0.98712229  1.0
  C  C74  1  0.89591304  0.10172354  0.01287821  1.0
  C  C75  1  0.89591272  0.39827600  0.48712175  1.0
  C  C76  1  0.39591175  0.10172403  0.48712070  1.0
  C  C77  1  0.39591253  0.39827595  0.01287836  1.0
  C  C78  1  0.10408768  0.89827592  0.98712154  1.0
  C  C79  1  0.10408799  0.60172416  0.51287846  1.0
  C  C80  1  0.75228086  0.01486528  0.56688561  1.0
  C  C81  1  0.75228038  0.48513757  0.93311584  1.0
  C  C82  1  0.74771909  0.98513621  0.06688477  1.0
  C  C83  1  0.74771951  0.51486359  0.43311552  1.0
  C  C84  1  0.24771782  0.98513557  0.43311459  1.0
  C  C85  1  0.24771931  0.51486259  0.06688391  1.0
  C  C86  1  0.25228060  0.01486325  0.93311543  1.0
  C  C87  1  0.25228120  0.48513657  0.56688469  1.0
  C  C88  1  0.72931188  0.94746256  0.51613105  1.0
  C  C89  1  0.72931120  0.55253906  0.98387028  1.0
  C  C90  1  0.77068605  0.05253987  0.01612987  1.0
  C  C91  1  0.77068767  0.44746116  0.48387054  1.0
  C  C92  1  0.27068680  0.05253968  0.48386824  1.0
  C  C93  1  0.27068748  0.44746040  0.01612902  1.0
  C  C94  1  0.22931365  0.94746098  0.98387078  1.0
  C  C95  1  0.22931304  0.55253969  0.51612966  1.0
  C  C96  1  0.68506250  0.81382423  0.42771274  1.0
  C  C97  1  0.68506062  0.68617632  0.07228845  1.0
  C  C98  1  0.81493841  0.18617695  0.92771188  1.0
  C  C99  1  0.81493933  0.31382238  0.57228777  1.0
  C  C100  1  0.31493719  0.18617593  0.57228655  1.0
  C  C101  1  0.31493908  0.31382245  0.92771221  1.0
  C  C102  1  0.18506230  0.81382251  0.07228787  1.0
  C  C103  1  0.18506138  0.68617778  0.42771243  1.0
  C  C104  1  0.83213306  0.93183568  0.47413827  1.0
  C  C105  1  0.83213039  0.56816613  0.02586291  1.0
  C  C106  1  0.66786784  0.06816667  0.97413675  1.0
  C  C107  1  0.66786855  0.43183417  0.52586335  1.0
  C  C108  1  0.16786765  0.06816448  0.52586147  1.0
  C  C109  1  0.16786829  0.43183333  0.97413639  1.0
  C  C110  1  0.33213287  0.93183418  0.02586345  1.0
  C  C111  1  0.33213216  0.56816737  0.47413730  1.0
  C  C112  1  0.57977482  0.83124111  0.46935639  1.0
  C  C113  1  0.57977196  0.66876092  0.03064526  1.0
  C  C114  1  0.92022710  0.16876057  0.96935510  1.0
  C  C115  1  0.92022800  0.33123936  0.53064499  1.0
  C  C116  1  0.42022487  0.16875974  0.53064381  1.0
  C  C117  1  0.42022773  0.33123924  0.96935449  1.0
  C  C118  1  0.07977260  0.83123959  0.03064510  1.0
  C  C119  1  0.07977272  0.66876079  0.46935476  1.0
  C  C120  1  0.99350833  0.11475770  0.76333427  1.0
  C  C121  1  0.99350807  0.38524216  0.73666537  1.0
  C  C122  1  0.50649159  0.88524148  0.26333500  1.0
  C  C123  1  0.50649185  0.61475853  0.23666575  1.0
  C  C124  1  0.00649137  0.88524176  0.23666548  1.0
  C  C125  1  0.00649162  0.61475799  0.26333438  1.0
  C  C126  1  0.49350810  0.11475798  0.73666520  1.0
  C  C127  1  0.49350886  0.38524162  0.76333445  1.0
  C  C128  1  0.82387734  0.02217268  0.74191083  1.0
  C  C129  1  0.82387691  0.47782734  0.75808927  1.0
  C  C130  1  0.67612360  0.97782730  0.24191046  1.0
  C  C131  1  0.67612403  0.52217326  0.25808983  1.0
  C  C132  1  0.17612236  0.97782748  0.25808937  1.0
  C  C133  1  0.17612279  0.52217213  0.24191048  1.0
  C  C134  1  0.32387609  0.02217286  0.75808929  1.0
  C  C135  1  0.32387668  0.47782620  0.74190992  1.0
  C  C136  1  0.86293868  0.00376030  0.80035435  1.0
  C  C137  1  0.86293720  0.49623968  0.69964530  1.0
  C  C138  1  0.63706225  0.99623940  0.30035484  1.0
  C  C139  1  0.63706171  0.50376119  0.19964635  1.0
  C  C140  1  0.13706203  0.99623917  0.19964540  1.0
  C  C141  1  0.13706249  0.50376047  0.30035400  1.0
  C  C142  1  0.36293744  0.00376006  0.69964582  1.0
  C  C143  1  0.36293900  0.49623827  0.80035385  1.0
  N  N144  1  0.90641746  0.09181128  0.71927748  1.0
  N  N145  1  0.90641817  0.40818867  0.78072262  1.0
  N  N146  1  0.59358247  0.90818811  0.21927725  1.0
  N  N147  1  0.59358277  0.59181251  0.28072304  1.0
  N  N148  1  0.09358224  0.90818888  0.28072273  1.0
  N  N149  1  0.09358254  0.59181149  0.21927713  1.0
  N  N150  1  0.40641621  0.09181135  0.78072250  1.0
  N  N151  1  0.40641693  0.40818764  0.71927716  1.0
  N  N152  1  0.88791908  0.83078726  0.38370022  1.0
  N  N153  1  0.88791925  0.66921450  0.11630096  1.0
  N  N154  1  0.61208082  0.16921482  0.88369894  1.0
  N  N155  1  0.61208171  0.33078537  0.61630116  1.0
  N  N156  1  0.11208062  0.16921290  0.61629998  1.0
  N  N157  1  0.11208146  0.33078565  0.88369879  1.0
  N  N158  1  0.38791887  0.83078533  0.11630126  1.0
  N  N159  1  0.38791901  0.66921478  0.38369904  1.0
  N  N160  1  0.82003967  0.76399168  0.35502508  1.0
  N  N161  1  0.82003971  0.73600945  0.14497566  1.0
  N  N162  1  0.67996125  0.23600915  0.85502411  1.0
  N  N163  1  0.67996023  0.26399029  0.64497599  1.0
  N  N164  1  0.17996104  0.23600779  0.64497422  1.0
  N  N165  1  0.17996100  0.26399140  0.85502409  1.0
  N  N166  1  0.32003946  0.76399031  0.14497609  1.0
  N  N167  1  0.32003845  0.73600917  0.35502421  1.0
  N  N168  1  0.69791254  0.75257356  0.38056492  1.0
  N  N169  1  0.69791053  0.74742836  0.11943672  1.0
  N  N170  1  0.80208939  0.24742853  0.88056348  1.0
  N  N171  1  0.80209043  0.25257219  0.61943662  1.0
  N  N172  1  0.30208715  0.24742659  0.61943483  1.0
  N  N173  1  0.30208916  0.25257179  0.88056348  1.0
  N  N174  1  0.19791132  0.75257162  0.11943673  1.0
  N  N175  1  0.19791029  0.74742796  0.38056313  1.0
  N  N176  1  0.96917180  0.06296974  0.81278321  1.0
  N  N177  1  0.96917146  0.43703015  0.68721688  1.0
  N  N178  1  0.53082912  0.93702990  0.31278338  1.0
  N  N179  1  0.53082745  0.56297009  0.18721737  1.0
  N  N180  1  0.03082891  0.93702972  0.18721699  1.0
  N  N181  1  0.03082925  0.56296932  0.31278332  1.0
  N  N182  1  0.46917159  0.06296956  0.68721683  1.0
  N  N183  1  0.46917224  0.43702937  0.81278283  1.0
  O  O184  1  0.87344007  0.04941383  0.57067671  1.0
  O  O185  1  0.87343763  0.45058684  0.92932429  1.0
  O  O186  1  0.62656090  0.95058696  0.07067594  1.0
  O  O187  1  0.62656125  0.54941364  0.42932390  1.0
  O  O188  1  0.12655963  0.95058564  0.42932349  1.0
  O  O189  1  0.12656105  0.54941262  0.07067546  1.0
  O  O190  1  0.37343880  0.04941320  0.92932381  1.0
  O  O191  1  0.37343946  0.45058652  0.57067630  1.0
  O  O192  1  0.65784637  0.03322541  0.60310645  1.0
  O  O193  1  0.65784492  0.46677822  0.89689411  1.0
  O  O194  1  0.84215358  0.96677661  0.10310654  1.0
  O  O195  1  0.84215396  0.53322380  0.39689329  1.0
  O  O196  1  0.34215231  0.96677544  0.39689330  1.0
  O  O197  1  0.34215478  0.53322194  0.10310564  1.0
  O  O198  1  0.15784714  0.03322285  0.89689366  1.0
  O  O199  1  0.15784675  0.46677635  0.60310601  1.0
