# generated using pymatgen
data_Al4H29C50N7(O10F3)2
_symmetry_space_group_name_H-M   'P 1'
_cell_length_a   6.65996062
_cell_length_b   20.44271940
_cell_length_c   23.96511057
_cell_angle_alpha   90.26907725
_cell_angle_beta   91.03643531
_cell_angle_gamma   92.17398583
_symmetry_Int_Tables_number   1
_chemical_formula_structural   Al4H29C50N7(O10F3)2
_chemical_formula_sum   'Al4 H29 C50 N7 O20 F6'
_cell_volume   3259.86568116
_cell_formula_units_Z   1
loop_
 _symmetry_equiv_pos_site_id
 _symmetry_equiv_pos_as_xyz
  1  'x, y, z'
loop_
 _atom_site_type_symbol
 _atom_site_label
 _atom_site_symmetry_multiplicity
 _atom_site_fract_x
 _atom_site_fract_y
 _atom_site_fract_z
 _atom_site_occupancy
  Al  Al0  1  0.85152999  0.50078893  0.49801005  1.0
  Al  Al1  1  0.35131557  0.49881156  0.49727324  1.0
  Al  Al2  1  0.35777618  0.00124441  0.99964950  1.0
  Al  Al3  1  0.85855162  0.00428129  0.00039163  1.0
  H  H4  1  0.83765803  0.23265690  0.17602663  1.0
  H  H5  1  0.40334919  0.29838788  0.27910364  1.0
  H  H6  1  0.19245146  0.29776752  0.16627379  1.0
  H  H7  1  0.41084542  0.25727084  0.18827836  1.0
  H  H8  1  0.11355578  0.13030764  0.27262689  1.0
  H  H9  1  0.82492694  0.18286021  0.23625090  1.0
  H  H10  1  0.39951022  0.25984089  0.68402856  1.0
  H  H11  1  0.29735722  0.68234536  0.26731178  1.0
  H  H12  1  0.29758709  0.76381376  0.18982540  1.0
  H  H13  1  0.91855656  0.81672224  0.22890798  1.0
  H  H14  1  0.91368335  0.74535720  0.68957202  1.0
  H  H15  1  0.44641823  0.12164730  0.29001024  1.0
  H  H16  1  0.51309578  0.19679774  0.26947833  1.0
  H  H17  1  0.65964582  0.26154209  0.81130158  1.0
  H  H18  1  0.78029484  0.20292366  0.84917027  1.0
  H  H19  1  0.82302004  0.33593297  0.18302876  1.0
  H  H20  1  0.98237112  0.37741608  0.22685552  1.0
  H  H21  1  0.94708566  0.70282106  0.34678187  1.0
  H  H22  1  0.07616388  0.76326071  0.30968319  1.0
  H  H23  1  0.14927299  0.73295038  0.80586269  1.0
  H  H24  1  0.26495129  0.79593885  0.84400047  1.0
  H  H25  1  0.39225553  0.39122649  0.21502710  1.0
  H  H26  1  0.31485321  0.40743411  0.27769534  1.0
  H  H27  1  0.41944935  0.20583131  0.35143610  1.0
  H  H28  1  0.29676679  0.26851620  0.38111158  1.0
  H  H29  1  0.59671401  0.41851558  0.51823191  1.0
  H  H30  1  0.11698877  0.57873446  0.52344585  1.0
  H  H31  1  0.61122026  0.08142768  0.02631402  1.0
  H  H32  1  0.09475515  0.92259538  0.02327887  1.0
  C  C33  1  0.60278516  0.57706238  0.42234723  1.0
  C  C34  1  0.61486831  0.57821161  0.57495369  1.0
  C  C35  1  0.09826461  0.41998678  0.57302593  1.0
  C  C36  1  0.08275843  0.42293119  0.42130344  1.0
  C  C37  1  0.89403587  0.28587436  0.25355409  1.0
  C  C38  1  0.27002231  0.31155514  0.25456304  1.0
  C  C39  1  0.25943346  0.27017279  0.20074740  1.0
  C  C40  1  0.13433945  0.12446259  0.12449250  1.0
  C  C41  1  0.08518584  0.29141316  0.29184854  1.0
  C  C42  1  0.90658346  0.22441547  0.21728042  1.0
  C  C43  1  0.13002872  0.20687129  0.21076015  1.0
  C  C44  1  0.20373013  0.17567843  0.26655985  1.0
  C  C45  1  0.14290680  0.22225308  0.31581816  1.0
  C  C46  1  0.14211273  0.16123715  0.16450205  1.0
  C  C47  1  0.06841439  0.33809016  0.33685857  1.0
  C  C48  1  0.07426703  0.37724615  0.37521571  1.0
  C  C49  1  0.27343266  0.25567948  0.71214941  1.0
  C  C50  1  0.10347174  0.29467775  0.70431562  1.0
  C  C51  1  0.94484298  0.28789092  0.74148584  1.0
  C  C52  1  0.94494579  0.24478337  0.78699455  1.0
  C  C53  1  0.11536221  0.20516358  0.79409512  1.0
  C  C54  1  0.27295040  0.21220089  0.75577637  1.0
  C  C55  1  0.09527587  0.33882712  0.65927643  1.0
  C  C56  1  0.12213902  0.16074306  0.83849523  1.0
  C  C57  1  0.11871641  0.12344265  0.87808203  1.0
  C  C58  1  0.09480425  0.37610325  0.61982234  1.0
  C  C59  1  0.43115282  0.75749727  0.21585415  1.0
  C  C60  1  0.60888282  0.79535579  0.20521305  1.0
  C  C61  1  0.78314583  0.78721389  0.23780415  1.0
  C  C62  1  0.78525822  0.74177730  0.28166322  1.0
  C  C63  1  0.60503856  0.70384766  0.29226128  1.0
  C  C64  1  0.43187534  0.71236223  0.25867387  1.0
  C  C65  1  0.60951474  0.84090364  0.16085989  1.0
  C  C66  1  0.60247351  0.65893176  0.33657473  1.0
  C  C67  1  0.60563368  0.62123414  0.37592378  1.0
  C  C68  1  0.60504622  0.87915058  0.12206409  1.0
  C  C69  1  0.43977732  0.75517236  0.78512103  1.0
  C  C70  1  0.61058916  0.79846938  0.79398033  1.0
  C  C71  1  0.77577838  0.79314902  0.75844272  1.0
  C  C72  1  0.78285745  0.74793417  0.71585517  1.0
  C  C73  1  0.61264423  0.70524177  0.70618901  1.0
  C  C74  1  0.44683775  0.71029304  0.74067596  1.0
  C  C75  1  0.61039338  0.84442682  0.83765129  1.0
  C  C76  1  0.61093281  0.65966218  0.66168219  1.0
  C  C77  1  0.61539335  0.62177659  0.62240352  1.0
  C  C78  1  0.60028005  0.88258419  0.87668215  1.0
  C  C79  1  0.60296665  0.92695533  0.92345063  1.0
  C  C80  1  0.60087500  0.92312581  0.07539793  1.0
  C  C81  1  0.12051951  0.08113333  0.07692424  1.0
  C  C82  1  0.11848707  0.07932083  0.92459633  1.0
  N  N83  1  0.41194481  0.15849375  0.26360098  1.0
  N  N84  1  0.79117390  0.24250104  0.82375850  1.0
  N  N85  1  0.86302494  0.34407724  0.22364469  1.0
  N  N86  1  0.95425933  0.73269778  0.31318088  1.0
  N  N87  1  0.27872039  0.75592296  0.81927654  1.0
  N  N88  1  0.27748601  0.38184632  0.24196058  1.0
  N  N89  1  0.28593974  0.22609968  0.35886747  1.0
  O  O90  1  0.44274755  0.56246911  0.55372331  1.0
  O  O91  1  0.77245718  0.56364323  0.44395028  1.0
  O  O92  1  0.91701394  0.44413351  0.43776200  1.0
  O  O93  1  0.78503265  0.56026123  0.55830861  1.0
  O  O94  1  0.92851065  0.43616442  0.55310443  1.0
  O  O95  1  0.43071824  0.55602138  0.43810688  1.0
  O  O96  1  0.59803409  0.46030812  0.49919643  1.0
  O  O97  1  0.27157188  0.43794653  0.55571526  1.0
  O  O98  1  0.25689240  0.43718560  0.44171369  1.0
  O  O99  1  0.10721020  0.53948768  0.50045185  1.0
  O  O100  1  0.76946419  0.93730798  0.05308212  1.0
  O  O101  1  0.43595096  0.93716993  0.94639823  1.0
  O  O102  1  0.28575492  0.05523540  0.93801797  1.0
  O  O103  1  0.42917273  0.94319189  0.06038571  1.0
  O  O104  1  0.28447539  0.06766488  0.05347573  1.0
  O  O105  1  0.77476706  0.95118446  0.93797025  1.0
  O  O106  1  0.61111659  0.04269720  0.00273279  1.0
  O  O107  1  0.94390799  0.06069478  0.06215067  1.0
  O  O108  1  0.95101291  0.06909334  0.94851556  1.0
  O  O109  1  0.10210836  0.96264290  0.00171086  1.0
  F  F110  1  0.71962142  0.27500685  0.28945356  1.0
  F  F111  1  0.43306973  0.17338719  0.76306182  1.0
  F  F112  1  0.77924786  0.32446753  0.73439599  1.0
  F  F113  1  0.28058616  0.67035345  0.73178162  1.0
  F  F114  1  0.93604623  0.83540136  0.76739584  1.0
  F  F115  1  0.95804406  0.19236493  0.33706469  1.0
