# generated using pymatgen
data_ZnH9(C3O)5
_symmetry_space_group_name_H-M   'P 1'
_cell_length_a   7.87015335
_cell_length_b   14.01080534
_cell_length_c   14.01079288
_cell_angle_alpha   73.50507583
_cell_angle_beta   77.69648697
_cell_angle_gamma   77.69695026
_symmetry_Int_Tables_number   1
_chemical_formula_structural   ZnH9(C3O)5
_chemical_formula_sum   'Zn4 H36 C60 O20'
_cell_volume   1428.00087427
_cell_formula_units_Z   4
loop_
 _symmetry_equiv_pos_site_id
 _symmetry_equiv_pos_as_xyz
  1  'x, y, z'
loop_
 _atom_site_type_symbol
 _atom_site_label
 _atom_site_symmetry_multiplicity
 _atom_site_fract_x
 _atom_site_fract_y
 _atom_site_fract_z
 _atom_site_occupancy
  Zn  Zn0  1  0.99132742  0.26728249  0.20485095  1.0
  Zn  Zn1  1  0.50866944  0.79515095  0.73271612  1.0
  Zn  Zn2  1  0.00867248  0.73271886  0.79515012  1.0
  Zn  Zn3  1  0.49132816  0.20484956  0.26728190  1.0
  H  H4  1  0.15093525  0.54116820  0.04149201  1.0
  H  H5  1  0.56045362  0.71474848  0.00908550  1.0
  H  H6  1  0.52142251  0.44272236  0.24881507  1.0
  H  H7  1  0.78387835  0.46152824  0.25242468  1.0
  H  H8  1  0.63428333  0.54849695  0.31456690  1.0
  H  H9  1  0.95808168  0.43709523  0.38845744  1.0
  H  H10  1  0.19807173  0.48931764  0.43720592  1.0
  H  H11  1  0.11907066  0.77507624  0.21821881  1.0
  H  H12  1  0.88119557  0.72029641  0.16784984  1.0
  H  H13  1  0.34906118  0.95850410  0.45883518  1.0
  H  H14  1  0.93954845  0.99091380  0.28524977  1.0
  H  H15  1  0.97857400  0.75118278  0.55727689  1.0
  H  H16  1  0.71612226  0.74757726  0.53847182  1.0
  H  H17  1  0.86571503  0.68543419  0.45150317  1.0
  H  H18  1  0.54191864  0.61153851  0.56290879  1.0
  H  H19  1  0.30193332  0.56278752  0.51068063  1.0
  H  H20  1  0.38092777  0.78178205  0.22492616  1.0
  H  H21  1  0.61879740  0.83215043  0.27970899  1.0
  H  H22  1  0.84906283  0.45883986  0.95850437  1.0
  H  H23  1  0.43954954  0.28525515  0.99091522  1.0
  H  H24  1  0.47857226  0.55728349  0.75118379  1.0
  H  H25  1  0.21612072  0.53847155  0.74757482  1.0
  H  H26  1  0.36571575  0.45150284  0.68543260  1.0
  H  H27  1  0.04191848  0.56290531  0.61154170  1.0
  H  H28  1  0.80192732  0.51067760  0.56279426  1.0
  H  H29  1  0.88092740  0.22492219  0.78178693  1.0
  H  H30  1  0.11880280  0.27970571  0.83215189  1.0
  H  H31  1  0.65094510  0.04148825  0.54117006  1.0
  H  H32  1  0.06046171  0.00908365  0.71474703  1.0
  H  H33  1  0.02141639  0.24882008  0.44272410  1.0
  H  H34  1  0.28387814  0.25242250  0.46152682  1.0
  H  H35  1  0.13428471  0.31456330  0.54849553  1.0
  H  H36  1  0.45808861  0.38845525  0.43709233  1.0
  H  H37  1  0.69807023  0.43720550  0.48932114  1.0
  H  H38  1  0.61906988  0.21821330  0.77507843  1.0
  H  H39  1  0.38119877  0.16784564  0.72029412  1.0
  C  C40  1  0.24676679  0.39151721  0.19992234  1.0
  C  C41  1  0.32945029  0.48323254  0.14975080  1.0
  C  C42  1  0.26413395  0.55250822  0.06734583  1.0
  C  C43  1  0.34778441  0.63585544  0.01678785  1.0
  C  C44  1  0.49420531  0.65045145  0.04910894  1.0
  C  C45  1  0.55687334  0.58196935  0.13343831  1.0
  C  C46  1  0.47469857  0.49798017  0.18393303  1.0
  C  C47  1  0.28294948  0.70627503  0.92500760  1.0
  C  C48  1  0.74871582  0.54158393  0.25396857  1.0
  C  C49  1  0.90043460  0.57601775  0.27601841  1.0
  C  C50  1  0.99194174  0.51201289  0.35173757  1.0
  C  C51  1  0.12802843  0.54185443  0.37920242  1.0
  C  C52  1  0.17806326  0.63697618  0.33216976  1.0
  C  C53  1  0.08630160  0.70015507  0.25551845  1.0
  C  C54  1  0.95025875  0.67017127  0.22751586  1.0
  C  C55  1  0.25324554  0.80008558  0.60847541  1.0
  C  C56  1  0.17053952  0.85024572  0.51676644  1.0
  C  C57  1  0.23587275  0.93265340  0.44749248  1.0
  C  C58  1  0.15221420  0.98320856  0.36414069  1.0
  C  C59  1  0.00580402  0.95088677  0.34954709  1.0
  C  C60  1  0.94313071  0.86655959  0.41802563  1.0
  C  C61  1  0.02530589  0.81606584  0.50201717  1.0
  C  C62  1  0.21708462  0.07498726  0.29373726  1.0
  C  C63  1  0.75127941  0.74603289  0.45841836  1.0
  C  C64  1  0.59955945  0.72398043  0.42398776  1.0
  C  C65  1  0.50805737  0.64826118  0.48799012  1.0
  C  C66  1  0.37197221  0.62079430  0.45814788  1.0
  C  C67  1  0.32193114  0.66783186  0.36302223  1.0
  C  C68  1  0.41369358  0.74448154  0.29984875  1.0
  C  C69  1  0.54973708  0.77248612  0.32983063  1.0
  C  C70  1  0.75322024  0.60848857  0.80007457  1.0
  C  C71  1  0.67054495  0.51677174  0.85024634  1.0
  C  C72  1  0.73586563  0.44749910  0.93265131  1.0
  C  C73  1  0.65221755  0.36414807  0.98320876  1.0
  C  C74  1  0.50579898  0.34955289  0.95089000  1.0
  C  C75  1  0.44312772  0.41803267  0.86655956  1.0
  C  C76  1  0.52529641  0.50202492  0.81606604  1.0
  C  C77  1  0.71706416  0.29373306  0.07498912  1.0
  C  C78  1  0.25128174  0.45841662  0.74603088  1.0
  C  C79  1  0.09956384  0.42398430  0.72398047  1.0
  C  C80  1  0.00805559  0.48798843  0.64826238  1.0
  C  C81  1  0.87197277  0.45814235  0.62079847  1.0
  C  C82  1  0.82193316  0.36302367  0.66783217  1.0
  C  C83  1  0.91369651  0.29984331  0.74448516  1.0
  C  C84  1  0.04974115  0.32983008  0.77248521  1.0
  C  C85  1  0.74675249  0.19991340  0.39152232  1.0
  C  C86  1  0.82945742  0.14975251  0.48323164  1.0
  C  C87  1  0.76413088  0.06734410  0.55250648  1.0
  C  C88  1  0.84779331  0.01678895  0.63585854  1.0
  C  C89  1  0.99420356  0.04911067  0.65044930  1.0
  C  C90  1  0.05687401  0.13343866  0.58197298  1.0
  C  C91  1  0.97469341  0.18393318  0.49798183  1.0
  C  C92  1  0.78291837  0.92501250  0.70626108  1.0
  C  C93  1  0.24872116  0.25396616  0.54158191  1.0
  C  C94  1  0.40043891  0.27601716  0.57601464  1.0
  C  C95  1  0.49194419  0.35173417  0.51201403  1.0
  C  C96  1  0.62802762  0.37920256  0.54185600  1.0
  C  C97  1  0.67806289  0.33216724  0.63698020  1.0
  C  C98  1  0.58630343  0.25551610  0.70015593  1.0
  C  C99  1  0.45025994  0.22751150  0.67017334  1.0
  O  O100  1  0.11367591  0.38329844  0.16599107  1.0
  O  O101  1  0.30996815  0.32586023  0.27359719  1.0
  O  O102  1  0.13421271  0.69711008  0.90977918  1.0
  O  O103  1  0.37949486  0.77056201  0.86934551  1.0
  O  O104  1  0.69954716  0.60241956  0.16010707  1.0
  O  O105  1  0.38630129  0.83400223  0.61669990  1.0
  O  O106  1  0.19001786  0.72639384  0.67414323  1.0
  O  O107  1  0.36576772  0.09021692  0.30288629  1.0
  O  O108  1  0.12048905  0.13066230  0.22943334  1.0
  O  O109  1  0.80045291  0.83989178  0.39757885  1.0
  O  O110  1  0.88631759  0.61670737  0.83400652  1.0
  O  O111  1  0.69002882  0.67414254  0.72640022  1.0
  O  O112  1  0.86578842  0.30288732  0.09021582  1.0
  O  O113  1  0.62050116  0.22944389  0.13065533  1.0
  O  O114  1  0.30045427  0.39758101  0.83989335  1.0
  O  O115  1  0.61368496  0.16599685  0.38330201  1.0
  O  O116  1  0.80997366  0.27360059  0.32585520  1.0
  O  O117  1  0.63424766  0.90977998  0.69711865  1.0
  O  O118  1  0.87953575  0.86933828  0.77056653  1.0
  O  O119  1  0.19955033  0.16010719  0.60241828  1.0
