# generated using pymatgen
data_AlH12(C8O3)3
_symmetry_space_group_name_H-M   'P 1'
_cell_length_a   4.00389119
_cell_length_b   28.93060745
_cell_length_c   28.92950014
_cell_angle_alpha   60.00053938
_cell_angle_beta   89.99930940
_cell_angle_gamma   89.99993065
_symmetry_Int_Tables_number   1
_chemical_formula_structural   AlH12(C8O3)3
_chemical_formula_sum   'Al2 H24 C48 O18'
_cell_volume   2902.10913987
_cell_formula_units_Z   2
loop_
 _symmetry_equiv_pos_site_id
 _symmetry_equiv_pos_as_xyz
  1  'x, y, z'
loop_
 _atom_site_type_symbol
 _atom_site_label
 _atom_site_symmetry_multiplicity
 _atom_site_fract_x
 _atom_site_fract_y
 _atom_site_fract_z
 _atom_site_occupancy
  Al  Al0  1  0.99160550  0.50000801  0.99999530  1.0
  Al  Al1  1  0.99266230  0.16665793  0.66667771  1.0
  H  H2  1  0.81055251  0.30519772  0.52269548  1.0
  H  H3  1  0.83098670  0.35646732  0.42286279  1.0
  H  H4  1  0.21128628  0.18421620  0.51723123  1.0
  H  H5  1  0.21027172  0.48240684  0.14945384  1.0
  H  H6  1  0.80953206  0.36143641  0.14398591  1.0
  H  H7  1  0.83034026  0.31020345  0.24381097  1.0
  H  H8  1  0.81048353  0.17209447  0.80522182  1.0
  H  H9  1  0.83097923  0.22064933  0.85649399  1.0
  H  H10  1  0.21124859  0.29854262  0.68424211  1.0
  H  H11  1  0.21029692  0.36815185  0.98240864  1.0
  H  H12  1  0.80955609  0.49458117  0.86142285  1.0
  H  H13  1  0.83037077  0.44598632  0.81019256  1.0
  H  H14  1  0.81053241  0.02269207  0.67210326  1.0
  H  H15  1  0.83102927  0.92286551  0.72065279  1.0
  H  H16  1  0.21122000  0.01720807  0.79855873  1.0
  H  H17  1  0.21030553  0.64945508  0.86813393  1.0
  H  H18  1  0.80951969  0.64399331  0.99457654  1.0
  H  H19  1  0.83036104  0.74381644  0.94598490  1.0
  H  H20  1  0.24945243  0.25302385  0.37553818  1.0
  H  H21  1  0.24853871  0.41363263  0.29114362  1.0
  H  H22  1  0.24950115  0.37142145  0.75305071  1.0
  H  H23  1  0.24858048  0.29523381  0.91363829  1.0
  H  H24  1  0.24949621  0.87552031  0.87143333  1.0
  H  H25  1  0.24860575  0.79113699  0.79521997  1.0
  C  C26  1  0.49450279  0.58185827  0.96295832  1.0
  C  C27  1  0.49447828  0.45519189  0.08184916  1.0
  C  C28  1  0.49447870  0.46297325  0.95517644  1.0
  C  C29  1  0.49549926  0.21143962  0.58482373  1.0
  C  C30  1  0.49548635  0.20372658  0.71146213  1.0
  C  C31  1  0.49546975  0.08480736  0.70374450  1.0
  C  C32  1  0.51025482  0.24190815  0.52546192  1.0
  C  C33  1  0.68451870  0.29053759  0.49919493  1.0
  C  C34  1  0.69648931  0.31873842  0.44389716  1.0
  C  C35  1  0.54367685  0.29827297  0.41394317  1.0
  C  C36  1  0.37085653  0.24884878  0.44107588  1.0
  C  C37  1  0.35133076  0.22138176  0.49657763  1.0
  C  C38  1  0.55696123  0.32444114  0.35755490  1.0
  C  C39  1  0.55664854  0.34225065  0.30912184  1.0
  C  C40  1  0.54298414  0.36839243  0.25273521  1.0
  C  C41  1  0.36993592  0.41778776  0.22560565  1.0
  C  C42  1  0.35037971  0.44525509  0.17009915  1.0
  C  C43  1  0.50932642  0.42472900  0.14121213  1.0
  C  C44  1  0.68362596  0.37610691  0.16748234  1.0
  C  C45  1  0.69574692  0.34792049  0.22278447  1.0
  C  C46  1  0.51022557  0.23261936  0.74193133  1.0
  C  C47  1  0.68446965  0.21025246  0.79056050  1.0
  C  C48  1  0.69648412  0.23734960  0.81876692  1.0
  C  C49  1  0.54368591  0.28776522  0.79829987  1.0
  C  C50  1  0.37086605  0.31006074  0.74887801  1.0
  C  C51  1  0.35130140  0.28202628  0.72140560  1.0
  C  C52  1  0.55700668  0.31799252  0.82446911  1.0
  C  C53  1  0.55671106  0.34862021  0.84225714  1.0
  C  C54  1  0.54302561  0.37887642  0.86839208  1.0
  C  C55  1  0.36997442  0.35661363  0.91779277  1.0
  C  C56  1  0.35041214  0.38465680  0.94525123  1.0
  C  C57  1  0.50932571  0.43406822  0.92471998  1.0
  C  C58  1  0.68363313  0.45641601  0.87609364  1.0
  C  C59  1  0.69577266  0.42929831  0.84791313  1.0
  C  C60  1  0.51021194  0.02544926  0.73263068  1.0
  C  C61  1  0.68449690  0.99918786  0.71026340  1.0
  C  C62  1  0.69650681  0.94389421  0.73735232  1.0
  C  C63  1  0.54368594  0.91393536  0.78777145  1.0
  C  C64  1  0.37083800  0.94106172  0.81006874  1.0
  C  C65  1  0.35127298  0.99655908  0.78204145  1.0
  C  C66  1  0.55701444  0.85754929  0.81798963  1.0
  C  C67  1  0.55673612  0.80912096  0.84861830  1.0
  C  C68  1  0.54305838  0.75273685  0.87886645  1.0
  C  C69  1  0.37001031  0.72560222  0.85660027  1.0
  C  C70  1  0.35042591  0.67010374  0.88464156  1.0
  C  C71  1  0.50933433  0.64121811  0.93405414  1.0
  C  C72  1  0.68362619  0.66749072  0.95641011  1.0
  C  C73  1  0.69576530  0.72278802  0.92929244  1.0
  O  O74  1  0.25446332  0.45160738  0.98817575  1.0
  O  O75  1  0.25448936  0.56022605  0.95159176  1.0
  O  O76  1  0.25449252  0.48818821  0.06021799  1.0
  O  O77  1  0.72422542  0.49703318  0.94651098  1.0
  O  O78  1  0.72423841  0.44652603  0.05645239  1.0
  O  O79  1  0.72423546  0.55646471  0.99701940  1.0
  O  O80  1  0.25550760  0.10644815  0.71510920  1.0
  O  O81  1  0.25553192  0.17843780  0.60646460  1.0
  O  O82  1  0.25551366  0.21508687  0.67845814  1.0
  O  O83  1  0.72524508  0.11019496  0.66968213  1.0
  O  O84  1  0.72525012  0.16966493  0.72013786  1.0
  O  O85  1  0.72526711  0.22011621  0.61021002  1.0
  O  O86  1  0.21855096  0.22783549  0.41375304  1.0
  O  O87  1  0.21741801  0.43879062  0.25292244  1.0
  O  O88  1  0.21858986  0.35839634  0.72785970  1.0
  O  O89  1  0.21747210  0.30829416  0.93879822  1.0
  O  O90  1  0.21856668  0.91373289  0.85840918  1.0
  O  O91  1  0.21753809  0.75292042  0.80827492  1.0
