# generated using pymatgen
data_ZnH11C16N4O
_symmetry_space_group_name_H-M   'P 1'
_cell_length_a   18.46782760
_cell_length_b   18.59172577
_cell_length_c   18.69676261
_cell_angle_alpha   110.18990584
_cell_angle_beta   102.25563148
_cell_angle_gamma   110.11851236
_symmetry_Int_Tables_number   1
_chemical_formula_structural   ZnH11C16N4O
_chemical_formula_sum   'Zn4 H44 C64 N16 O4'
_cell_volume   5243.26398407
_cell_formula_units_Z   4
loop_
 _symmetry_equiv_pos_site_id
 _symmetry_equiv_pos_as_xyz
  1  'x, y, z'
loop_
 _atom_site_type_symbol
 _atom_site_label
 _atom_site_symmetry_multiplicity
 _atom_site_fract_x
 _atom_site_fract_y
 _atom_site_fract_z
 _atom_site_occupancy
  Zn  Zn0  1  0.48938480  0.12489197  0.59935965  1.0
  Zn  Zn1  1  0.59023336  0.11551323  0.47614863  1.0
  Zn  Zn2  1  0.50202603  0.90136127  0.37534965  1.0
  Zn  Zn3  1  0.38087852  0.91353425  0.51249638  1.0
  H  H4  1  0.46511084  0.17524743  0.77805567  1.0
  H  H5  1  0.76857119  0.16601370  0.44295923  1.0
  H  H6  1  0.02550265  0.37718999  0.89163251  1.0
  H  H7  1  0.93123212  0.32936920  0.97192653  1.0
  H  H8  1  0.87292972  0.38549120  0.99708005  1.0
  H  H9  1  0.00585298  0.43951613  0.84457373  1.0
  H  H10  1  0.91160075  0.50494280  0.87632829  1.0
  H  H11  1  0.84566040  0.47036310  0.92607215  1.0
  H  H12  1  0.00005481  0.62348512  0.00499948  1.0
  H  H13  1  0.94381006  0.57676101  0.05505618  1.0
  H  H14  1  0.47671803  0.85908271  0.62368594  1.0
  H  H15  1  0.61390676  0.83921089  0.46280326  1.0
  H  H16  1  0.76516153  0.17181488  0.60050593  1.0
  H  H17  1  0.62782793  0.17596005  0.76208725  1.0
  H  H18  1  0.51879561  0.33027977  0.65992292  1.0
  H  H19  1  0.64108354  0.31108712  0.48506895  1.0
  H  H20  1  0.21015862  0.90178607  0.40816600  1.0
  H  H21  1  0.38764661  0.88091603  0.20309239  1.0
  H  H22  1  0.48452364  0.15503112  0.35290126  1.0
  H  H23  1  0.36739901  0.17317687  0.49505470  1.0
  H  H24  1  0.12712967  0.49799109  0.00532702  1.0
  H  H25  1  0.05669564  0.44300770  0.06780486  1.0
  H  H26  1  0.95645724  0.58523042  0.16869779  1.0
  H  H27  1  0.87107322  0.48162974  0.10245325  1.0
  H  H28  1  0.91540736  0.51357956  0.20855101  1.0
  H  H29  1  0.96970088  0.41869213  0.14412522  1.0
  H  H30  1  0.05169761  0.52409018  0.19436095  1.0
  H  H31  1  0.03363586  0.56163393  0.84748655  1.0
  H  H32  1  0.05926255  0.65506149  0.93730988  1.0
  H  H33  1  0.12809845  0.65529188  0.88484875  1.0
  H  H34  1  0.17759201  0.64100916  0.01428808  1.0
  H  H35  1  0.16637899  0.55945900  0.92330225  1.0
  H  H36  1  0.79875792  0.89173151  0.40722394  1.0
  H  H37  1  0.73345400  0.87723916  0.46304134  1.0
  H  H38  1  0.72195961  0.78654015  0.37824802  1.0
  H  H39  1  0.60791473  0.82188125  0.33063089  1.0
  H  H40  1  0.67862057  0.84472104  0.28215533  1.0
  H  H41  1  0.24756384  0.80731176  0.57705711  1.0
  H  H42  1  0.33400865  0.79535537  0.55867346  1.0
  H  H43  1  0.28222499  0.73962667  0.60613972  1.0
  H  H44  1  0.41493521  0.86742776  0.71266805  1.0
  H  H45  1  0.32835181  0.87396528  0.73175765  1.0
  H  H46  1  0.37435275  0.68953370  0.12264919  1.0
  H  H47  1  0.05006008  0.68675964  0.33546542  1.0
  C  C48  1  0.44095295  0.10627777  0.74199169  1.0
  C  C49  1  0.73198093  0.09738701  0.42092869  1.0
  C  C50  1  0.26098733  0.96541985  0.43262212  1.0
  C  C51  1  0.41591211  0.94589281  0.25235563  1.0
  C  C52  1  0.46549923  0.08648762  0.32860232  1.0
  C  C53  1  0.34104309  0.10494326  0.47805196  1.0
  C  C54  1  0.58566599  0.35778321  0.57725913  1.0
  C  C55  1  0.23641617  0.71713477  0.26126654  1.0
  C  C56  1  0.25724321  0.04131810  0.43691505  1.0
  C  C57  1  0.42303914  0.02150655  0.24638113  1.0
  C  C58  1  0.01113885  0.43160397  0.90078234  1.0
  C  C59  1  0.93033531  0.39141033  0.98577987  1.0
  C  C60  1  0.00775472  0.46412866  0.06181608  1.0
  C  C61  1  0.08089745  0.51478999  0.97696783  1.0
  C  C62  1  0.16953484  0.66209393  0.18556307  1.0
  C  C63  1  0.92594227  0.40859249  0.91013083  1.0
  C  C64  1  0.04427515  0.54340479  0.04412323  1.0
  C  C65  1  0.68323731  0.95514494  0.37306863  1.0
  C  C66  1  0.38955090  0.96378769  0.69408710  1.0
  C  C67  1  0.97364039  0.56413956  0.01067433  1.0
  C  C68  1  0.90914058  0.48791689  0.92681543  1.0
  C  C69  1  0.11140408  0.61350000  0.11973123  1.0
  C  C70  1  0.85964321  0.33270212  0.83756859  1.0
  C  C71  1  0.80192356  0.26797809  0.77973700  1.0
  C  C72  1  0.83152633  0.03792844  0.38866392  1.0
  C  C73  1  0.40955792  0.04634183  0.84102707  1.0
  C  C74  1  0.89918455  0.04254207  0.38664572  1.0
  C  C75  1  0.40346570  0.04551498  0.90513024  1.0
  C  C76  1  0.97326963  0.04653943  0.38779999  1.0
  C  C77  1  0.39841662  0.04373272  0.97497854  1.0
  C  C78  1  0.04195750  0.04909199  0.39189868  1.0
  C  C79  1  0.39541226  0.04026618  0.03926950  1.0
  C  C80  1  0.11616316  0.04974161  0.40105657  1.0
  C  C81  1  0.39705357  0.03515833  0.10929761  1.0
  C  C82  1  0.50396062  0.86140599  0.57806169  1.0
  C  C83  1  0.57464002  0.85170777  0.49608686  1.0
  C  C84  1  0.18414724  0.04917110  0.41435697  1.0
  C  C85  1  0.40404494  0.02988170  0.17404821  1.0
  C  C86  1  0.59619078  0.43914615  0.58666694  1.0
  C  C87  1  0.60204387  0.50938875  0.59348289  1.0
  C  C88  1  0.60478459  0.58385005  0.59787617  1.0
  C  C89  1  0.60327276  0.65009603  0.59854882  1.0
  C  C90  1  0.59591951  0.71753604  0.59326461  1.0
  C  C91  1  0.58306017  0.77434050  0.58220260  1.0
  C  C92  1  0.71876571  0.16331266  0.62826521  1.0
  C  C93  1  0.64851156  0.16528515  0.71081167  1.0
  C  C94  1  0.41390823  0.04071762  0.76576455  1.0
  C  C95  1  0.75513635  0.03105600  0.39341970  1.0
  C  C96  1  0.55931462  0.82869558  0.55785930  1.0
  C  C97  1  0.72971559  0.20072731  0.71179629  1.0
  C  C98  1  0.54650644  0.31127629  0.61548811  1.0
  C  C99  1  0.60890921  0.30141721  0.52583794  1.0
  C  C100  1  0.32305536  0.75250324  0.27665206  1.0
  C  C101  1  0.23532225  0.75317037  0.34126687  1.0
  C  C102  1  0.99184545  0.48091804  0.14222918  1.0
  C  C103  1  0.93033861  0.51732097  0.15565012  1.0
  C  C104  1  0.13085049  0.58506923  0.95605967  1.0
  C  C105  1  0.08493203  0.61552359  0.90395101  1.0
  C  C106  1  0.67213782  0.86492009  0.34223228  1.0
  C  C107  1  0.73510272  0.85439193  0.40108989  1.0
  C  C108  1  0.35981162  0.87544238  0.68809327  1.0
  C  C109  1  0.30274192  0.80089396  0.60289536  1.0
  C  C110  1  0.37340561  0.74483638  0.22758977  1.0
  C  C111  1  0.16670846  0.74392273  0.37035207  1.0
  N  N112  1  0.43268687  0.07186315  0.66305238  1.0
  N  N113  1  0.65339664  0.06414626  0.41689284  1.0
  N  N114  1  0.62331271  0.97641651  0.38748524  1.0
  N  N115  1  0.40066783  0.98364899  0.63325837  1.0
  N  N116  1  0.48604777  0.89771310  0.53014244  1.0
  N  N117  1  0.53019933  0.89199334  0.48005603  1.0
  N  N118  1  0.63702599  0.11218677  0.58163521  1.0
  N  N119  1  0.59372119  0.11339179  0.63248491  1.0
  N  N120  1  0.54678978  0.23458790  0.58888988  1.0
  N  N121  1  0.58531736  0.22835128  0.53322341  1.0
  N  N122  1  0.36735678  0.80580302  0.35799119  1.0
  N  N123  1  0.31557142  0.80596997  0.39705188  1.0
  N  N124  1  0.34014537  0.98340780  0.46919737  1.0
  N  N125  1  0.45272102  0.96532885  0.33118048  1.0
  N  N126  1  0.48327409  0.05173981  0.37812902  1.0
  N  N127  1  0.38932469  0.06891113  0.49721936  1.0
  O  O128  1  0.45095105  0.78915247  0.25675597  1.0
  O  O129  1  0.33271140  0.68721249  0.14790103  1.0
  O  O130  1  0.17540606  0.78435238  0.44186118  1.0
  O  O131  1  0.09099317  0.68656389  0.30963373  1.0
