# generated using pymatgen
data_Zn2H40(C9N2)5
_symmetry_space_group_name_H-M   'P 1'
_cell_length_a   19.95648656
_cell_length_b   20.07020087
_cell_length_c   20.46812456
_cell_angle_alpha   108.39182670
_cell_angle_beta   106.56215209
_cell_angle_gamma   112.19775574
_symmetry_Int_Tables_number   1
_chemical_formula_structural   Zn2H40(C9N2)5
_chemical_formula_sum   'Zn4 H80 C90 N20'
_cell_volume   6395.05172236
_cell_formula_units_Z   2
loop_
 _symmetry_equiv_pos_site_id
 _symmetry_equiv_pos_as_xyz
  1  'x, y, z'
loop_
 _atom_site_type_symbol
 _atom_site_label
 _atom_site_symmetry_multiplicity
 _atom_site_fract_x
 _atom_site_fract_y
 _atom_site_fract_z
 _atom_site_occupancy
  Zn  Zn0  1  0.60776099  0.60593213  0.50605863  1.0
  Zn  Zn1  1  0.39125110  0.39714599  0.49245514  1.0
  Zn  Zn2  1  0.51110687  0.59376452  0.61220841  1.0
  Zn  Zn3  1  0.49567933  0.40829953  0.39506063  1.0
  H  H4  1  0.76529011  0.61389086  0.61407412  1.0
  H  H5  1  0.50284871  0.02873914  0.45647047  1.0
  H  H6  1  0.45679374  0.97088350  0.55568354  1.0
  H  H7  1  0.53770131  0.13543944  0.67394000  1.0
  H  H8  1  0.40212294  0.60494908  0.82509096  1.0
  H  H9  1  0.47763636  0.59921388  0.76408094  1.0
  H  H10  1  0.37754053  0.60932060  0.93808611  1.0
  H  H11  1  0.43686978  0.66805300  0.14799815  1.0
  H  H12  1  0.47504787  0.66934484  0.27552711  1.0
  H  H13  1  0.26345343  0.34083740  0.70996996  1.0
  H  H14  1  0.25501200  0.41280310  0.03292820  1.0
  H  H15  1  0.25466104  0.39707031  0.36487388  1.0
  H  H16  1  0.09168085  0.97770754  0.01738921  1.0
  H  H17  1  0.61988356  0.38356335  0.31626419  1.0
  H  H18  1  0.88058989  0.65097490  0.72116760  1.0
  H  H19  1  0.21238136  0.05245321  0.29566333  1.0
  H  H20  1  0.75231439  0.66411758  0.85792313  1.0
  H  H21  1  0.77338087  0.64213651  0.48040289  1.0
  H  H22  1  0.62994501  0.58564559  0.74557088  1.0
  H  H23  1  0.50822086  0.66314973  0.39786984  1.0
  H  H24  1  0.46345934  0.20198285  0.28916220  1.0
  H  H25  1  0.37028671  0.11200745  0.21472815  1.0
  H  H26  1  0.54944016  0.78736578  0.68571396  1.0
  H  H27  1  0.44395611  0.16708345  0.19041203  1.0
  H  H28  1  0.33018154  0.19576835  0.16135336  1.0
  H  H29  1  0.42254002  0.28568893  0.23403861  1.0
  H  H30  1  0.14123569  0.25956181  0.32105283  1.0
  H  H31  1  0.10048035  0.15437981  0.25868214  1.0
  H  H32  1  0.08170997  0.18358147  0.34012358  1.0
  H  H33  1  0.18897077  0.14701557  0.36981285  1.0
  H  H34  1  0.23113210  0.25213299  0.43012955  1.0
  H  H35  1  0.41818356  0.74413740  0.54507900  1.0
  H  H36  1  0.31055361  0.69635472  0.50952529  1.0
  H  H37  1  0.66122378  0.79236965  0.53334249  1.0
  H  H38  1  0.37693453  0.77220312  0.60826403  1.0
  H  H39  1  0.31776112  0.63390287  0.59836321  1.0
  H  H40  1  0.42373185  0.67845766  0.63275565  1.0
  H  H41  1  0.08310778  0.63454272  0.37618786  1.0
  H  H42  1  0.33284937  0.23513168  0.50897038  1.0
  H  H43  1  0.38628798  0.18462508  0.52771209  1.0
  H  H44  1  0.34540152  0.21657980  0.58998189  1.0
  H  H45  1  0.49671404  0.31161865  0.65199672  1.0
  H  H46  1  0.44522328  0.36423338  0.63557549  1.0
  H  H47  1  0.92436740  0.50135319  0.26329721  1.0
  H  H48  1  0.36673420  0.39886315  0.25556218  1.0
  H  H49  1  0.95289349  0.31234866  0.37693439  1.0
  H  H50  1  0.00186552  0.37878076  0.47814211  1.0
  H  H51  1  0.90442430  0.28944060  0.43395291  1.0
  H  H52  1  0.88963196  0.41312030  0.46037578  1.0
  H  H53  1  0.84189364  0.34761257  0.35965501  1.0
  H  H54  1  0.68277423  0.13107645  0.72933915  1.0
  H  H55  1  0.62160761  0.05324255  0.41159501  1.0
  H  H56  1  0.72198142  0.12379705  0.48840937  1.0
  H  H57  1  0.70064644  0.03179981  0.41453540  1.0
  H  H58  1  0.71221127  0.01902520  0.53531148  1.0
  H  H59  1  0.02858219  0.65013296  0.49109250  1.0
  H  H60  1  0.61244225  0.94895505  0.45895999  1.0
  H  H61  1  0.23616421  0.34674234  0.82269624  1.0
  H  H62  1  0.28934621  0.41360965  0.15981171  1.0
  H  H63  1  0.19097796  0.12411487  0.11726948  1.0
  H  H64  1  0.99637098  0.68746170  0.71567886  1.0
  H  H65  1  0.00946464  0.78678938  0.74687472  1.0
  H  H66  1  0.09567943  0.77488230  0.76838758  1.0
  H  H67  1  0.08067429  0.81849404  0.88817365  1.0
  H  H68  1  0.06047152  0.71815753  0.85496468  1.0
  H  H69  1  0.88488785  0.76236854  0.97675273  1.0
  H  H70  1  0.07404234  0.54098030  0.52162654  1.0
  H  H71  1  0.19761208  0.95041196  0.32312517  1.0
  H  H72  1  0.10674135  0.95237578  0.31104189  1.0
  H  H73  1  0.10828146  0.86138082  0.29827431  1.0
  H  H74  1  0.03811296  0.84478805  0.16781815  1.0
  H  H75  1  0.12980543  0.84841816  0.18139519  1.0
  H  H76  1  0.28317860  0.35177930  0.59216136  1.0
  H  H77  1  0.72795859  0.45728509  0.53134221  1.0
  H  H78  1  0.73073535  0.38457620  0.56242269  1.0
  H  H79  1  0.74958465  0.38381067  0.48215998  1.0
  H  H80  1  0.60820471  0.27063396  0.43709895  1.0
  H  H81  1  0.96944138  0.39192506  0.29342155  1.0
  H  H82  1  0.60523419  0.34134091  0.40404513  1.0
  H  H83  1  0.72912183  0.18885211  0.63031604  1.0
  C  C84  1  0.72074288  0.60233900  0.63587097  1.0
  C  C85  1  0.63294691  0.77816604  0.56908940  1.0
  C  C86  1  0.40714235  0.46224805  0.30046970  1.0
  C  C87  1  0.49836002  0.33898208  0.56083809  1.0
  C  C88  1  0.35185249  0.57890275  0.51852121  1.0
  C  C89  1  0.41952643  0.53484623  0.29718259  1.0
  C  C90  1  0.27869994  0.51792484  0.44927192  1.0
  C  C91  1  0.60702986  0.82275971  0.61304000  1.0
  C  C92  1  0.26809194  0.18305064  0.27322752  1.0
  C  C93  1  0.03992491  0.53213663  0.46416896  1.0
  C  C94  1  0.01630119  0.59284041  0.44734745  1.0
  C  C95  1  0.54929309  0.31217939  0.54115568  1.0
  C  C96  1  0.79306494  0.51406372  0.38240519  1.0
  C  C97  1  0.20576283  0.51881241  0.42523167  1.0
  C  C98  1  0.95291562  0.45751077  0.40154498  1.0
  C  C99  1  0.43456787  0.53988004  0.71297412  1.0
  C  C100  1  0.92746124  0.51902439  0.38457852  1.0
  C  C101  1  0.98195661  0.44928338  0.33734084  1.0
  C  C102  1  0.07072652  0.52294608  0.40030212  1.0
  C  C103  1  0.95815593  0.51010385  0.32073347  1.0
  C  C104  1  0.04530537  0.58406785  0.38336123  1.0
  C  C105  1  0.85452189  0.51678274  0.38018768  1.0
  C  C106  1  0.36509645  0.47354406  0.70182139  1.0
  C  C107  1  0.14391188  0.52258844  0.41109510  1.0
  C  C108  1  0.64284690  0.10898568  0.66866452  1.0
  C  C109  1  0.66857652  0.14000878  0.61380946  1.0
  C  C110  1  0.56874042  0.25780887  0.55948205  1.0
  C  C111  1  0.64608144  0.44651053  0.35911386  1.0
  C  C112  1  0.60686207  0.89364139  0.61573816  1.0
  C  C113  1  0.56225806  0.11010284  0.63806582  1.0
  C  C114  1  0.58785154  0.14281138  0.58290213  1.0
  C  C115  1  0.51717264  0.01992164  0.57213544  1.0
  C  C116  1  0.59794169  0.01715231  0.60324832  1.0
  C  C117  1  0.72571073  0.51319037  0.39195601  1.0
  C  C118  1  0.54280296  0.05078306  0.51721333  1.0
  C  C119  1  0.62364783  0.04954156  0.54747654  1.0
  C  C120  1  0.58024676  0.20638050  0.57195577  1.0
  C  C121  1  0.60334302  0.95177269  0.61173522  1.0
  C  C122  1  0.38735684  0.54055627  0.22694719  1.0
  C  C123  1  0.33586569  0.41356022  0.62572857  1.0
  C  C124  1  0.32243678  0.46958027  0.15754754  1.0
  C  C125  1  0.30225154  0.46863801  0.08663533  1.0
  C  C126  1  0.34588643  0.54006495  0.08279583  1.0
  C  C127  1  0.40477490  0.61308526  0.15210660  1.0
  C  C128  1  0.47995363  0.59709664  0.37280983  1.0
  C  C129  1  0.42550822  0.61325652  0.22298485  1.0
  C  C130  1  0.35227047  0.55113594  0.88744260  1.0
  C  C131  1  0.36649157  0.54791193  0.82462570  1.0
  C  C132  1  0.30680682  0.47798489  0.88785455  1.0
  C  C133  1  0.33750068  0.47251782  0.76039538  1.0
  C  C134  1  0.28747721  0.39996034  0.75907936  1.0
  C  C135  1  0.72459540  0.57867276  0.44293833  1.0
  C  C136  1  0.27207914  0.40274386  0.82178627  1.0
  C  C137  1  0.80696785  0.65236237  0.78023310  1.0
  C  C138  1  0.80905672  0.68080678  0.85373068  1.0
  C  C139  1  0.29440048  0.45580813  0.41716064  1.0
  C  C140  1  0.88255620  0.73540937  0.92023969  1.0
  C  C141  1  0.95655597  0.76342910  0.91580225  1.0
  C  C142  1  0.95664695  0.73001143  0.84346568  1.0
  C  C143  1  0.88165090  0.67491317  0.77745690  1.0
  C  C144  1  0.11993875  0.99526974  0.07876708  1.0
  C  C145  1  0.17520717  0.07633920  0.13445041  1.0
  C  C146  1  0.09581815  0.93353189  0.10045027  1.0
  C  C147  1  0.56898589  0.34463359  0.49283035  1.0
  C  C148  1  0.20866779  0.09796092  0.21356632  1.0
  C  C149  1  0.18449220  0.03552740  0.23442337  1.0
  C  C150  1  0.57583064  0.77548819  0.64694035  1.0
  C  C151  1  0.12841855  0.95354798  0.17979908  1.0
  C  C152  1  0.65203773  0.58874696  0.70326548  1.0
  C  C153  1  0.73060072  0.61153315  0.70977896  1.0
  C  C154  1  0.37660914  0.22499507  0.22171769  1.0
  C  C155  1  0.41603147  0.17352838  0.22942284  1.0
  C  C156  1  0.20504195  0.20568707  0.36944896  1.0
  C  C157  1  0.12752185  0.20045882  0.31939930  1.0
  C  C158  1  0.36663022  0.65379339  0.58138989  1.0
  C  C159  1  0.36831839  0.72062369  0.55967114  1.0
  C  C160  1  0.45600062  0.31603625  0.60649067  1.0
  C  C161  1  0.33989932  0.23740086  0.27559631  1.0
  C  C162  1  0.37531746  0.23333050  0.55543204  1.0
  C  C163  1  0.90180858  0.38822873  0.41167134  1.0
  C  C164  1  0.94239687  0.33944824  0.42600000  1.0
  C  C165  1  0.65700102  0.01489011  0.49787302  1.0
  C  C166  1  0.67641900  0.05827120  0.45046178  1.0
  C  C167  1  0.03667223  0.75579287  0.84030982  1.0
  C  C168  1  0.03401466  0.75067179  0.76345932  1.0
  C  C169  1  0.10464336  0.88634273  0.20207265  1.0
  C  C170  1  0.13090215  0.91444718  0.28832783  1.0
  C  C171  1  0.62155748  0.33403281  0.45618837  1.0
  C  C172  1  0.26879594  0.22761791  0.34259824  1.0
  C  C173  1  0.71303664  0.39352100  0.51132023  1.0
  N  N174  1  0.64339632  0.57833755  0.59073659  1.0
  N  N175  1  0.29954487  0.47421800  0.95319982  1.0
  N  N176  1  0.02912532  0.83248295  0.97762668  1.0
  N  N177  1  0.48851264  0.38405063  0.52614906  1.0
  N  N178  1  0.03378787  0.85279683  0.04501416  1.0
  N  N179  1  0.44554401  0.52114531  0.64953089  1.0
  N  N180  1  0.60211091  0.47010200  0.38912343  1.0
  N  N181  1  0.38397350  0.44252859  0.59467610  1.0
  N  N182  1  0.65091608  0.55247096  0.44068861  1.0
  N  N183  1  0.53206437  0.38779598  0.48471864  1.0
  N  N184  1  0.60114319  0.56998590  0.63216094  1.0
  N  N185  1  0.37079508  0.47780132  0.46334830  1.0
  N  N186  1  0.50181367  0.56323950  0.41609935  1.0
  N  N187  1  0.58168619  0.70812454  0.62419518  1.0
  N  N188  1  0.38058146  0.30826359  0.34216829  1.0
  N  N189  1  0.33666434  0.30273205  0.38309075  1.0
  N  N190  1  0.61772324  0.71030813  0.57605588  1.0
  N  N191  1  0.45722857  0.48061011  0.37132244  1.0
  N  N192  1  0.40597558  0.55385014  0.52401116  1.0
  N  N193  1  0.34158953  0.54338890  0.01439027  1.0
