# generated using pymatgen
data_Zn4H6C24S4Br2O17
_symmetry_space_group_name_H-M   'P 1'
_cell_length_a   19.69527718
_cell_length_b   19.73165027
_cell_length_c   33.40473299
_cell_angle_alpha   79.06743454
_cell_angle_beta   79.17770045
_cell_angle_gamma   63.93757587
_symmetry_Int_Tables_number   1
_chemical_formula_structural   Zn4H6C24S4Br2O17
_chemical_formula_sum   'Zn16 H24 C96 S16 Br8 O68'
_cell_volume   11369.51808916
_cell_formula_units_Z   4
loop_
 _symmetry_equiv_pos_site_id
 _symmetry_equiv_pos_as_xyz
  1  'x, y, z'
loop_
 _atom_site_type_symbol
 _atom_site_label
 _atom_site_symmetry_multiplicity
 _atom_site_fract_x
 _atom_site_fract_y
 _atom_site_fract_z
 _atom_site_occupancy
  Zn  Zn0  1  0.05585757  0.40016530  0.47814182  1.0
  Zn  Zn1  1  0.98489818  0.48332365  0.56055204  1.0
  Zn  Zn2  1  0.05857552  0.56091898  0.48172602  1.0
  Zn  Zn3  1  0.90062911  0.55566702  0.48016061  1.0
  Zn  Zn4  1  0.69376102  0.34952041  0.27199824  1.0
  Zn  Zn5  1  0.69051492  0.18814164  0.26659448  1.0
  Zn  Zn6  1  0.76923612  0.26713899  0.19029602  1.0
  Zn  Zn7  1  0.84800438  0.19377471  0.27144562  1.0
  Zn  Zn8  1  0.26592744  0.76587359  0.68941002  1.0
  Zn  Zn9  1  0.34992803  0.69649662  0.77101705  1.0
  Zn  Zn10  1  0.19189459  0.84910068  0.77071341  1.0
  Zn  Zn11  1  0.19184444  0.68861355  0.76829191  1.0
  Zn  Zn12  1  0.55884840  0.06240276  0.98347813  1.0
  Zn  Zn13  1  0.40145764  0.05404326  0.97724407  1.0
  Zn  Zn14  1  0.55826276  0.90103416  0.97928363  1.0
  Zn  Zn15  1  0.48011158  0.98354322  0.05971503  1.0
  H  H16  1  0.74961647  0.44950033  0.34936646  1.0
  H  H17  1  0.99937066  0.30201408  0.40061660  1.0
  H  H18  1  0.20077342  0.69983605  0.60209614  1.0
  H  H19  1  0.04906557  0.55028264  0.64790618  1.0
  H  H20  1  0.64761475  0.14914408  0.04967884  1.0
  H  H21  1  0.60264670  0.10060770  0.20037822  1.0
  H  H22  1  0.30417366  0.99839337  0.90120778  1.0
  H  H23  1  0.44695896  0.75016949  0.84859992  1.0
  H  H24  1  0.32719978  0.53993933  0.39821984  1.0
  H  H25  1  0.42253477  0.20956643  0.35215778  1.0
  H  H26  1  0.75448862  0.54123568  0.68456349  1.0
  H  H27  1  0.49623367  0.70813544  0.56571801  1.0
  H  H28  1  0.04175584  0.25447837  0.68353396  1.0
  H  H29  1  0.20887363  0.99469513  0.56628429  1.0
  H  H30  1  0.74377383  0.81657119  0.38712978  1.0
  H  H31  1  0.00450396  0.93257137  0.36316408  1.0
  H  H32  1  0.70801509  0.49575728  0.06638263  1.0
  H  H33  1  0.54146730  0.75477352  0.18401262  1.0
  H  H34  1  0.14902126  0.07705579  0.21926694  1.0
  H  H35  1  0.10007214  0.17376569  0.03062013  1.0
  H  H36  1  0.50704225  0.43267149  0.86292446  1.0
  H  H37  1  0.24486017  0.31814725  0.88672610  1.0
  H  H38  1  0.92199197  0.70988020  0.85192929  1.0
  H  H39  1  0.82818800  0.04062321  0.89769271  1.0
  C  C40  1  0.06197503  0.31614831  0.56167395  1.0
  C  C41  1  0.06941395  0.57093655  0.56789850  1.0
  C  C42  1  0.18368776  0.43988354  0.43833735  1.0
  C  C43  1  0.93557410  0.68421931  0.43883662  1.0
  C  C44  1  0.93018790  0.43125303  0.43142032  1.0
  C  C45  1  0.81725171  0.56098016  0.56285718  1.0
  C  C46  1  0.56606801  0.30960624  0.31126946  1.0
  C  C47  1  0.68335262  0.18003545  0.18040395  1.0
  C  C48  1  0.68964176  0.43365492  0.18829658  1.0
  C  C49  1  0.93536100  0.18789364  0.18952264  1.0
  C  C50  1  0.81851364  0.31970294  0.31898300  1.0
  C  C51  1  0.81276099  0.06515434  0.31128862  1.0
  C  C52  1  0.43322257  0.68947207  0.68755753  1.0
  C  C53  1  0.31702117  0.82146984  0.81856155  1.0
  C  C54  1  0.18772550  0.93330699  0.68795381  1.0
  C  C55  1  0.06546212  0.80965669  0.81130012  1.0
  C  C56  1  0.18051219  0.67917235  0.68206880  1.0
  C  C57  1  0.31504626  0.56629087  0.81142242  1.0
  C  C58  1  0.43674669  0.18426614  0.93841493  1.0
  C  C59  1  0.43432111  0.92752889  0.93095227  1.0
  C  C60  1  0.68433201  0.94117866  0.93908649  1.0
  C  C61  1  0.56066382  0.81674199  0.06221983  1.0
  C  C62  1  0.56682624  0.06977188  0.06966169  1.0
  C  C63  1  0.31418969  0.06196681  0.05987844  1.0
  C  C64  1  0.89864920  0.40580962  0.40238234  1.0
  C  C65  1  0.85024837  0.34560969  0.34771330  1.0
  C  C66  1  0.82726719  0.44771119  0.38747550  1.0
  C  C67  1  0.92175460  0.30378552  0.36252310  1.0
  C  C68  1  0.80468435  0.41725682  0.36081109  1.0
  C  C69  1  0.94429303  0.33425528  0.38919424  1.0
  C  C70  1  0.09946597  0.60036520  0.59567812  1.0
  C  C71  1  0.15027216  0.64987243  0.65432396  1.0
  C  C72  1  0.14296361  0.64314714  0.58282406  1.0
  C  C73  1  0.10679841  0.60706600  0.66718648  1.0
  C  C74  1  0.16722712  0.66683034  0.61194657  1.0
  C  C75  1  0.08251443  0.58339450  0.63805833  1.0
  C  C76  1  0.30465131  0.45432383  0.40076926  1.0
  C  C77  1  0.44530244  0.29509116  0.34928885  1.0
  C  C78  1  0.25831531  0.41543479  0.41385761  1.0
  C  C79  1  0.49167266  0.33388355  0.33606813  1.0
  C  C80  1  0.37719815  0.33918885  0.37294037  1.0
  C  C81  1  0.37291853  0.41019863  0.37720067  1.0
  C  C82  1  0.72589714  0.57589934  0.63030241  1.0
  C  C83  1  0.52455978  0.67355887  0.62003668  1.0
  C  C84  1  0.74313967  0.58505769  0.58771429  1.0
  C  C85  1  0.50735530  0.66469634  0.66265487  1.0
  C  C86  1  0.60445783  0.64103621  0.60832563  1.0
  C  C87  1  0.64601016  0.60828079  0.64200550  1.0
  C  C88  1  0.07674279  0.22541770  0.62943159  1.0
  C  C89  1  0.17392877  0.02399621  0.62033210  1.0
  C  C90  1  0.08633100  0.24212856  0.58677140  1.0
  C  C91  1  0.16403636  0.00734099  0.66295693  1.0
  C  C92  1  0.14199399  0.10369592  0.60819828  1.0
  C  C93  1  0.10879982  0.14571278  0.64157069  1.0
  C  C94  1  0.84199137  0.80119273  0.39734371  1.0
  C  C95  1  0.90609031  0.94831195  0.35305977  1.0
  C  C96  1  0.91045129  0.75833831  0.41405754  1.0
  C  C97  1  0.83765130  0.99112600  0.33624958  1.0
  C  C98  1  0.90758078  0.87883666  0.37524190  1.0
  C  C99  1  0.84070951  0.87045355  0.37498573  1.0
  C  C100  1  0.65512697  0.15310523  0.15040862  1.0
  C  C101  1  0.59525241  0.09652668  0.09964633  1.0
  C  C102  1  0.66762038  0.16674874  0.10721870  1.0
  C  C103  1  0.58272080  0.08293210  0.14283865  1.0
  C  C104  1  0.63794485  0.13861265  0.08297511  1.0
  C  C105  1  0.61242142  0.11103091  0.16708119  1.0
  C  C106  1  0.67403035  0.52452310  0.12055940  1.0
  C  C107  1  0.57541977  0.72583830  0.12987280  1.0
  C  C108  1  0.66460102  0.50769076  0.16321442  1.0
  C  C109  1  0.58505821  0.74270737  0.08724379  1.0
  C  C110  1  0.60797593  0.64612078  0.14191157  1.0
  C  C111  1  0.64148448  0.60425612  0.10849686  1.0
  C  C112  1  0.08208817  0.12396929  0.17773635  1.0
  C  C113  1  0.16740843  0.12640395  0.07190354  1.0
  C  C114  1  0.00967524  0.16299680  0.16494727  1.0
  C  C115  1  0.23988274  0.08738609  0.08455139  1.0
  C  C116  1  0.10997202  0.13975548  0.10602427  1.0
  C  C117  1  0.13965618  0.11072748  0.14365525  1.0
  C  C118  1  0.34394338  0.85177869  0.84753131  1.0
  C  C119  1  0.40726893  0.89685087  0.90222545  1.0
  C  C120  1  0.30345269  0.92267690  0.86280812  1.0
  C  C121  1  0.44764904  0.82584520  0.88706065  1.0
  C  C122  1  0.33533229  0.94366893  0.88946859  1.0
  C  C123  1  0.41579853  0.80487068  0.86037177  1.0
  C  C124  1  0.40855848  0.44857390  0.85279930  1.0
  C  C125  1  0.34353367  0.30187962  0.89677083  1.0
  C  C126  1  0.34026606  0.49181721  0.83598090  1.0
  C  C127  1  0.41181559  0.25862354  0.91366212  1.0
  C  C128  1  0.34250106  0.37125377  0.87461087  1.0
  C  C129  1  0.40952534  0.37926636  0.87501989  1.0
  C  C130  1  0.94471121  0.79544364  0.84936105  1.0
  C  C131  1  0.80494517  0.95535232  0.90062870  1.0
  C  C132  1  0.99114924  0.83411397  0.83601188  1.0
  C  C133  1  0.75839104  0.91685598  0.91407296  1.0
  C  C134  1  0.87278352  0.91088591  0.87694263  1.0
  C  C135  1  0.87666176  0.83989188  0.87294206  1.0
  S  S136  1  0.29836199  0.32533637  0.39755577  1.0
  S  S137  1  0.45179621  0.42394340  0.35248355  1.0
  S  S138  1  0.66206134  0.63285134  0.56212990  1.0
  S  S139  1  0.58845841  0.61679572  0.68820184  1.0
  S  S140  1  0.13449580  0.16065082  0.56176088  1.0
  S  S141  1  0.11601936  0.08875666  0.68800849  1.0
  S  S142  1  0.97284032  0.80247499  0.40248247  1.0
  S  S143  1  0.77552214  0.94671783  0.34765306  1.0
  S  S144  1  0.61576686  0.58901469  0.18830050  1.0
  S  S145  1  0.63393511  0.66142890  0.06211280  1.0
  S  S146  1  0.01197670  0.18347342  0.11163171  1.0
  S  S147  1  0.23770476  0.06708437  0.13791622  1.0
  S  S148  1  0.27759942  0.44795378  0.84731587  1.0
  S  S149  1  0.47430685  0.30269013  0.90244554  1.0
  S  S150  1  0.95163787  0.92436141  0.85205384  1.0
  S  S151  1  0.79768163  0.82663684  0.89790696  1.0
  Br  Br152  1  0.75600045  0.54592197  0.40068039  1.0
  Br  Br153  1  0.99331388  0.20583678  0.34913998  1.0
  Br  Br154  1  0.17339495  0.67221714  0.52721372  1.0
  Br  Br155  1  0.07671187  0.57756486  0.72279090  1.0
  Br  Br156  1  0.72315229  0.22247811  0.07767280  1.0
  Br  Br157  1  0.52676323  0.02765249  0.17241248  1.0
  Br  Br158  1  0.20560295  0.99572447  0.84971139  1.0
  Br  Br159  1  0.54558181  0.75292435  0.90010194  1.0
  O  O160  1  0.00081304  0.49859684  0.50012430  1.0
  O  O161  1  0.07813642  0.31491538  0.52263023  1.0
  O  O162  1  0.03379191  0.53058334  0.58554049  1.0
  O  O163  1  0.15475864  0.50663190  0.44898916  1.0
  O  O164  1  0.02716797  0.37475091  0.58062937  1.0
  O  O165  1  0.15414347  0.39157200  0.44673992  1.0
  O  O166  1  0.08146148  0.58838607  0.52951366  1.0
  O  O167  1  0.00320607  0.65709730  0.44895659  1.0
  O  O168  1  0.88812018  0.49495312  0.44429567  1.0
  O  O169  1  0.88893998  0.65325611  0.44820110  1.0
  O  O170  1  0.99684904  0.38638435  0.44081323  1.0
  O  O171  1  0.87641704  0.52646351  0.58156450  1.0
  O  O172  1  0.81540107  0.57738812  0.52386451  1.0
  O  O173  1  0.74866534  0.25065746  0.25043275  1.0
  O  O174  1  0.59561869  0.35792964  0.30326575  1.0
  O  O175  1  0.66567632  0.16233955  0.21847291  1.0
  O  O176  1  0.72672435  0.37517043  0.16936333  1.0
  O  O177  1  0.59467638  0.24339325  0.29994741  1.0
  O  O178  1  0.67192742  0.43463025  0.22728346  1.0
  O  O179  1  0.72220229  0.21792545  0.16563874  1.0
  O  O180  1  0.87758818  0.22420102  0.16934230  1.0
  O  O181  1  0.85969045  0.25484312  0.30729883  1.0
  O  O182  1  0.93416096  0.17164371  0.22838539  1.0
  O  O183  1  0.75260211  0.36513873  0.30872762  1.0
  O  O184  1  0.74637686  0.09149708  0.29956136  1.0
  O  O185  1  0.85880255  0.09679341  0.30339202  1.0
  O  O186  1  0.25045069  0.75012436  0.74984306  1.0
  O  O187  1  0.37430706  0.72340427  0.66862194  1.0
  O  O188  1  0.36352318  0.75705068  0.80708134  1.0
  O  O189  1  0.17033854  0.93472835  0.72693619  1.0
  O  O190  1  0.43473407  0.67438706  0.72661303  1.0
  O  O191  1  0.22304744  0.87454060  0.66915622  1.0
  O  O192  1  0.25088884  0.86171881  0.80797489  1.0
  O  O193  1  0.09406184  0.85873430  0.80227006  1.0
  O  O194  1  0.16756634  0.66259233  0.72046727  1.0
  O  O195  1  0.09521202  0.74259421  0.80103097  1.0
  O  O196  1  0.21711978  0.71857083  0.66439326  1.0
  O  O197  1  0.36075492  0.59835422  0.80281154  1.0
  O  O198  1  0.24782707  0.59258572  0.80080724  1.0
  O  O199  1  0.49998790  0.00058775  0.99957845  1.0
  O  O200  1  0.50289465  0.15851142  0.95037070  1.0
  O  O201  1  0.38901328  0.99341821  0.94091712  1.0
  O  O202  1  0.65548457  0.89227142  0.94754435  1.0
  O  O203  1  0.39138889  0.15185878  0.94585718  1.0
  O  O204  1  0.65519435  0.00757295  0.95019425  1.0
  O  O205  1  0.49920636  0.88615906  0.94290757  1.0
  O  O206  1  0.58020350  0.81555523  0.02334974  1.0
  O  O207  1  0.52809907  0.03175704  0.08442125  1.0
  O  O208  1  0.52243380  0.87540938  0.08088630  1.0
  O  O209  1  0.58425763  0.08770001  0.03159096  1.0
  O  O210  1  0.31559056  0.07631685  0.02094276  1.0
  O  O211  1  0.37180331  0.02687462  0.08025576  1.0
  O  O212  1  0.28582260  0.52500747  0.40978037  1.0
  O  O213  1  0.46388064  0.22441713  0.34034876  1.0
  O  O214  1  0.77954064  0.54045679  0.65647094  1.0
  O  O215  1  0.47104350  0.70894281  0.59378831  1.0
  O  O216  1  0.04109456  0.27923952  0.65535174  1.0
  O  O217  1  0.20952211  0.97006241  0.59448592  1.0
  O  O218  1  0.78496902  0.77846393  0.40216017  1.0
  O  O219  1  0.96306933  0.97105115  0.34841301  1.0
  O  O220  1  0.70979693  0.47086304  0.09455041  1.0
  O  O221  1  0.53959411  0.77957814  0.15583129  1.0
  O  O222  1  0.09437993  0.10220276  0.21766798  1.0
  O  O223  1  0.15476383  0.14819976  0.03202671  1.0
  O  O224  1  0.46567774  0.47114120  0.84814052  1.0
  O  O225  1  0.28634054  0.27944590  0.90135629  1.0
  O  O226  1  0.96346675  0.72470182  0.84047110  1.0
  O  O227  1  0.78668716  0.02600245  0.90947669  1.0
