# generated using pymatgen
data_Al4H19C32O24F
_symmetry_space_group_name_H-M   'P 1'
_cell_length_a   6.72587180
_cell_length_b   14.07192718
_cell_length_c   15.97368200
_cell_angle_alpha   89.08461502
_cell_angle_beta   89.29819775
_cell_angle_gamma   88.28178597
_symmetry_Int_Tables_number   1
_chemical_formula_structural   Al4H19C32O24F
_chemical_formula_sum   'Al4 H19 C32 O24 F1'
_cell_volume   1510.86736989
_cell_formula_units_Z   1
loop_
 _symmetry_equiv_pos_site_id
 _symmetry_equiv_pos_as_xyz
  1  'x, y, z'
loop_
 _atom_site_type_symbol
 _atom_site_label
 _atom_site_symmetry_multiplicity
 _atom_site_fract_x
 _atom_site_fract_y
 _atom_site_fract_z
 _atom_site_occupancy
  Al  Al0  1  0.90443826  0.50094172  0.50006623  1.0
  Al  Al1  1  0.40401663  0.50190306  0.49854408  1.0
  Al  Al2  1  0.36362731  0.00593425  0.00055782  1.0
  Al  Al3  1  0.86637585  0.00268298  0.99957994  1.0
  H  H4  1  0.43539158  0.79687532  0.81611979  1.0
  H  H5  1  0.97897708  0.80099979  0.80002187  1.0
  H  H6  1  0.44458907  0.68182971  0.70105954  1.0
  H  H7  1  0.98714294  0.70331445  0.69775082  1.0
  H  H8  1  0.83581485  0.78069558  0.16426676  1.0
  H  H9  1  0.84534616  0.65804802  0.28040080  1.0
  H  H10  1  0.43225938  0.74284980  0.34459755  1.0
  H  H11  1  0.42298807  0.86507631  0.22817520  1.0
  H  H12  1  0.91828203  0.36575541  0.74359058  1.0
  H  H13  1  0.34099380  0.15258435  0.76554092  1.0
  H  H14  1  0.36689707  0.27022448  0.64590393  1.0
  H  H15  1  0.31501151  0.19352469  0.21271441  1.0
  H  H16  1  0.34144410  0.31204918  0.32445421  1.0
  H  H17  1  0.93488474  0.27606238  0.00568058  1.0
  H  H18  1  0.20295565  0.18259360  0.08765979  1.0
  H  H19  1  0.64968374  0.62325273  0.47448495  1.0
  H  H20  1  0.15973775  0.38376767  0.46539749  1.0
  H  H21  1  0.61529545  0.88222310  0.98512212  1.0
  H  H22  1  0.11261620  0.11539354  0.95026505  1.0
  C  C23  1  0.66139291  0.38820747  0.61272584  1.0
  C  C24  1  0.65930003  0.39070577  0.38439411  1.0
  C  C25  1  0.14267103  0.62113950  0.38841594  1.0
  C  C26  1  0.15138508  0.61050640  0.61286861  1.0
  C  C27  1  0.29338526  0.77709606  0.78986418  1.0
  C  C28  1  0.12594843  0.81685669  0.82323515  1.0
  C  C29  1  0.29907631  0.70986294  0.72173698  1.0
  C  C30  1  0.13807363  0.67882312  0.68186237  1.0
  C  C31  1  0.96513910  0.77180606  0.20437680  1.0
  C  C32  1  0.97039064  0.70408700  0.26867354  1.0
  C  C33  1  0.13926519  0.69352491  0.31909291  1.0
  C  C34  1  0.30271103  0.75146621  0.30459609  1.0
  C  C35  1  0.29780914  0.81916039  0.24019822  1.0
  C  C36  1  0.12896816  0.82944259  0.18982191  1.0
  C  C37  1  0.79194427  0.31921804  0.74897035  1.0
  C  C38  1  0.77193439  0.25777602  0.81779093  1.0
  C  C39  1  0.61180332  0.19524994  0.82152158  1.0
  C  C40  1  0.46559908  0.19998409  0.76004948  1.0
  C  C41  1  0.48090869  0.26447663  0.69370193  1.0
  C  C42  1  0.64636319  0.32244236  0.68677578  1.0
  C  C43  1  0.82448337  0.28782191  0.26904857  1.0
  C  C44  1  0.81210715  0.22319658  0.20404482  1.0
  C  C45  1  0.62435236  0.19240104  0.18049452  1.0
  C  C46  1  0.45677742  0.22373014  0.22558746  1.0
  C  C47  1  0.47299555  0.28760486  0.29002413  1.0
  C  C48  1  0.65707442  0.32250672  0.31319722  1.0
  C  C49  1  0.61023848  0.12470030  0.10962674  1.0
  C  C50  1  0.60637382  0.11903814  0.88709274  1.0
  C  C51  1  0.12341652  0.88422168  0.89282566  1.0
  C  C52  1  0.12531213  0.89960835  0.11905736  1.0
  C  C53  1  0.91947469  0.25837792  0.88749134  1.0
  C  C54  1  0.99975512  0.17691085  0.17117936  1.0
  O  O55  1  0.48891523  0.42557358  0.40502359  1.0
  O  O56  1  0.83072421  0.42091481  0.59357387  1.0
  O  O57  1  0.98638521  0.59203037  0.57880161  1.0
  O  O58  1  0.82370898  0.40695894  0.41930169  1.0
  O  O59  1  0.97638911  0.58553184  0.40885732  1.0
  O  O60  1  0.50065063  0.40522149  0.57326157  1.0
  O  O61  1  0.65121683  0.55956353  0.49844192  1.0
  O  O62  1  0.31014940  0.60122537  0.42229609  1.0
  O  O63  1  0.32193402  0.57613558  0.59203859  1.0
  O  O64  1  0.15770591  0.44251866  0.49632521  1.0
  O  O65  1  0.77476407  0.09214104  0.91631877  1.0
  O  O66  1  0.44073714  0.10872281  0.07787374  1.0
  O  O67  1  0.29038327  0.93465424  0.09670086  1.0
  O  O68  1  0.43896228  0.08556999  0.90768732  1.0
  O  O69  1  0.28778130  0.90627252  0.92564709  1.0
  O  O70  1  0.77434876  0.08793317  0.08473511  1.0
  O  O71  1  0.61650757  0.94743943  0.00361024  1.0
  O  O72  1  0.94955000  0.91495364  0.91490968  1.0
  O  O73  1  0.95832448  0.91746133  0.08450701  1.0
  O  O74  1  0.11162550  0.06439230  0.99277628  1.0
  O  O75  1  0.09694821  0.23753014  0.87922240  1.0
  O  O76  1  0.83568021  0.28613177  0.96071861  1.0
  O  O77  1  0.07662366  0.10892996  0.20810156  1.0
  O  O78  1  0.08258393  0.22171192  0.10441978  1.0
  F  F79  1  0.00918360  0.31644156  0.28873515  1.0
