# generated using pymatgen
data_CuSiH12C20(N4F5)2
_symmetry_space_group_name_H-M   'P 1'
_cell_length_a   8.20896386
_cell_length_b   13.25612633
_cell_length_c   13.26063311
_cell_angle_alpha   88.55613072
_cell_angle_beta   80.90185802
_cell_angle_gamma   80.87497808
_symmetry_Int_Tables_number   1
_chemical_formula_structural   CuSiH12C20(N4F5)2
_chemical_formula_sum   'Cu1 Si1 H12 C20 N8 F10'
_cell_volume   1406.82299720
_cell_formula_units_Z   1
loop_
 _symmetry_equiv_pos_site_id
 _symmetry_equiv_pos_as_xyz
  1  'x, y, z'
loop_
 _atom_site_type_symbol
 _atom_site_label
 _atom_site_symmetry_multiplicity
 _atom_site_fract_x
 _atom_site_fract_y
 _atom_site_fract_z
 _atom_site_occupancy
  Cu  Cu0  1  0.49998099  0.50026557  0.49973202  1.0
  Si  Si1  1  0.00006282  0.49918746  0.50086197  1.0
  H  H2  1  0.24938196  0.56739881  0.37119876  1.0
  H  H3  1  0.20851904  0.57542693  0.18983879  1.0
  H  H4  1  0.73261360  0.45085510  0.10798739  1.0
  H  H5  1  0.26769667  0.55270221  0.89108113  1.0
  H  H6  1  0.78857155  0.42052189  0.81046296  1.0
  H  H7  1  0.74860152  0.42914564  0.62887712  1.0
  H  H8  1  0.25147933  0.37123355  0.57124902  1.0
  H  H9  1  0.21166338  0.18960740  0.58006644  1.0
  H  H10  1  0.73180642  0.10896023  0.44649146  1.0
  H  H11  1  0.26773593  0.89192294  0.54985125  1.0
  H  H12  1  0.79129521  0.81005593  0.42413489  1.0
  H  H13  1  0.75060346  0.62861441  0.43229763  1.0
  C  C14  1  0.35392195  0.54273792  0.31135349  1.0
  C  C15  1  0.33126620  0.54712338  0.20963114  1.0
  C  C16  1  0.46719803  0.51306051  0.13445879  1.0
  C  C17  1  0.62266974  0.47708719  0.16361249  1.0
  C  C18  1  0.63202956  0.47608194  0.26704066  1.0
  C  C19  1  0.37713240  0.52478728  0.83574455  1.0
  C  C20  1  0.53134130  0.48626760  0.86528904  1.0
  C  C21  1  0.66659750  0.45037036  0.79037835  1.0
  C  C22  1  0.64453171  0.45517041  0.68857020  1.0
  C  C23  1  0.36854277  0.52664656  0.73221165  1.0
  C  C24  1  0.35547411  0.31154831  0.54496670  1.0
  C  C25  1  0.33347350  0.20969724  0.54988293  1.0
  C  C26  1  0.46857883  0.13475966  0.51368800  1.0
  C  C27  1  0.62251619  0.16433771  0.47466591  1.0
  C  C28  1  0.63101507  0.26790940  0.47265856  1.0
  C  C29  1  0.37758796  0.83629070  0.52334642  1.0
  C  C30  1  0.53284975  0.86546904  0.48698134  1.0
  C  C31  1  0.66867768  0.79025858  0.45268583  1.0
  C  C32  1  0.64613808  0.68849002  0.45715701  1.0
  C  C33  1  0.36832913  0.73282065  0.52449364  1.0
  N  N34  1  0.50257168  0.50620370  0.34089508  1.0
  N  N35  1  0.43708393  0.51852302  0.03186733  1.0
  N  N36  1  0.56115855  0.48049216  0.96793448  1.0
  N  N37  1  0.49723570  0.49429060  0.65863240  1.0
  N  N38  1  0.50252818  0.34151044  0.50541734  1.0
  N  N39  1  0.43888449  0.03206131  0.51966801  1.0
  N  N40  1  0.56281572  0.96810915  0.48139757  1.0
  N  N41  1  0.49767137  0.65894109  0.49406215  1.0
  F  F42  1  0.20493059  0.51300857  0.51420193  1.0
  F  F43  1  0.79521642  0.48556619  0.48728528  1.0
  F  F44  1  0.99989546  0.59237734  0.40731274  1.0
  F  F45  1  0.00022281  0.40606699  0.59439048  1.0
  F  F46  1  0.07882320  0.40872848  0.41079056  1.0
  F  F47  1  0.92129899  0.58967469  0.59091751  1.0
  F  F48  1  0.77958751  0.44325360  0.29616236  1.0
  F  F49  1  0.22260511  0.56320622  0.70269785  1.0
  F  F50  1  0.77666034  0.29743468  0.43547358  1.0
  F  F51  1  0.22101444  0.70367414  0.55788052  1.0
