# generated using pymatgen
data_ZnH14C13NO4
_symmetry_space_group_name_H-M   'P 1'
_cell_length_a   9.72164306
_cell_length_b   11.02112762
_cell_length_c   11.08012117
_cell_angle_alpha   87.83289856
_cell_angle_beta   69.25316031
_cell_angle_gamma   87.09384490
_symmetry_Int_Tables_number   1
_chemical_formula_structural   ZnH14C13NO4
_chemical_formula_sum   'Zn2 H28 C26 N2 O8'
_cell_volume   1108.50242148
_cell_formula_units_Z   2
loop_
 _symmetry_equiv_pos_site_id
 _symmetry_equiv_pos_as_xyz
  1  'x, y, z'
loop_
 _atom_site_type_symbol
 _atom_site_label
 _atom_site_symmetry_multiplicity
 _atom_site_fract_x
 _atom_site_fract_y
 _atom_site_fract_z
 _atom_site_occupancy
  Zn  Zn0  1  0.34663664  0.50275868  0.51826226  1.0
  Zn  Zn1  1  0.65219302  0.48820488  0.48012963  1.0
  H  H2  1  0.61505057  0.50040021  0.85738780  1.0
  H  H3  1  0.16540019  0.46324306  0.92486877  1.0
  H  H4  1  0.22266314  0.42110620  0.05605984  1.0
  H  H5  1  0.72087814  0.70534497  0.98065942  1.0
  H  H6  1  0.77629784  0.68379909  0.11694752  1.0
  H  H7  1  0.90922927  0.67028965  0.95876997  1.0
  H  H8  1  0.84262172  0.46459100  0.06129994  1.0
  H  H9  1  0.78918386  0.48453719  0.92435471  1.0
  H  H10  1  0.92712804  0.83975350  0.58213861  1.0
  H  H11  1  0.83276773  0.77129036  0.73559633  1.0
  H  H12  1  0.97752086  0.86993151  0.71665211  1.0
  H  H13  1  0.38910462  0.46898339  0.13826295  1.0
  H  H14  1  0.06919782  0.65370609  0.72422059  1.0
  H  H15  1  0.16494248  0.72635306  0.57846420  1.0
  H  H16  1  0.07628924  0.15934531  0.43717066  1.0
  H  H17  1  0.88799870  0.17771194  0.53577240  1.0
  H  H18  1  0.93836965  0.09854600  0.38851180  1.0
  H  H19  1  0.84124796  0.30437353  0.35580059  1.0
  H  H20  1  0.03226442  0.29366704  0.26487129  1.0
  H  H21  1  0.68955298  0.87296964  0.55118924  1.0
  H  H22  1  0.29948978  0.11798215  0.44929023  1.0
  H  H23  1  0.79828424  0.64376657  0.58739756  1.0
  H  H24  1  0.20377629  0.35300018  0.40329055  1.0
  H  H25  1  0.67135391  0.09962446  0.57271745  1.0
  H  H26  1  0.31724695  0.89126826  0.42764404  1.0
  H  H27  1  0.23429180  0.64273160  0.10103195  1.0
  H  H28  1  0.17466013  0.68465096  0.97074982  1.0
  H  H29  1  0.05479572  0.60658026  0.10836674  1.0
  C  C30  1  0.47949879  0.25789061  0.51880689  1.0
  C  C31  1  0.38982339  0.49620526  0.89130463  1.0
  C  C32  1  0.49692092  0.48257417  0.06419283  1.0
  C  C33  1  0.50656831  0.49315849  0.93231535  1.0
  C  C34  1  0.59494608  0.05305704  0.54039201  1.0
  C  C35  1  0.39407393  0.93772921  0.45982010  1.0
  C  C36  1  0.60485980  0.92751484  0.52856937  1.0
  C  C37  1  0.38440622  0.06343335  0.47163112  1.0
  C  C38  1  0.50471480  0.86887845  0.48794777  1.0
  C  C39  1  0.48526041  0.12212962  0.51129921  1.0
  C  C40  1  0.23187711  0.49121833  0.98033168  1.0
  C  C41  1  0.51383383  0.73327178  0.47873235  1.0
  C  C42  1  0.17007824  0.61340262  0.04406551  1.0
  C  C43  1  0.76653053  0.51571563  0.02286570  1.0
  C  C44  1  0.79512018  0.65199069  0.01936052  1.0
  C  C45  1  0.05536149  0.69354303  0.63610981  1.0
  C  C46  1  0.94106606  0.79881334  0.66937926  1.0
  C  C47  1  0.95050329  0.29505627  0.36370171  1.0
  C  C48  1  0.96459477  0.17558646  0.43536257  1.0
  C  C49  1  0.57758068  0.48121862  0.24974925  1.0
  C  C50  1  0.42267742  0.50735406  0.74885713  1.0
  C  C51  1  0.89033950  0.57887176  0.54825805  1.0
  C  C52  1  0.11111858  0.41698347  0.44512083  1.0
  C  C53  1  0.02522143  0.59197168  0.56377994  1.0
  C  C54  1  0.97504286  0.40276464  0.43129599  1.0
  C  C55  1  0.61128563  0.48994682  0.10706595  1.0
  N  N56  1  0.13504698  0.50826996  0.51026856  1.0
  N  N57  1  0.86569328  0.48587378  0.48414148  1.0
  O  O58  1  0.35620123  0.31364287  0.53714592  1.0
  O  O59  1  0.63455081  0.67854791  0.47194737  1.0
  O  O60  1  0.60066469  0.30668110  0.50450770  1.0
  O  O61  1  0.39802422  0.68273257  0.47988650  1.0
  O  O62  1  0.44363585  0.47210026  0.32313755  1.0
  O  O63  1  0.55769870  0.50592834  0.67554676  1.0
  O  O64  1  0.68675811  0.48465588  0.28852160  1.0
  O  O65  1  0.31335236  0.51648653  0.70967440  1.0
