# generated using pymatgen
data_CuH13C16NO4
_symmetry_space_group_name_H-M   'P 1'
_cell_length_a   9.87701139
_cell_length_b   24.15535434
_cell_length_c   24.15398775
_cell_angle_alpha   118.17208310
_cell_angle_beta   97.83128450
_cell_angle_gamma   97.83657119
_symmetry_Int_Tables_number   1
_chemical_formula_structural   CuH13C16NO4
_chemical_formula_sum   'Cu6 H78 C96 N6 O24'
_cell_volume   4897.98463643
_cell_formula_units_Z   6
loop_
 _symmetry_equiv_pos_site_id
 _symmetry_equiv_pos_as_xyz
  1  'x, y, z'
loop_
 _atom_site_type_symbol
 _atom_site_label
 _atom_site_symmetry_multiplicity
 _atom_site_fract_x
 _atom_site_fract_y
 _atom_site_fract_z
 _atom_site_occupancy
  Cu  Cu0  1  0.08142628  0.55359744  0.51455600  1.0
  Cu  Cu1  1  0.52782422  0.96096096  0.44640108  1.0
  Cu  Cu2  1  0.56682679  0.48542978  0.03903945  1.0
  Cu  Cu3  1  0.91856762  0.44640078  0.48544029  1.0
  Cu  Cu4  1  0.47217612  0.03904402  0.55359917  1.0
  Cu  Cu5  1  0.43317366  0.51457134  0.96096478  1.0
  H  H6  1  0.21693135  0.32430772  0.44595484  1.0
  H  H7  1  0.89259218  0.12160386  0.67567508  1.0
  H  H8  1  0.77098917  0.55408614  0.87840045  1.0
  H  H9  1  0.78306440  0.67568809  0.55404166  1.0
  H  H10  1  0.10740972  0.87840015  0.32432398  1.0
  H  H11  1  0.22900773  0.44591401  0.12160727  1.0
  H  H12  1  0.42159004  0.27366985  0.42256081  1.0
  H  H13  1  0.14787190  0.14885084  0.72631124  1.0
  H  H14  1  0.99903915  0.57742225  0.85112459  1.0
  H  H15  1  0.57840920  0.72632886  0.57743849  1.0
  H  H16  1  0.85212934  0.85114980  0.27368866  1.0
  H  H17  1  0.00095259  0.42257983  0.14888044  1.0
  H  H18  1  0.62064729  0.42883984  0.39932960  1.0
  H  H19  1  0.19178294  0.97047538  0.57114222  1.0
  H  H20  1  0.22133196  0.60065990  0.02951986  1.0
  H  H21  1  0.37934685  0.57115887  0.60066900  1.0
  H  H22  1  0.80821518  0.02952718  0.42885470  1.0
  H  H23  1  0.77867175  0.39934363  0.97048404  1.0
  H  H24  1  0.41866483  0.48069516  0.42560281  1.0
  H  H25  1  0.93793405  0.94488204  0.51926801  1.0
  H  H26  1  0.99308238  0.57438203  0.05510796  1.0
  H  H27  1  0.58132576  0.51930257  0.57439472  1.0
  H  H28  1  0.06206401  0.05512245  0.48072816  1.0
  H  H29  1  0.00692780  0.42561812  0.94489719  1.0
  H  H30  1  0.63054102  0.26760421  0.38314403  1.0
  H  H31  1  0.36291245  0.11550374  0.73239538  1.0
  H  H32  1  0.24740457  0.61685103  0.88446790  1.0
  H  H33  1  0.36946328  0.73239643  0.61685440  1.0
  H  H34  1  0.63708427  0.88449400  0.26760416  1.0
  H  H35  1  0.75258464  0.38315008  0.11553198  1.0
  H  H36  1  0.70602489  0.32443606  0.36205325  1.0
  H  H37  1  0.38158570  0.03759222  0.67556562  1.0
  H  H38  1  0.34398202  0.63794457  0.96238731  1.0
  H  H39  1  0.29397172  0.67556554  0.63794561  1.0
  H  H40  1  0.61840543  0.96240455  0.32443149  1.0
  H  H41  1  0.65601580  0.36205944  0.03761235  1.0
  H  H42  1  0.72720726  0.36702955  0.49795501  1.0
  H  H43  1  0.36009412  0.13088905  0.63296721  1.0
  H  H44  1  0.22925725  0.50204911  0.86909480  1.0
  H  H45  1  0.27279368  0.63297253  0.50204432  1.0
  H  H46  1  0.63991674  0.86911448  0.36703626  1.0
  H  H47  1  0.77073774  0.49795538  0.13090617  1.0
  H  H48  1  0.91324498  0.29410651  0.42113784  1.0
  H  H49  1  0.61907275  0.12705328  0.70590922  1.0
  H  H50  1  0.49209683  0.57886836  0.87296991  1.0
  H  H51  1  0.08675771  0.70589702  0.57885979  1.0
  H  H52  1  0.38092481  0.87294204  0.29409585  1.0
  H  H53  1  0.50789924  0.42113420  0.12702937  1.0
  H  H54  1  0.95418752  0.34156275  0.50602461  1.0
  H  H55  1  0.61257050  0.16444132  0.65841653  1.0
  H  H56  1  0.44815696  0.49397963  0.83553826  1.0
  H  H57  1  0.04581769  0.65844174  0.49397321  1.0
  H  H58  1  0.38744401  0.83555932  0.34159364  1.0
  H  H59  1  0.55183989  0.50602245  0.16446415  1.0
  H  H60  1  0.75910317  0.31654882  0.56275064  1.0
  H  H61  1  0.44249894  0.24623160  0.68342338  1.0
  H  H62  1  0.19634768  0.43725493  0.75381387  1.0
  H  H63  1  0.24090438  0.68345423  0.43724703  1.0
  H  H64  1  0.55750847  0.75376711  0.31658341  1.0
  H  H65  1  0.80365157  0.56274377  0.24618543  1.0
  H  H66  1  0.63412460  0.22547377  0.57209854  1.0
  H  H67  1  0.40856994  0.34663011  0.77451801  1.0
  H  H68  1  0.06200225  0.42791591  0.65341438  1.0
  H  H69  1  0.36588242  0.77453024  0.42789873  1.0
  H  H70  1  0.59144307  0.65336956  0.22548914  1.0
  H  H71  1  0.93799272  0.57208038  0.34658603  1.0
  H  H72  1  0.68603801  0.09042090  0.38538549  1.0
  H  H73  1  0.59558440  0.29497209  0.90956472  1.0
  H  H74  1  0.30061850  0.61461229  0.70502466  1.0
  H  H75  1  0.31396828  0.90958166  0.61461147  1.0
  H  H76  1  0.40442609  0.70502661  0.09044142  1.0
  H  H77  1  0.69936909  0.38538352  0.29497014  1.0
  H  H78  1  0.81026669  0.18123778  0.37529421  1.0
  H  H79  1  0.62898367  0.19409973  0.81874467  1.0
  H  H80  1  0.43497052  0.62469441  0.80591111  1.0
  H  H81  1  0.18974364  0.81876671  0.62470430  1.0
  H  H82  1  0.37101635  0.80589849  0.18126396  1.0
  H  H83  1  0.56502128  0.37530574  0.19408639  1.0
  C  C84  1  0.18916120  0.43899396  0.45675110  1.0
  C  C85  1  0.75013403  0.01773023  0.56099736  1.0
  C  C86  1  0.73243253  0.54329812  0.98230364  1.0
  C  C87  1  0.81083474  0.56100426  0.54324655  1.0
  C  C88  1  0.24986535  0.98227282  0.43900192  1.0
  C  C89  1  0.26756918  0.45670348  0.01770213  1.0
  C  C90  1  0.30592772  0.40576183  0.43746304  1.0
  C  C91  1  0.90011197  0.03165683  0.59423098  1.0
  C  C92  1  0.86849298  0.56258186  0.96835334  1.0
  C  C93  1  0.69406671  0.59423543  0.56253614  1.0
  C  C94  1  0.09988867  0.96834670  0.40576695  1.0
  C  C95  1  0.13150975  0.43741974  0.03165290  1.0
  C  C96  1  0.30601642  0.34693026  0.43578786  1.0
  C  C97  1  0.95903261  0.08880659  0.65306122  1.0
  C  C98  1  0.87024326  0.56424624  0.91118720  1.0
  C  C99  1  0.69398055  0.65306796  0.56421109  1.0
  C  C100  1  0.04096881  0.91119646  0.34693694  1.0
  C  C101  1  0.12975562  0.43575584  0.08881988  1.0
  C  C102  1  0.42049218  0.31885688  0.42258864  1.0
  C  C103  1  0.10159088  0.10368731  0.68113955  1.0
  C  C104  1  0.99791429  0.57741336  0.89628901  1.0
  C  C105  1  0.57950503  0.68114182  0.57741013  1.0
  C  C106  1  0.89840982  0.89631429  0.31885871  1.0
  C  C107  1  0.00208255  0.42258872  0.10371631  1.0
  C  C108  1  0.53503124  0.34815154  0.40953226  1.0
  C  C109  1  0.18682824  0.06134037  0.65184731  1.0
  C  C110  1  0.12550012  0.59046190  0.93863340  1.0
  C  C111  1  0.46496644  0.65184813  0.59046699  1.0
  C  C112  1  0.81316988  0.93866219  0.34815126  1.0
  C  C113  1  0.87449925  0.40954114  0.06137044  1.0
  C  C114  1  0.53182935  0.40583561  0.40919885  1.0
  C  C115  1  0.12595023  0.00333074  0.59415121  1.0
  C  C116  1  0.12264749  0.59078893  0.99665111  1.0
  C  C117  1  0.46816683  0.59416310  0.59080028  1.0
  C  C118  1  0.87404891  0.99667182  0.40584494  1.0
  C  C119  1  0.87735446  0.40921316  0.00335284  1.0
  C  C120  1  0.41931636  0.43480893  0.42375148  1.0
  C  C121  1  0.98445290  0.98890487  0.56517103  1.0
  C  C122  1  0.99558910  0.57625350  0.01108674  1.0
  C  C123  1  0.58067958  0.56518929  0.57624741  1.0
  C  C124  1  0.01554595  0.01109914  0.43482537  1.0
  C  C125  1  0.00441670  0.42374810  0.98891926  1.0
  C  C126  1  0.66197786  0.31949778  0.39935917  1.0
  C  C127  1  0.34244302  0.07982883  0.68049837  1.0
  C  C128  1  0.26263006  0.60064076  0.92014792  1.0
  C  C129  1  0.33802109  0.68050238  0.60063914  1.0
  C  C130  1  0.65755442  0.92017036  0.31950023  1.0
  C  C131  1  0.73736498  0.39936180  0.07985380  1.0
  C  C132  1  0.86724634  0.31083434  0.46355383  1.0
  C  C133  1  0.55634512  0.15272383  0.68916105  1.0
  C  C134  1  0.40369170  0.53645220  0.84728385  1.0
  C  C135  1  0.13275917  0.68916871  0.53644414  1.0
  C  C136  1  0.44366079  0.84727390  0.31084479  1.0
  C  C137  1  0.59630233  0.46355037  0.15271698  1.0
  C  C138  1  0.79341768  0.25494236  0.46835001  1.0
  C  C139  1  0.53838244  0.21341384  0.74503300  1.0
  C  C140  1  0.32503414  0.53166118  0.78660217  1.0
  C  C141  1  0.20659113  0.74506117  0.53164920  1.0
  C  C142  1  0.46161915  0.78658342  0.25497362  1.0
  C  C143  1  0.67495898  0.46833752  0.21339637  1.0
  C  C144  1  0.74239986  0.26688160  0.52349705  1.0
  C  C145  1  0.47542257  0.25661958  0.73309882  1.0
  C  C146  1  0.21885668  0.47652238  0.74340959  1.0
  C  C147  1  0.25760871  0.73312144  0.47650110  1.0
  C  C148  1  0.52458382  0.74337913  0.26690833  1.0
  C  C149  1  0.78114359  0.52347632  0.25659018  1.0
  C  C150  1  0.67260164  0.21640558  0.52910111  1.0
  C  C151  1  0.45607299  0.31269462  0.78358645  1.0
  C  C152  1  0.14342861  0.47092511  0.68733980  1.0
  C  C153  1  0.32740435  0.78359843  0.47089693  1.0
  C  C154  1  0.54393467  0.68730457  0.21642017  1.0
  C  C155  1  0.85656660  0.52907166  0.31265877  1.0
  C  C156  1  0.65316829  0.15244862  0.47942358  1.0
  C  C157  1  0.50056317  0.32696955  0.84754360  1.0
  C  C158  1  0.17363175  0.52059160  0.67304368  1.0
  C  C159  1  0.34683722  0.84755443  0.52057315  1.0
  C  C160  1  0.49944551  0.67302964  0.15246308  1.0
  C  C161  1  0.82635968  0.47940373  0.32695152  1.0
  C  C162  1  0.70216097  0.14016049  0.42386745  1.0
  C  C163  1  0.56188750  0.28370880  0.85982287  1.0
  C  C164  1  0.27822140  0.57613571  0.71629210  1.0
  C  C165  1  0.29784580  0.85984304  0.57613123  1.0
  C  C166  1  0.43812016  0.71629039  0.14018500  1.0
  C  C167  1  0.72176925  0.42386009  0.28370370  1.0
  C  C168  1  0.77139406  0.19107610  0.41850143  1.0
  C  C169  1  0.58022220  0.22744508  0.80890504  1.0
  C  C170  1  0.35285483  0.58149751  0.77256237  1.0
  C  C171  1  0.22861656  0.80892695  0.58149642  1.0
  C  C172  1  0.41978113  0.77255363  0.19110277  1.0
  C  C173  1  0.64713907  0.41850071  0.22743433  1.0
  C  C174  1  0.58769138  0.09761104  0.48710558  1.0
  C  C175  1  0.49001698  0.38949659  0.90239442  1.0
  C  C176  1  0.10047931  0.51288806  0.61051636  1.0
  C  C177  1  0.41231028  0.90239249  0.51289158  1.0
  C  C178  1  0.50998833  0.61050404  0.09761193  1.0
  C  C179  1  0.89951134  0.48710775  0.38948109  1.0
  N  N180  1  0.77455386  0.35293975  0.45979706  1.0
  N  N181  1  0.42156196  0.10683350  0.64705306  1.0
  N  N182  1  0.31476714  0.54020499  0.89315694  1.0
  N  N183  1  0.22544557  0.64706137  0.54020091  1.0
  N  N184  1  0.57844083  0.89316617  0.35294896  1.0
  N  N185  1  0.68522996  0.45979758  0.10684365  1.0
  O  O186  1  0.21472528  0.49929802  0.47603996  1.0
  O  O187  1  0.71538272  0.97672110  0.50069105  1.0
  O  O188  1  0.73868491  0.52401884  0.02333235  1.0
  O  O189  1  0.78527042  0.50069972  0.52395661  1.0
  O  O190  1  0.28461437  0.02328147  0.49930912  1.0
  O  O191  1  0.26131530  0.47598180  0.97667288  1.0
  O  O192  1  0.07486638  0.40494580  0.45393138  1.0
  O  O193  1  0.66990486  0.04897614  0.59504212  1.0
  O  O194  1  0.62097483  0.54611898  0.95107034  1.0
  O  O195  1  0.92512878  0.59505290  0.54606687  1.0
  O  O196  1  0.33009476  0.95102739  0.40495782  1.0
  O  O197  1  0.37902610  0.45388310  0.04893562  1.0
  O  O198  1  0.54255902  0.11138729  0.53804209  1.0
  O  O199  1  0.43130111  0.42670450  0.88862489  1.0
  O  O200  1  0.00442089  0.46195269  0.57335572  1.0
  O  O201  1  0.45744163  0.88861623  0.46195459  1.0
  O  O202  1  0.56870704  0.57329566  0.11137973  1.0
  O  O203  1  0.99556639  0.53804457  0.42664182  1.0
  O  O204  1  0.58609233  0.04101621  0.44236404  1.0
  O  O205  1  0.54491958  0.40132319  0.95899196  1.0
  O  O206  1  0.14361861  0.55761596  0.59864086  1.0
  O  O207  1  0.41390910  0.95898684  0.55763329  1.0
  O  O208  1  0.45508087  0.59867792  0.04101518  1.0
  O  O209  1  0.85637282  0.44237937  0.40135558  1.0
