# generated using pymatgen
data_ZnH11C17NO5
_symmetry_space_group_name_H-M   'P 1'
_cell_length_a   9.56319258
_cell_length_b   11.06358797
_cell_length_c   14.77906229
_cell_angle_alpha   86.81955450
_cell_angle_beta   78.71149439
_cell_angle_gamma   88.04832890
_symmetry_Int_Tables_number   1
_chemical_formula_structural   ZnH11C17NO5
_chemical_formula_sum   'Zn2 H22 C34 N2 O10'
_cell_volume   1530.62998803
_cell_formula_units_Z   2
loop_
 _symmetry_equiv_pos_site_id
 _symmetry_equiv_pos_as_xyz
  1  'x, y, z'
loop_
 _atom_site_type_symbol
 _atom_site_label
 _atom_site_symmetry_multiplicity
 _atom_site_fract_x
 _atom_site_fract_y
 _atom_site_fract_z
 _atom_site_occupancy
  Zn  Zn0  1  0.86311731  0.50625034  0.48788004  1.0
  Zn  Zn1  1  0.13796954  0.49851699  0.51243578  1.0
  H  H2  1  0.22824841  0.68002974  0.89293882  1.0
  H  H3  1  0.79791021  0.45052694  0.11779215  1.0
  H  H4  1  0.08232414  0.44981423  0.81364993  1.0
  H  H5  1  0.92625336  0.61326348  0.18932690  1.0
  H  H6  1  0.33881177  0.63244348  0.60214797  1.0
  H  H7  1  0.66242954  0.37100988  0.39728931  1.0
  H  H8  1  0.66694339  0.56290286  0.77122674  1.0
  H  H9  1  0.34085951  0.49834875  0.23137249  1.0
  H  H10  1  0.02596623  0.67100928  0.02414249  1.0
  H  H11  1  0.99291697  0.43474474  0.98434988  1.0
  H  H12  1  0.47926561  0.63624659  0.82697268  1.0
  H  H13  1  0.54609672  0.49030643  0.18329580  1.0
  H  H14  1  0.36391876  0.14358726  0.62803523  1.0
  H  H15  1  0.33479727  0.16887816  0.51202830  1.0
  H  H16  1  0.36520853  0.01745872  0.55635259  1.0
  H  H17  1  0.81292998  0.81477415  0.27720475  1.0
  H  H18  1  0.96793449  0.77641477  0.32369473  1.0
  H  H19  1  0.95946480  0.91673855  0.25712678  1.0
  H  H20  1  0.14986408  0.86994370  0.58230632  1.0
  H  H21  1  0.85236480  0.13555966  0.41284273  1.0
  H  H22  1  0.61106594  0.64021852  0.58629114  1.0
  H  H23  1  0.39067035  0.36577249  0.41119543  1.0
  C  C24  1  0.00324674  0.26564336  0.50460024  1.0
  C  C25  1  0.99967353  0.74031741  0.49285645  1.0
  C  C26  1  0.43947790  0.61524245  0.90021374  1.0
  C  C27  1  0.58330313  0.50281374  0.10894423  1.0
  C  C28  1  0.29913587  0.64025720  0.93673664  1.0
  C  C29  1  0.72425544  0.48047957  0.07276367  1.0
  C  C30  1  0.08882345  0.05376366  0.55120169  1.0
  C  C31  1  0.91638902  0.95255898  0.44211581  1.0
  C  C32  1  0.08626314  0.92887007  0.54368743  1.0
  C  C33  1  0.91836040  0.07741092  0.45019309  1.0
  C  C34  1  0.00087895  0.87587582  0.49061821  1.0
  C  C35  1  0.00367481  0.13024416  0.50345038  1.0
  C  C36  1  0.41259361  0.57479706  0.55662811  1.0
  C  C37  1  0.58887042  0.42948693  0.44226927  1.0
  C  C38  1  0.55995830  0.57915534  0.54804691  1.0
  C  C39  1  0.44159513  0.42582936  0.45034970  1.0
  C  C40  1  0.07405561  0.51975871  0.31870528  1.0
  C  C41  1  0.92779637  0.50654798  0.68130459  1.0
  C  C42  1  0.13053811  0.55143933  0.21868037  1.0
  C  C43  1  0.87718320  0.50751335  0.78374258  1.0
  C  C44  1  0.09513282  0.63243244  0.06943748  1.0
  C  C45  1  0.92193352  0.46466648  0.93762780  1.0
  C  C46  1  0.03944465  0.60066309  0.16064540  1.0
  C  C47  1  0.97184035  0.47274321  0.84349977  1.0
  C  C48  1  0.27521744  0.53550942  0.18370369  1.0
  C  C49  1  0.73621440  0.53841919  0.81997428  1.0
  C  C50  1  0.33499008  0.56429064  0.09031041  1.0
  C  C51  1  0.68278701  0.53443188  0.91613894  1.0
  C  C52  1  0.24192856  0.61336016  0.03192195  1.0
  C  C53  1  0.77770926  0.49352946  0.97583658  1.0
  C  C54  1  0.48483023  0.54377085  0.05199776  1.0
  C  C55  1  0.53558525  0.56459340  0.95572849  1.0
  C  C56  1  0.31634442  0.10700016  0.57393882  1.0
  C  C57  1  0.89768575  0.85146715  0.30713971  1.0
  N  N58  1  0.64625103  0.50624408  0.49110146  1.0
  N  N59  1  0.35523373  0.49820198  0.50773594  1.0
  O  O60  1  0.88915539  0.32188299  0.49205922  1.0
  O  O61  1  0.11511309  0.68462650  0.50277958  1.0
  O  O62  1  0.11655940  0.31496087  0.51549650  1.0
  O  O63  1  0.88405391  0.69069679  0.48664779  1.0
  O  O64  1  0.93896700  0.51852652  0.34650046  1.0
  O  O65  1  0.06242838  0.50239138  0.65131732  1.0
  O  O66  1  0.16616746  0.49841361  0.36975378  1.0
  O  O67  1  0.83309466  0.50853819  0.63130681  1.0
  O  O68  1  0.16669917  0.09860092  0.61075357  1.0
  O  O69  1  0.82774466  0.91148800  0.38806240  1.0
