# generated using pymatgen
data_ZnH16C23NO4
_symmetry_space_group_name_H-M   'P 1'
_cell_length_a   13.97407067
_cell_length_b   17.84733766
_cell_length_c   17.84731087
_cell_angle_alpha   104.81421231
_cell_angle_beta   92.08009918
_cell_angle_gamma   92.08008565
_symmetry_Int_Tables_number   1
_chemical_formula_structural   ZnH16C23NO4
_chemical_formula_sum   'Zn6 H96 C138 N6 O24'
_cell_volume   4295.54003074
_cell_formula_units_Z   6
loop_
 _symmetry_equiv_pos_site_id
 _symmetry_equiv_pos_as_xyz
  1  'x, y, z'
loop_
 _atom_site_type_symbol
 _atom_site_label
 _atom_site_symmetry_multiplicity
 _atom_site_fract_x
 _atom_site_fract_y
 _atom_site_fract_z
 _atom_site_occupancy
  Zn  Zn0  1  0.10139814  0.92033235  0.08859499  1.0
  Zn  Zn1  1  0.89860165  0.91140210  0.07966615  1.0
  Zn  Zn2  1  0.41599027  0.45741624  0.28965362  1.0
  Zn  Zn3  1  0.58400684  0.71034430  0.54258388  1.0
  Zn  Zn4  1  0.21161844  0.44651171  0.27712950  1.0
  Zn  Zn5  1  0.78837878  0.72287346  0.55349129  1.0
  H  H6  1  0.84689867  0.89712491  0.31660524  1.0
  H  H7  1  0.15310498  0.68339253  0.10286703  1.0
  H  H8  1  0.14878282  0.95595273  0.33397141  1.0
  H  H9  1  0.85121976  0.66602849  0.04404515  1.0
  H  H10  1  0.24267885  0.96448186  0.44874770  1.0
  H  H11  1  0.75732201  0.55125281  0.03551765  1.0
  H  H12  1  0.20053464  0.90733751  0.51064328  1.0
  H  H13  1  0.79946901  0.48935845  0.09266209  1.0
  H  H14  1  0.18168929  0.00764008  0.53416882  1.0
  H  H15  1  0.81830747  0.46582962  0.99235820  1.0
  H  H16  1  0.85332378  0.89099461  0.45541428  1.0
  H  H17  1  0.14667874  0.54458356  0.10899992  1.0
  H  H18  1  0.85005727  0.89507339  0.69098552  1.0
  H  H19  1  0.14994379  0.30901386  0.10492642  1.0
  H  H20  1  0.24264679  0.94853980  0.75713569  1.0
  H  H21  1  0.75735411  0.24286592  0.05145945  1.0
  H  H22  1  0.18257478  0.99878608  0.69630567  1.0
  H  H23  1  0.81742326  0.30369502  0.00121388  1.0
  H  H24  1  0.19819815  0.89893703  0.66143895  1.0
  H  H25  1  0.80180343  0.33856074  0.10106292  1.0
  H  H26  1  0.14750902  0.92709500  0.85954972  1.0
  H  H27  1  0.85249045  0.14045125  0.07290393  1.0
  H  H28  1  0.84217561  0.88976005  0.82955343  1.0
  H  H29  1  0.15782476  0.17044561  0.11023777  1.0
  H  H30  1  0.25032956  0.81463842  0.11354331  1.0
  H  H31  1  0.74967035  0.88645537  0.18535911  1.0
  H  H32  1  0.25628278  0.02635181  0.05940915  1.0
  H  H33  1  0.74371797  0.94058894  0.97364347  1.0
  H  H34  1  0.43587325  0.02917033  0.05266384  1.0
  H  H35  1  0.56412622  0.94733473  0.97082520  1.0
  H  H36  1  0.42952452  0.80962026  0.11375434  1.0
  H  H37  1  0.57047478  0.88624491  0.19037730  1.0
  H  H38  1  0.46555651  0.22471771  0.28312619  1.0
  H  H39  1  0.53444354  0.71687733  0.77528707  1.0
  H  H40  1  0.15914847  0.19654482  0.25682454  1.0
  H  H41  1  0.84085042  0.74317500  0.80345758  1.0
  H  H42  1  0.16836991  0.05790782  0.26186839  1.0
  H  H43  1  0.83163189  0.73812915  0.94209349  1.0
  H  H44  1  0.51110443  0.06200569  0.34930895  1.0
  H  H45  1  0.48889789  0.65069252  0.93799761  1.0
  H  H46  1  0.56301582  0.12065202  0.29295606  1.0
  H  H47  1  0.43698585  0.70704533  0.87934970  1.0
  H  H48  1  0.51435276  0.02542700  0.24805078  1.0
  H  H49  1  0.48564816  0.75195093  0.97457630  1.0
  H  H50  1  0.52249340  0.88321778  0.31530277  1.0
  H  H51  1  0.47750710  0.68469829  0.11678469  1.0
  H  H52  1  0.53775700  0.83245963  0.38870274  1.0
  H  H53  1  0.46224102  0.61129971  0.16754311  1.0
  H  H54  1  0.46885327  0.91682562  0.40446566  1.0
  H  H55  1  0.53114471  0.59553488  0.08317603  1.0
  H  H56  1  0.17523351  0.82037880  0.24487891  1.0
  H  H57  1  0.82476601  0.75512152  0.17962325  1.0
  H  H58  1  0.16878703  0.68100614  0.24839521  1.0
  H  H59  1  0.83121460  0.75160406  0.31899781  1.0
  H  H60  1  0.45343586  0.71197887  0.35522205  1.0
  H  H61  1  0.54656432  0.64477887  0.28802345  1.0
  H  H62  1  0.47875943  0.45704098  0.05509349  1.0
  H  H63  1  0.52123925  0.94490956  0.54296323  1.0
  H  H64  1  0.17381430  0.41369425  0.02831628  1.0
  H  H65  1  0.82618738  0.97167969  0.58629959  1.0
  H  H66  1  0.17825055  0.42002405  0.89047908  1.0
  H  H67  1  0.82175385  0.10951616  0.57996661  1.0
  H  H68  1  0.57061202  0.48071697  0.95278147  1.0
  H  H69  1  0.42938950  0.04722414  0.51928667  1.0
  H  H70  1  0.50924608  0.51893214  0.88239266  1.0
  H  H71  1  0.49075696  0.11761060  0.48107219  1.0
  H  H72  1  0.52997611  0.41928625  0.86107920  1.0
  H  H73  1  0.47003165  0.13892451  0.58071801  1.0
  H  H74  1  0.18689772  0.39917785  0.64590182  1.0
  H  H75  1  0.81310373  0.35409976  0.60081921  1.0
  H  H76  1  0.53451665  0.49287187  0.70471723  1.0
  H  H77  1  0.46548365  0.29528359  0.50713035  1.0
  H  H78  1  0.46412515  0.56820504  0.75437680  1.0
  H  H79  1  0.53587296  0.24562286  0.43179624  1.0
  H  H80  1  0.52570575  0.57790651  0.67101135  1.0
  H  H81  1  0.47429347  0.32898867  0.42209460  1.0
  H  H82  1  0.45225630  0.53173290  0.54473911  1.0
  H  H83  1  0.54774398  0.45525763  0.46826550  1.0
  H  H84  1  0.17865899  0.40660573  0.50747741  1.0
  H  H85  1  0.82133862  0.49252253  0.59339106  1.0
  H  H86  1  0.55243627  0.34145237  0.22074828  1.0
  H  H87  1  0.44755901  0.77925176  0.65855195  1.0
  H  H88  1  0.58279015  0.56004430  0.37259309  1.0
  H  H89  1  0.41720667  0.62740713  0.43995934  1.0
  H  H90  1  0.76081868  0.55959921  0.37209779  1.0
  H  H91  1  0.23917749  0.62790003  0.44040383  1.0
  H  H92  1  0.73043127  0.33069960  0.21376297  1.0
  H  H93  1  0.26956340  0.78623514  0.66930504  1.0
  H  H94  1  0.88415928  0.56745198  0.28950724  1.0
  H  H95  1  0.11583841  0.71049451  0.43255561  1.0
  H  H96  1  0.87767843  0.32222962  0.27904193  1.0
  H  H97  1  0.12231657  0.72096004  0.67777702  1.0
  H  H98  1  0.05611909  0.32827878  0.27101664  1.0
  H  H99  1  0.94387618  0.72898366  0.67172639  1.0
  H  H100  1  0.06276670  0.56242922  0.28157856  1.0
  H  H101  1  0.93723173  0.71842482  0.43757776  1.0
  C  C102  1  0.99571431  0.92839558  0.23367044  1.0
  C  C103  1  0.00428596  0.76632948  0.07159686  1.0
  C  C104  1  0.99764472  0.92739126  0.31729988  1.0
  C  C105  1  0.00236052  0.68270168  0.07260225  1.0
  C  C106  1  0.91402325  0.90904700  0.35132928  1.0
  C  C107  1  0.08598114  0.64866986  0.09094963  1.0
  C  C108  1  0.08439843  0.94244774  0.36153938  1.0
  C  C109  1  0.91560346  0.63846149  0.05754901  1.0
  C  C110  1  0.09017784  0.93995876  0.43894521  1.0
  C  C111  1  0.90982456  0.56105555  0.06003585  1.0
  C  C112  1  0.18396115  0.95573202  0.48524885  1.0
  C  C113  1  0.81603978  0.51475167  0.04426520  1.0
  C  C114  1  0.91745478  0.90584228  0.42824774  1.0
  C  C115  1  0.08255029  0.57174861  0.09414785  1.0
  C  C116  1  0.00485895  0.92189885  0.47299814  1.0
  C  C117  1  0.99514221  0.52700148  0.07809357  1.0
  C  C118  1  0.00666155  0.92064157  0.55180510  1.0
  C  C119  1  0.99333824  0.44819334  0.07935676  1.0
  C  C120  1  0.00633527  0.92030893  0.62018083  1.0
  C  C121  1  0.99366411  0.37982402  0.07968715  1.0
  C  C122  1  0.00339703  0.91757216  0.69842499  1.0
  C  C123  1  0.99660117  0.30157589  0.08242495  1.0
  C  C124  1  0.91456682  0.90378903  0.72894018  1.0
  C  C125  1  0.08543189  0.27106091  0.09620740  1.0
  C  C126  1  0.08924383  0.92719366  0.74580393  1.0
  C  C127  1  0.91075705  0.25419434  0.07280270  1.0
  C  C128  1  0.18331797  0.94406634  0.71397482  1.0
  C  C129  1  0.81668120  0.28602518  0.05593212  1.0
  C  C130  1  0.08305749  0.92081517  0.82170657  1.0
  C  C131  1  0.91694298  0.17829290  0.07918231  1.0
  C  C132  1  0.91041832  0.89985415  0.80540051  1.0
  C  C133  1  0.08958246  0.19460085  0.10014500  1.0
  C  C134  1  0.99478217  0.90752094  0.85218560  1.0
  C  C135  1  0.00521948  0.14781383  0.09247447  1.0
  C  C136  1  0.99110014  0.90355047  0.93482991  1.0
  C  C137  1  0.00890020  0.06516985  0.09644585  1.0
  C  C138  1  0.29503200  0.86084639  0.10105562  1.0
  C  C139  1  0.70496824  0.89894265  0.13914990  1.0
  C  C140  1  0.29838101  0.97921654  0.06934005  1.0
  C  C141  1  0.70161867  0.93065629  0.02077911  1.0
  C  C142  1  0.39756416  0.98011132  0.06577521  1.0
  C  C143  1  0.60243414  0.93422222  0.01988567  1.0
  C  C144  1  0.39416841  0.85847529  0.10054498  1.0
  C  C145  1  0.60583224  0.89945238  0.14152003  1.0
  C  C146  1  0.44731993  0.91887736  0.08215934  1.0
  C  C147  1  0.55267742  0.91783739  0.08111852  1.0
  C  C148  1  0.30798799  0.30212608  0.26982474  1.0
  C  C149  1  0.69201217  0.73017305  0.69787444  1.0
  C  C150  1  0.31211876  0.21863850  0.27022959  1.0
  C  C151  1  0.68788036  0.72977112  0.78136276  1.0
  C  C152  1  0.40116996  0.18725499  0.27887880  1.0
  C  C153  1  0.59882933  0.72112423  0.81274838  1.0
  C  C154  1  0.22795056  0.17200344  0.26422997  1.0
  C  C155  1  0.77205023  0.73576971  0.82799809  1.0
  C  C156  1  0.23290006  0.09553185  0.26789455  1.0
  C  C157  1  0.76710217  0.73210442  0.90446990  1.0
  C  C158  1  0.40857347  0.11106521  0.28375959  1.0
  C  C159  1  0.59142787  0.71624156  0.88893869  1.0
  C  C160  1  0.50431973  0.07845642  0.29405043  1.0
  C  C161  1  0.49568270  0.70595099  0.92154737  1.0
  C  C162  1  0.32251790  0.06483915  0.27897962  1.0
  C  C163  1  0.67748481  0.72102057  0.93516287  1.0
  C  C164  1  0.32510987  0.98790110  0.28594294  1.0
  C  C165  1  0.67489069  0.71405569  0.01209744  1.0
  C  C166  1  0.32290652  0.92134754  0.29233954  1.0
  C  C167  1  0.67709513  0.70765859  0.07865661  1.0
  C  C168  1  0.31881302  0.84369093  0.29733852  1.0
  C  C169  1  0.68118526  0.70266023  0.15631211  1.0
  C  C170  1  0.39843073  0.81354533  0.32975037  1.0
  C  C171  1  0.60156675  0.67025017  0.18645704  1.0
  C  C172  1  0.48664065  0.86374682  0.36143097  1.0
  C  C173  1  0.51335714  0.63857009  0.13625552  1.0
  C  C174  1  0.23561793  0.79584483  0.26916215  1.0
  C  C175  1  0.76438195  0.73083677  0.20415820  1.0
  C  C176  1  0.23198481  0.71856510  0.27124886  1.0
  C  C177  1  0.76801577  0.72874987  0.28143744  1.0
  C  C178  1  0.39287658  0.73572016  0.33049940  1.0
  C  C179  1  0.60712432  0.66950025  0.26428206  1.0
  C  C180  1  0.31160555  0.68759605  0.30051137  1.0
  C  C181  1  0.68839423  0.69948663  0.31240568  1.0
  C  C182  1  0.31175321  0.60315510  0.29754439  1.0
  C  C183  1  0.68824905  0.70245361  0.39684643  1.0
  C  C184  1  0.32426427  0.43672629  0.13405827  1.0
  C  C185  1  0.67573731  0.86594088  0.56327261  1.0
  C  C186  1  0.32642461  0.43584418  0.05005450  1.0
  C  C187  1  0.67357537  0.94994576  0.56415554  1.0
  C  C188  1  0.41354372  0.44930468  0.01796664  1.0
  C  C189  1  0.58645792  0.98203291  0.55069526  1.0
  C  C190  1  0.24142823  0.42453861  0.00355437  1.0
  C  C191  1  0.75857494  0.99644484  0.57545961  1.0
  C  C192  1  0.24400902  0.42822138  0.92695169  1.0
  C  C193  1  0.75599639  0.07304710  0.57177455  1.0
  C  C194  1  0.41812033  0.45409079  0.94139113  1.0
  C  C195  1  0.58188163  0.05860971  0.54590686  1.0
  C  C196  1  0.51198162  0.46922137  0.90814425  1.0
  C  C197  1  0.48802312  0.09185890  0.53078162  1.0
  C  C198  1  0.33126366  0.44391942  0.89506751  1.0
  C  C199  1  0.66873996  0.10493032  0.55607559  1.0
  C  C200  1  0.33085625  0.44998310  0.81753077  1.0
  C  C201  1  0.66914925  0.18246638  0.55000975  1.0
  C  C202  1  0.32801868  0.45580778  0.75067918  1.0
  C  C203  1  0.67198480  0.24932051  0.54418826  1.0
  C  C204  1  0.32414004  0.46185446  0.67308718  1.0
  C  C205  1  0.67585981  0.32691222  0.53814572  1.0
  C  C206  1  0.24435278  0.42863646  0.62311469  1.0
  C  C207  1  0.75565071  0.37688472  0.57136116  1.0
  C  C208  1  0.39993659  0.50076180  0.64487009  1.0
  C  C209  1  0.60005984  0.35512662  0.49923398  1.0
  C  C210  1  0.48543884  0.53728546  0.69634209  1.0
  C  C211  1  0.51456178  0.30365741  0.46271558  1.0
  C  C212  1  0.39396967  0.50298533  0.56731947  1.0
  C  C213  1  0.60602906  0.43268052  0.49701501  1.0
  C  C214  1  0.23968377  0.43250438  0.54637571  1.0
  C  C215  1  0.76031433  0.45362609  0.56749465  1.0
  C  C216  1  0.31552338  0.46883499  0.51763661  1.0
  C  C217  1  0.68447559  0.48236230  0.53116150  1.0
  C  C218  1  0.31505492  0.46878599  0.43382910  1.0
  C  C219  1  0.68493774  0.56616951  0.53121310  1.0
  C  C220  1  0.60216460  0.38809749  0.25277435  1.0
  C  C221  1  0.39783080  0.74722558  0.61190586  1.0
  C  C222  1  0.61842304  0.51097666  0.33719465  1.0
  C  C223  1  0.38157396  0.66280640  0.48902839  1.0
  C  C224  1  0.71778545  0.51037984  0.33644382  1.0
  C  C225  1  0.28221150  0.66355413  0.48962255  1.0
  C  C226  1  0.70080769  0.38268828  0.24971267  1.0
  C  C227  1  0.29918677  0.75028432  0.61731533  1.0
  C  C228  1  0.76079115  0.44567565  0.29090560  1.0
  C  C229  1  0.23920452  0.70909055  0.55432844  1.0
  C  C230  1  0.86581370  0.44497616  0.28584198  1.0
  C  C231  1  0.13418277  0.71415800  0.55502887  1.0
  C  C232  1  0.91932267  0.51331755  0.28665219  1.0
  C  C233  1  0.08067337  0.71334916  0.48668900  1.0
  C  C234  1  0.91533616  0.37690091  0.27952545  1.0
  C  C235  1  0.08466190  0.72047548  0.62310457  1.0
  C  C236  1  0.01441872  0.37956440  0.27552393  1.0
  C  C237  1  0.98557874  0.72448030  0.62044133  1.0
  C  C238  1  0.01808632  0.51113584  0.28175313  1.0
  C  C239  1  0.98191027  0.71824828  0.48886928  1.0
  N  N240  1  0.24815853  0.92032241  0.08621066  1.0
  N  N241  1  0.75184298  0.91378667  0.07967290  1.0
  N  N242  1  0.56175423  0.45157976  0.29507637  1.0
  N  N243  1  0.43824349  0.70492453  0.54842429  1.0
  N  N244  1  0.06495751  0.44554852  0.27674898  1.0
  N  N245  1  0.93503824  0.72325250  0.55445791  1.0
  O  O246  1  0.07031998  0.89848007  0.97041764  1.0
  O  O247  1  0.92968126  0.02957957  0.10151520  1.0
  O  O248  1  0.90870989  0.90635818  0.96376556  1.0
  O  O249  1  0.09129186  0.03623342  0.09363812  1.0
  O  O250  1  0.91502601  0.91397567  0.19588262  1.0
  O  O251  1  0.08497674  0.80411632  0.08601948  1.0
  O  O252  1  0.07513722  0.94232245  0.20567886  1.0
  O  O253  1  0.92486044  0.79431972  0.05766958  1.0
  O  O254  1  0.38784507  0.34093390  0.27807787  1.0
  O  O255  1  0.61215661  0.72192006  0.65906580  1.0
  O  O256  1  0.22579719  0.32877664  0.26254537  1.0
  O  O257  1  0.77420252  0.73745439  0.67122479  1.0
  O  O258  1  0.39358985  0.57404792  0.29962915  1.0
  O  O259  1  0.60641132  0.70035893  0.42595035  1.0
  O  O260  1  0.23082991  0.56648809  0.29315425  1.0
  O  O261  1  0.76917170  0.70685255  0.43351552  1.0
  O  O262  1  0.40456607  0.44074853  0.17142674  1.0
  O  O263  1  0.59543741  0.82857087  0.55924762  1.0
  O  O264  1  0.24190014  0.43507006  0.16255213  1.0
  O  O265  1  0.75810343  0.83745020  0.56493664  1.0
  O  O266  1  0.39651075  0.47832718  0.40639436  1.0
  O  O267  1  0.60348042  0.59360200  0.52167661  1.0
  O  O268  1  0.23478435  0.45869651  0.39560093  1.0
  O  O269  1  0.76520654  0.60440172  0.54129987  1.0
