# generated using pymatgen
data_ZnH12C21(NO2)2
_symmetry_space_group_name_H-M   'P 1'
_cell_length_a   8.92399888
_cell_length_b   18.31060618
_cell_length_c   19.50951570
_cell_angle_alpha   88.15501691
_cell_angle_beta   89.44068519
_cell_angle_gamma   78.96884356
_symmetry_Int_Tables_number   1
_chemical_formula_structural   ZnH12C21(NO2)2
_chemical_formula_sum   'Zn2 H24 C42 N4 O8'
_cell_volume   3127.38389793
_cell_formula_units_Z   2
loop_
 _symmetry_equiv_pos_site_id
 _symmetry_equiv_pos_as_xyz
  1  'x, y, z'
loop_
 _atom_site_type_symbol
 _atom_site_label
 _atom_site_symmetry_multiplicity
 _atom_site_fract_x
 _atom_site_fract_y
 _atom_site_fract_z
 _atom_site_occupancy
  Zn  Zn0  1  0.49531900  0.57880719  0.49641632  1.0
  Zn  Zn1  1  0.52681882  0.42015413  0.50338711  1.0
  H  H2  1  0.04112707  0.41426105  0.49628108  1.0
  H  H3  1  0.41391168  0.93956364  0.60241458  1.0
  H  H4  1  0.57800274  0.38973194  0.72809532  1.0
  H  H5  1  0.34035094  0.61288805  0.28707227  1.0
  H  H6  1  0.53138766  0.39031020  0.85424133  1.0
  H  H7  1  0.27434760  0.61313728  0.16340327  1.0
  H  H8  1  0.24645859  0.60783677  0.83099370  1.0
  H  H9  1  0.53239399  0.38937882  0.15164328  1.0
  H  H10  1  0.37234375  0.61894246  0.93279423  1.0
  H  H11  1  0.36150553  0.38568534  0.06791306  1.0
  H  H12  1  0.37900673  0.61943313  0.05868642  1.0
  H  H13  1  0.97978819  0.58545216  0.50433777  1.0
  H  H14  1  0.35646335  0.38505321  0.94180949  1.0
  H  H15  1  0.30583720  0.71092491  0.56118617  1.0
  H  H16  1  0.70435436  0.28814247  0.43370395  1.0
  H  H17  1  0.29817879  0.84733093  0.56327349  1.0
  H  H18  1  0.70395421  0.15259229  0.42909634  1.0
  H  H19  1  0.70844280  0.81272501  0.43897889  1.0
  H  H20  1  0.30866372  0.18866094  0.56292868  1.0
  H  H21  1  0.69593137  0.67737104  0.44034070  1.0
  H  H22  1  0.33010166  0.32279196  0.56375084  1.0
  H  H23  1  0.59002285  0.92677629  0.39573930  1.0
  H  H24  1  0.41567912  0.07389856  0.60068525  1.0
  H  H25  1  0.59062642  0.06124955  0.39372520  1.0
  C  C26  1  0.49531168  0.50249668  0.36550162  1.0
  C  C27  1  0.62062014  0.26324430  0.46252271  1.0
  C  C28  1  0.38937734  0.81213909  0.53545464  1.0
  C  C29  1  0.61785270  0.18781077  0.45960959  1.0
  C  C30  1  0.50203712  0.84253811  0.50015608  1.0
  C  C31  1  0.50717707  0.15796942  0.49696446  1.0
  C  C32  1  0.61493839  0.79297968  0.46539599  1.0
  C  C33  1  0.40088952  0.20767677  0.53491263  1.0
  C  C34  1  0.60964002  0.71769544  0.46611966  1.0
  C  C35  1  0.41102947  0.28229855  0.53551350  1.0
  C  C36  1  0.55359966  0.95873438  0.44121078  1.0
  C  C37  1  0.48642704  0.49717732  0.63397373  1.0
  C  C38  1  0.45175240  0.04210680  0.55511922  1.0
  C  C39  1  0.55396536  0.03466562  0.44009791  1.0
  C  C40  1  0.45084595  0.96626363  0.55616501  1.0
  C  C41  1  0.80618535  0.47880356  0.49877387  1.0
  C  C42  1  0.21450494  0.52054715  0.50179080  1.0
  C  C43  1  0.50363325  0.07776620  0.49718308  1.0
  C  C44  1  0.50230812  0.92306433  0.49931346  1.0
  C  C45  1  0.97504594  0.47071033  0.49897930  1.0
  C  C46  1  0.04555313  0.52889274  0.50240694  1.0
  C  C47  1  0.50621908  0.43731622  0.75168602  1.0
  C  C48  1  0.36752490  0.56773075  0.96217818  1.0
  C  C49  1  0.38020762  0.56400340  0.25668061  1.0
  C  C50  1  0.47789882  0.43758222  0.82186331  1.0
  C  C51  1  0.34522743  0.56398539  0.18736569  1.0
  C  C52  1  0.38671843  0.49942605  0.85235736  1.0
  C  C53  1  0.39905690  0.50127456  0.14788059  1.0
  C  C54  1  0.32232078  0.56008517  0.80964657  1.0
  C  C55  1  0.48506092  0.43811543  0.18099776  1.0
  C  C56  1  0.35274064  0.56066140  0.73880431  1.0
  C  C57  1  0.51658161  0.43691588  0.25142380  1.0
  C  C58  1  0.44721191  0.49877679  0.70912159  1.0
  C  C59  1  0.36634994  0.43687584  0.03852520  1.0
  C  C60  1  0.46548567  0.50100258  0.28992507  1.0
  C  C61  1  0.28178015  0.62552796  0.69990841  1.0
  C  C62  1  0.60593361  0.36993362  0.28038732  1.0
  C  C63  1  0.37108597  0.56804387  0.03340795  1.0
  C  C64  1  0.36334291  0.43646743  0.96730362  1.0
  C  C65  1  0.37529417  0.50218880  0.07303586  1.0
  C  C66  1  0.36866234  0.50142869  0.92760132  1.0
  C  C67  1  0.39134905  0.73614396  0.53388558  1.0
  N  N68  1  0.49895580  0.68980854  0.49922283  1.0
  N  N69  1  0.51993383  0.30953284  0.50046239  1.0
  N  N70  1  0.21554296  0.68098941  0.67466475  1.0
  N  N71  1  0.68097700  0.31304717  0.29801536  1.0
  O  O72  1  0.50443188  0.56503801  0.38980941  1.0
  O  O73  1  0.53265952  0.43336705  0.60916963  1.0
  O  O74  1  0.50536289  0.44071215  0.39826533  1.0
  O  O75  1  0.46998431  0.55969311  0.60209339  1.0
  O  O76  1  0.72618906  0.54422715  0.50158045  1.0
  O  O77  1  0.29392861  0.45566285  0.51252680  1.0
  O  O78  1  0.75499852  0.41842660  0.49626435  1.0
  O  O79  1  0.26614712  0.58013470  0.49007502  1.0
