# generated using pymatgen
data_AlH15(C3O)6
_symmetry_space_group_name_H-M   'P 1'
_cell_length_a   4.00333195
_cell_length_b   17.18385785
_cell_length_c   17.18382142
_cell_angle_alpha   59.99995516
_cell_angle_beta   90.00014815
_cell_angle_gamma   89.99981384
_symmetry_Int_Tables_number   1
_chemical_formula_structural   AlH15(C3O)6
_chemical_formula_sum   'Al2 H30 C36 O12'
_cell_volume   1023.74657145
_cell_formula_units_Z   2
loop_
 _symmetry_equiv_pos_site_id
 _symmetry_equiv_pos_as_xyz
  1  'x, y, z'
loop_
 _atom_site_type_symbol
 _atom_site_label
 _atom_site_symmetry_multiplicity
 _atom_site_fract_x
 _atom_site_fract_y
 _atom_site_fract_z
 _atom_site_occupancy
  Al  Al0  1  0.02974649  0.49999979  0.99999991  1.0
  Al  Al1  1  0.97028412  0.16666671  0.66666790  1.0
  H  H2  1  0.72929389  0.47226661  0.41584361  1.0
  H  H3  1  0.28424712  0.47193139  0.41847206  1.0
  H  H4  1  0.27000246  0.55496867  0.24964836  1.0
  H  H5  1  0.71504172  0.55735465  0.24710255  1.0
  H  H6  1  0.72925869  0.11189157  0.97226941  1.0
  H  H7  1  0.28421442  0.10960085  0.97193381  1.0
  H  H8  1  0.26998120  0.19538964  0.05496848  1.0
  H  H9  1  0.71501800  0.19554401  0.05735494  1.0
  H  H10  1  0.72927130  0.91584164  0.61188876  1.0
  H  H11  1  0.28422199  0.91847089  0.60959504  1.0
  H  H12  1  0.26997796  0.74964619  0.69538136  1.0
  H  H13  1  0.71501976  0.74710315  0.69553688  1.0
  H  H14  1  0.72739384  0.19173065  0.24903236  1.0
  H  H15  1  0.47047930  0.27483909  0.16437475  1.0
  H  H16  1  0.28888673  0.18320279  0.26103951  1.0
  H  H17  1  0.27305384  0.10748957  0.41823073  1.0
  H  H18  1  0.53000530  0.10619593  0.50274590  1.0
  H  H19  1  0.71148104  0.11095903  0.40619132  1.0
  H  H20  1  0.72743064  0.55923457  0.69172945  1.0
  H  H21  1  0.47052011  0.56078948  0.77483450  1.0
  H  H22  1  0.28892338  0.55576116  0.68319582  1.0
  H  H23  1  0.27305669  0.47427733  0.60748830  1.0
  H  H24  1  0.53001153  0.39105542  0.60619709  1.0
  H  H25  1  0.71148894  0.48284927  0.61095527  1.0
  H  H26  1  0.72741905  0.74903357  0.05923391  1.0
  H  H27  1  0.47050612  0.66437442  0.06078799  1.0
  H  H28  1  0.28891172  0.76104204  0.05575753  1.0
  H  H29  1  0.27304843  0.91823378  0.97427516  1.0
  H  H30  1  0.53000076  0.00274578  0.89105380  1.0
  H  H31  1  0.71147835  0.90619303  0.98284641  1.0
  C  C32  1  0.52414835  0.63762120  0.93030422  1.0
  C  C33  1  0.52415840  0.43207362  0.13762101  1.0
  C  C34  1  0.52415222  0.43030506  0.93207346  1.0
  C  C35  1  0.47614696  0.23690615  0.52890703  1.0
  C  C36  1  0.47613321  0.23418992  0.73690526  1.0
  C  C37  1  0.47613454  0.02890431  0.73418977  1.0
  C  C38  1  0.49506032  0.28332146  0.42929557  1.0
  C  C39  1  0.50493784  0.37898152  0.23720022  1.0
  C  C40  1  0.50227091  0.37668973  0.37971564  1.0
  C  C41  1  0.50442418  0.28389390  0.28576817  1.0
  C  C42  1  0.49748405  0.42315297  0.28640388  1.0
  C  C43  1  0.49581971  0.23648011  0.38102527  1.0
  C  C44  1  0.50325707  0.46179601  0.38601874  1.0
  C  C45  1  0.49607458  0.51475476  0.27963448  1.0
  C  C46  1  0.49505902  0.28738584  0.78332143  1.0
  C  C47  1  0.50493821  0.38382098  0.87898244  1.0
  C  C48  1  0.50224387  0.24359674  0.87669232  1.0
  C  C49  1  0.50444027  0.43033757  0.78389264  1.0
  C  C50  1  0.49746781  0.29044696  0.92315367  1.0
  C  C51  1  0.49582998  0.38249595  0.73648111  1.0
  C  C52  1  0.50322914  0.15218636  0.96179931  1.0
  C  C53  1  0.49604509  0.20561503  0.01475593  1.0
  C  C54  1  0.49504484  0.92929447  0.78738029  1.0
  C  C55  1  0.50493343  0.73719815  0.88381802  1.0
  C  C56  1  0.50224391  0.87971270  0.74359337  1.0
  C  C57  1  0.50442630  0.78576462  0.93033852  1.0
  C  C58  1  0.49747377  0.78640041  0.79044377  1.0
  C  C59  1  0.49581507  0.88102379  0.88249360  1.0
  C  C60  1  0.50323501  0.88601670  0.65218463  1.0
  C  C61  1  0.49605201  0.77963180  0.70560957  1.0
  C  C62  1  0.49746004  0.23135706  0.23705099  1.0
  C  C63  1  0.50295472  0.13522546  0.43009988  1.0
  C  C64  1  0.49748759  0.53159527  0.73135402  1.0
  C  C65  1  0.50296560  0.43467245  0.63522399  1.0
  C  C66  1  0.49747301  0.73705177  0.03159228  1.0
  C  C67  1  0.50295161  0.93009962  0.93467141  1.0
  O  O68  1  0.29863803  0.41199185  0.99148890  1.0
  O  O69  1  0.29863386  0.59651933  0.91199288  1.0
  O  O70  1  0.29863813  0.49149142  0.09651783  1.0
  O  O71  1  0.76810606  0.48387686  0.91626420  1.0
  O  O72  1  0.76811257  0.41626341  0.09985982  1.0
  O  O73  1  0.76811069  0.59985855  0.98387852  1.0
  O  O74  1  0.23211765  0.06663885  0.75001587  1.0
  O  O75  1  0.23212330  0.18334708  0.56663933  1.0
  O  O76  1  0.23211356  0.25001646  0.68334574  1.0
  O  O77  1  0.70172850  0.07010967  0.67479114  1.0
  O  O78  1  0.70172079  0.17478903  0.75509965  1.0
  O  O79  1  0.70172918  0.25510210  0.57011104  1.0
