# generated using pymatgen
data_Zn4H9C24S4(NO5)3
_symmetry_space_group_name_H-M   'P 1'
_cell_length_a   19.62119471
_cell_length_b   19.66641993
_cell_length_c   33.36385241
_cell_angle_alpha   79.23541381
_cell_angle_beta   79.37022814
_cell_angle_gamma   64.01565388
_symmetry_Int_Tables_number   1
_chemical_formula_structural   Zn4H9C24S4(NO5)3
_chemical_formula_sum   'Zn16 H36 C96 S16 N12 O60'
_cell_volume   11292.28166635
_cell_formula_units_Z   4
loop_
 _symmetry_equiv_pos_site_id
 _symmetry_equiv_pos_as_xyz
  1  'x, y, z'
loop_
 _atom_site_type_symbol
 _atom_site_label
 _atom_site_symmetry_multiplicity
 _atom_site_fract_x
 _atom_site_fract_y
 _atom_site_fract_z
 _atom_site_occupancy
  Zn  Zn0  1  0.59932125  0.94298487  0.52185621  1.0
  Zn  Zn1  1  0.51617422  0.01726874  0.44011080  1.0
  Zn  Zn2  1  0.44011453  0.93994986  0.51815965  1.0
  Zn  Zn3  1  0.44401063  0.09997781  0.51998167  1.0
  Zn  Zn4  1  0.64963760  0.30573909  0.72893873  1.0
  Zn  Zn5  1  0.81111167  0.30956472  0.73276068  1.0
  Zn  Zn6  1  0.73226611  0.23145104  0.80943777  1.0
  Zn  Zn7  1  0.80615904  0.15158235  0.72759130  1.0
  Zn  Zn8  1  0.23214838  0.73292240  0.31033912  1.0
  Zn  Zn9  1  0.30485356  0.65286479  0.22785552  1.0
  Zn  Zn10  1  0.14947978  0.80792875  0.22877555  1.0
  Zn  Zn11  1  0.31060930  0.80934805  0.23294821  1.0
  Zn  Zn12  1  0.93983338  0.43910539  0.01709167  1.0
  Zn  Zn13  1  0.94385044  0.59930204  0.02094715  1.0
  Zn  Zn14  1  0.09861718  0.44473602  0.02195236  1.0
  Zn  Zn15  1  0.01659179  0.51676495  0.93959902  1.0
  H  H16  1  0.75221663  0.04805070  0.64712324  1.0
  H  H17  1  0.54298117  0.25145502  0.65076104  1.0
  H  H18  1  0.70259530  0.00147003  0.59861925  1.0
  H  H19  1  0.40407119  0.90018041  0.30022234  1.0
  H  H20  1  0.29493150  0.80188007  0.40268198  1.0
  H  H21  1  0.45186400  0.94762659  0.34919432  1.0
  H  H22  1  0.76126257  0.53510723  0.65878790  1.0
  H  H23  1  0.29650825  0.52045856  0.39701906  1.0
  H  H24  1  0.02040734  0.79846188  0.39900494  1.0
  H  H25  1  0.02887505  0.05331424  0.64924085  1.0
  H  H26  1  0.94819487  0.45085337  0.84777270  1.0
  H  H27  1  0.84915944  0.34432976  0.95128282  1.0
  H  H28  1  0.89960547  0.40160947  0.80012054  1.0
  H  H29  1  0.22872066  0.45298953  0.85231406  1.0
  H  H30  1  0.86037677  0.83698879  0.95877240  1.0
  H  H31  1  0.20190766  0.49935646  0.10209190  1.0
  H  H32  1  0.99664603  0.70682674  0.09914133  1.0
  H  H33  1  0.24836290  0.54888319  0.15066029  1.0
  H  H34  1  0.72172224  0.69799927  0.09808384  1.0
  H  H35  1  0.99132824  0.21243565  0.08993611  1.0
  H  H36  1  0.44999134  0.67774667  0.59674551  1.0
  H  H37  1  0.44826129  0.76490706  0.57234848  1.0
  H  H38  1  0.47961027  0.23272176  0.31419773  1.0
  H  H39  1  0.48509654  0.16432785  0.35637879  1.0
  H  H40  1  0.73206333  0.95426482  0.31453335  1.0
  H  H41  1  0.66346349  0.97636962  0.35708530  1.0
  H  H42  1  0.20109078  0.25399070  0.61804778  1.0
  H  H43  1  0.28090031  0.20102904  0.58649980  1.0
  H  H44  1  0.51827312  0.28699866  0.93642083  1.0
  H  H45  1  0.58706527  0.26850004  0.89351632  1.0
  H  H46  1  0.91511601  0.85522737  0.77244138  1.0
  H  H47  1  0.88241942  0.95370856  0.75969879  1.0
  H  H48  1  0.56252822  0.48517509  0.14517289  1.0
  H  H49  1  0.47675356  0.54484825  0.17072327  1.0
  H  H50  1  0.29914361  0.07273446  0.15590371  1.0
  H  H51  1  0.30143719  0.98439831  0.17877146  1.0
  C  C52  1  0.68376582  0.94053673  0.43782891  1.0
  C  C53  1  0.43111832  0.93070672  0.43090788  1.0
  C  C54  1  0.56161687  0.81410193  0.56181355  1.0
  C  C55  1  0.31618780  0.06300185  0.56159143  1.0
  C  C56  1  0.56925690  0.06983103  0.56798562  1.0
  C  C57  1  0.43640085  0.18463427  0.43643268  1.0
  C  C58  1  0.68820768  0.43447369  0.68962299  1.0
  C  C59  1  0.81921751  0.31812688  0.81890713  1.0
  C  C60  1  0.56471703  0.30955357  0.81231072  1.0
  C  C61  1  0.81501538  0.06418519  0.81045097  1.0
  C  C62  1  0.67988592  0.18096398  0.68052055  1.0
  C  C63  1  0.93452553  0.18881895  0.68731156  1.0
  C  C64  1  0.31112453  0.56578800  0.31036477  1.0
  C  C65  1  0.17943081  0.68177120  0.18127303  1.0
  C  C66  1  0.06536901  0.81318354  0.31219122  1.0
  C  C67  1  0.19077701  0.93350249  0.18691685  1.0
  C  C68  1  0.31814333  0.81951544  0.31964850  1.0
  C  C69  1  0.43560247  0.68798927  0.18852320  1.0
  C  C70  1  0.81602369  0.56097306  0.06149267  1.0
  C  C71  1  0.06821972  0.57099847  0.06898400  1.0
  C  C72  1  0.06161871  0.31599240  0.06203860  1.0
  C  C73  1  0.18409638  0.43817198  0.93903570  1.0
  C  C74  1  0.93019385  0.42970939  0.93097137  1.0
  C  C75  1  0.93769002  0.68421033  0.93791848  1.0
  C  C76  1  0.59530063  0.09889288  0.59798709  1.0
  C  C77  1  0.65064115  0.15231959  0.65183285  1.0
  C  C78  1  0.55100882  0.16910284  0.61331350  1.0
  C  C79  1  0.69568664  0.08169431  0.63732170  1.0
  C  C80  1  0.57787645  0.19648363  0.63953970  1.0
  C  C81  1  0.66817829  0.05580953  0.61062788  1.0
  C  C82  1  0.40028797  0.90223421  0.40300233  1.0
  C  C83  1  0.34662023  0.84847641  0.34852553  1.0
  C  C84  1  0.35570527  0.86113810  0.41744460  1.0
  C  C85  1  0.39077846  0.88962500  0.33333333  1.0
  C  C86  1  0.32912716  0.83402221  0.39093181  1.0
  C  C87  1  0.41715777  0.91584452  0.36035010  1.0
  C  C88  1  0.54387520  0.69673450  0.59978788  1.0
  C  C89  1  0.70380984  0.55298566  0.65127042  1.0
  C  C90  1  0.58602611  0.74090752  0.58656156  1.0
  C  C91  1  0.66300123  0.50905198  0.66458524  1.0
  C  C92  1  0.66111502  0.62114768  0.62751355  1.0
  C  C93  1  0.58831935  0.62785613  0.62330623  1.0
  C  C94  1  0.42334905  0.27277090  0.36892805  1.0
  C  C95  1  0.32564540  0.47551090  0.37720311  1.0
  C  C96  1  0.41145266  0.25823826  0.41193680  1.0
  C  C97  1  0.33626035  0.49073418  0.33487913  1.0
  C  C98  1  0.35698939  0.39636522  0.38984032  1.0
  C  C99  1  0.39127172  0.35275509  0.35675306  1.0
  C  C100  1  0.77225303  0.92699520  0.37054902  1.0
  C  C101  1  0.97532764  0.82804099  0.37913876  1.0
  C  C102  1  0.75760876  0.91683877  0.41361035  1.0
  C  C103  1  0.99037247  0.83832688  0.33679257  1.0
  C  C104  1  0.89609858  0.86052207  0.39170108  1.0
  C  C105  1  0.85238606  0.89453707  0.35850499  1.0
  C  C106  1  0.20220222  0.15682818  0.60304666  1.0
  C  C107  1  0.05011018  0.09697288  0.64556682  1.0
  C  C108  1  0.24231718  0.08788196  0.58565970  1.0
  C  C109  1  0.00942049  0.16466830  0.66259044  1.0
  C  C110  1  0.12003324  0.09380639  0.62373320  1.0
  C  C111  1  0.13155820  0.15920502  0.62474654  1.0
  C  C112  1  0.84822136  0.34504158  0.84851409  1.0
  C  C113  1  0.90163087  0.40052867  0.90225711  1.0
  C  C114  1  0.83483757  0.32938811  0.89130452  1.0
  C  C115  1  0.91610554  0.41667757  0.85965877  1.0
  C  C116  1  0.86041551  0.35676846  0.91816937  1.0
  C  C117  1  0.88942372  0.38929465  0.83332385  1.0
  C  C118  1  0.47738637  0.32316684  0.88002556  1.0
  C  C119  1  0.27392250  0.42347319  0.87209753  1.0
  C  C120  1  0.49131171  0.33445728  0.83686334  1.0
  C  C121  1  0.25908179  0.41296658  0.91445108  1.0
  C  C122  1  0.35309107  0.39130107  0.85935725  1.0
  C  C123  1  0.39719363  0.35661821  0.89235349  1.0
  C  C124  1  0.87820148  0.91891046  0.82083347  1.0
  C  C125  1  0.87642670  0.82974949  0.92636102  1.0
  C  C126  1  0.84017306  0.99082793  0.83514962  1.0
  C  C127  1  0.91385447  0.75862521  0.91272734  1.0
  C  C128  1  0.86318558  0.88840823  0.89315602  1.0
  C  C129  1  0.89089239  0.86060363  0.85475333  1.0
  C  C130  1  0.14988059  0.65531149  0.15173395  1.0
  C  C131  1  0.09671031  0.60006513  0.09777590  1.0
  C  C132  1  0.07908866  0.69902268  0.13668935  1.0
  C  C133  1  0.16782065  0.55544487  0.11211999  1.0
  C  C134  1  0.05193341  0.67225628  0.11029962  1.0
  C  C135  1  0.19357348  0.58291134  0.13887285  1.0
  C  C136  1  0.54949657  0.59407513  0.14724613  1.0
  C  C137  1  0.70061572  0.65408441  0.10267543  1.0
  C  C138  1  0.50861721  0.66398099  0.16354883  1.0
  C  C139  1  0.74137866  0.58553978  0.08649915  1.0
  C  C140  1  0.63082436  0.65760137  0.12487906  1.0
  C  C141  1  0.61980520  0.59148871  0.12509714  1.0
  C  C142  1  0.20735717  0.05219947  0.15028254  1.0
  C  C143  1  0.04803694  0.19539361  0.09830758  1.0
  C  C144  1  0.16650441  0.00659542  0.16199776  1.0
  C  C145  1  0.08739301  0.24095323  0.08661806  1.0
  C  C146  1  0.09116405  0.12667643  0.12152778  1.0
  C  C147  1  0.16285914  0.12127916  0.12701587  1.0
  S  S148  1  0.67716439  0.69879666  0.60271432  1.0
  S  S149  1  0.57252771  0.55032192  0.64844336  1.0
  S  S150  1  0.36233638  0.34049565  0.43652699  1.0
  S  S151  1  0.38420430  0.40907211  0.31014355  1.0
  S  S152  1  0.84011210  0.86872762  0.43841341  1.0
  S  S153  1  0.90862180  0.88749823  0.31195542  1.0
  S  S154  1  0.19456721  0.02829383  0.59573771  1.0
  S  S155  1  0.05592132  0.22487875  0.65214517  1.0
  S  S156  1  0.40839947  0.38424404  0.81247243  1.0
  S  S157  1  0.34121787  0.36379067  0.93901719  1.0
  S  S158  1  0.82145703  0.98650481  0.88869955  1.0
  S  S159  1  0.93353272  0.76253798  0.85950937  1.0
  S  S160  1  0.55528803  0.72460143  0.15161491  1.0
  S  S161  1  0.69512869  0.52514568  0.09796123  1.0
  S  S162  1  0.07668808  0.04724123  0.14440485  1.0
  S  S163  1  0.17722911  0.20047429  0.10354700  1.0
  N  N164  1  0.47189164  0.21787057  0.60349028  1.0
  N  N165  1  0.33269900  0.84502210  0.46186284  1.0
  N  N166  1  0.79416594  0.28108613  0.91072725  1.0
  N  N167  1  0.02944651  0.77744482  0.14687113  1.0
  N  N168  1  0.47122709  0.71736225  0.59237516  1.0
  N  N169  1  0.45779606  0.21838451  0.34271929  1.0
  N  N170  1  0.71803025  0.96460451  0.34422352  1.0
  N  N171  1  0.22595872  0.21342977  0.59878578  1.0
  N  N172  1  0.53171547  0.28458983  0.90584929  1.0
  N  N173  1  0.90147025  0.90693048  0.78073909  1.0
  N  N174  1  0.52471463  0.53827036  0.15097040  1.0
  N  N175  1  0.27932193  0.03230458  0.15883282  1.0
  O  O176  1  0.50036374  0.00001986  0.49983250  1.0
  O  O177  1  0.68258407  0.92750821  0.47701178  1.0
  O  O178  1  0.46560144  0.97236825  0.41364040  1.0
  O  O179  1  0.49358196  0.84307862  0.55088142  1.0
  O  O180  1  0.62439379  0.97303148  0.41795669  1.0
  O  O181  1  0.60904679  0.84502789  0.55244310  1.0
  O  O182  1  0.42070776  0.91039843  0.46911438  1.0
  O  O183  1  0.34231247  0.99810891  0.54805908  1.0
  O  O184  1  0.50980973  0.11690974  0.55158563  1.0
  O  O185  1  0.35050406  0.10783030  0.55552767  1.0
  O  O186  1  0.60970890  0.00096220  0.56123253  1.0
  O  O187  1  0.47504249  0.12526818  0.41713993  1.0
  O  O188  1  0.41847163  0.18373050  0.47538777  1.0
  O  O189  1  0.75021709  0.24982489  0.74930878  1.0
  O  O190  1  0.64162476  0.40288256  0.69695191  1.0
  O  O191  1  0.84160588  0.33000573  0.78097744  1.0
  O  O192  1  0.62438241  0.27254301  0.83165526  1.0
  O  O193  1  0.75421296  0.40789004  0.70178895  1.0
  O  O194  1  0.56542214  0.32587438  0.77313246  1.0
  O  O195  1  0.77434435  0.28661061  0.83423039  1.0
  O  O196  1  0.78038741  0.12341273  0.82952712  1.0
  O  O197  1  0.74601484  0.13716156  0.69112497  1.0
  O  O198  1  0.82901679  0.06460163  0.77093558  1.0
  O  O199  1  0.63620242  0.24628698  0.69175797  1.0
  O  O200  1  0.90693957  0.25509000  0.69911884  1.0
  O  O201  1  0.90344896  0.14188967  0.69490873  1.0
  O  O202  1  0.24913792  0.75042859  0.25019096  1.0
  O  O203  1  0.27747399  0.62376396  0.33012173  1.0
  O  O204  1  0.24823125  0.64057322  0.18851707  1.0
  O  O205  1  0.06539161  0.83236565  0.27336138  1.0
  O  O206  1  0.32526673  0.56615188  0.27124668  1.0
  O  O207  1  0.12367987  0.77461807  0.33166362  1.0
  O  O208  1  0.13331088  0.74218348  0.19682441  1.0
  O  O209  1  0.14504245  0.90071709  0.19417653  1.0
  O  O210  1  0.33496265  0.83559825  0.28138920  1.0
  O  O211  1  0.25679985  0.90673695  0.20019038  1.0
  O  O212  1  0.27968646  0.78127156  0.33599068  1.0
  O  O213  1  0.40384193  0.64074220  0.19678229  1.0
  O  O214  1  0.40769834  0.75407353  0.20081011  1.0
  O  O215  1  0.99968658  0.49993992  0.99991401  1.0
  O  O216  1  0.84310404  0.49460660  0.04986864  1.0
  O  O217  1  0.00285448  0.61484562  0.05746137  1.0
  O  O218  1  0.10780477  0.34809249  0.05493793  1.0
  O  O219  1  0.84700047  0.60790307  0.05359531  1.0
  O  O220  1  0.99567597  0.34248544  0.04987467  1.0
  O  O221  1  0.11190794  0.50500927  0.05855961  1.0
  O  O222  1  0.18411597  0.42282137  0.97810539  1.0
  O  O223  1  0.96801816  0.46851805  0.91453080  1.0
  O  O224  1  0.12564320  0.47304575  0.91940213  1.0
  O  O225  1  0.91420299  0.41310193  0.96929471  1.0
  O  O226  1  0.92161112  0.68457592  0.97682890  1.0
  O  O227  1  0.97262196  0.62545123  0.91858106  1.0
  O  O228  1  0.42166870  0.19715902  0.62107722  1.0
  O  O229  1  0.46181604  0.27742895  0.58031911  1.0
  O  O230  1  0.27530431  0.89535590  0.47758540  1.0
  O  O231  1  0.37027451  0.78091457  0.47889150  1.0
  O  O232  1  0.83205024  0.21146876  0.91319169  1.0
  O  O233  1  0.72674008  0.31448093  0.92491071  1.0
  O  O234  1  0.04691781  0.82876954  0.12781559  1.0
  O  O235  1  0.97227422  0.78544363  0.17184286  1.0
