# generated using pymatgen
data_Zn2H15C35Br3N5O14
_symmetry_space_group_name_H-M   'P 1'
_cell_length_a   13.19800810
_cell_length_b   14.13344659
_cell_length_c   28.56857751
_cell_angle_alpha   90.02178029
_cell_angle_beta   89.79989876
_cell_angle_gamma   89.86359242
_symmetry_Int_Tables_number   1
_chemical_formula_structural   Zn2H15C35Br3N5O14
_chemical_formula_sum   'Zn4 H30 C70 Br6 N10 O28'
_cell_volume   5328.94425226
_cell_formula_units_Z   2
loop_
 _symmetry_equiv_pos_site_id
 _symmetry_equiv_pos_as_xyz
  1  'x, y, z'
loop_
 _atom_site_type_symbol
 _atom_site_label
 _atom_site_symmetry_multiplicity
 _atom_site_fract_x
 _atom_site_fract_y
 _atom_site_fract_z
 _atom_site_occupancy
  Zn  Zn0  1  0.51118920  0.39854962  0.49356093  1.0
  Zn  Zn1  1  0.48725951  0.60209135  0.50284933  1.0
  Zn  Zn2  1  0.51118046  0.60210454  0.04111035  1.0
  Zn  Zn3  1  0.48850114  0.39862721  0.03182662  1.0
  H  H4  1  0.62160967  0.05690659  0.44318618  1.0
  H  H5  1  0.37721862  0.94430908  0.55268386  1.0
  H  H6  1  0.59651649  0.74333361  0.45576089  1.0
  H  H7  1  0.61507343  0.91656284  0.44812241  1.0
  H  H8  1  0.40614055  0.25741544  0.54221232  1.0
  H  H9  1  0.38812565  0.08438214  0.54989336  1.0
  H  H10  1  0.50488453  0.61856964  0.18880826  1.0
  H  H11  1  0.49339250  0.31611393  0.17946138  1.0
  H  H12  1  0.50458718  0.38103062  0.34569935  1.0
  H  H13  1  0.49345735  0.68353332  0.35506983  1.0
  H  H14  1  0.50351228  0.34221160  0.74006215  1.0
  H  H15  1  0.50456591  0.65760111  0.79467932  1.0
  H  H16  1  0.49712767  0.37116365  0.89301174  1.0
  H  H17  1  0.49625138  0.35301582  0.80768750  1.0
  H  H18  1  0.49672390  0.62870887  0.64174814  1.0
  H  H19  1  0.49671215  0.64687021  0.72707455  1.0
  H  H20  1  0.83015232  0.38041325  0.50043959  1.0
  H  H21  1  0.80755433  0.68272615  0.49911521  1.0
  H  H22  1  0.16823360  0.61945455  0.50133520  1.0
  H  H23  1  0.19105621  0.31729978  0.49585422  1.0
  H  H24  1  0.62138761  0.94322003  0.09119287  1.0
  H  H25  1  0.37788997  0.05715022  0.98214977  1.0
  H  H26  1  0.59813688  0.25672188  0.07812932  1.0
  H  H27  1  0.61620867  0.08339717  0.08574786  1.0
  H  H28  1  0.40698116  0.74363410  0.99239283  1.0
  H  H29  1  0.38929238  0.91679116  0.98459824  1.0
  H  H30  1  0.83007219  0.62091111  0.03445510  1.0
  H  H31  1  0.80946886  0.31857020  0.03627691  1.0
  H  H32  1  0.16974398  0.38232403  0.03427982  1.0
  H  H33  1  0.19054340  0.68449381  0.03995854  1.0
  C  C34  1  0.50022625  0.47890550  0.58883926  1.0
  C  C35  1  0.30327033  0.47875916  0.49741992  1.0
  C  C36  1  0.49796204  0.52287957  0.40763581  1.0
  C  C37  1  0.69530475  0.52192507  0.49870347  1.0
  C  C38  1  0.50131532  0.52090206  0.94588717  1.0
  C  C39  1  0.30382333  0.52319927  0.03790369  1.0
  C  C40  1  0.49816509  0.47674716  0.12692829  1.0
  C  C41  1  0.69612160  0.47928615  0.03588916  1.0
  C  C42  1  0.57542791  0.19546422  0.46426629  1.0
  C  C43  1  0.57148502  0.09687757  0.46610948  1.0
  C  C44  1  0.42437885  0.80569102  0.53218877  1.0
  C  C45  1  0.42840594  0.90424088  0.53030693  1.0
  C  C46  1  0.54995341  0.79153953  0.47643192  1.0
  C  C47  1  0.55930543  0.88873618  0.47256106  1.0
  C  C48  1  0.45157329  0.20940298  0.52092611  1.0
  C  C49  1  0.44275400  0.11218928  0.52489934  1.0
  C  C50  1  0.50375578  0.05283824  0.49699366  1.0
  C  C51  1  0.49723712  0.94821910  0.49991060  1.0
  C  C52  1  0.50302409  0.55051822  0.20641992  1.0
  C  C53  1  0.49752096  0.37966660  0.20085715  1.0
  C  C54  1  0.50208999  0.37295970  0.24880844  1.0
  C  C55  1  0.50473047  0.45414706  0.27863306  1.0
  C  C56  1  0.50283490  0.44909364  0.32809195  1.0
  C  C57  1  0.49757195  0.61994324  0.33367120  1.0
  C  C58  1  0.50219230  0.62662327  0.28569659  1.0
  C  C59  1  0.50480721  0.54543197  0.25587829  1.0
  C  C60  1  0.49930358  0.46941412  0.17941840  1.0
  C  C61  1  0.49919060  0.53020820  0.35511726  1.0
  C  C62  1  0.50006438  0.47780805  0.64155379  1.0
  C  C63  1  0.50110357  0.52203349  0.89319007  1.0
  C  C64  1  0.50161598  0.39785903  0.67084205  1.0
  C  C65  1  0.50187293  0.40691415  0.71949548  1.0
  C  C66  1  0.50289487  0.60200136  0.86391411  1.0
  C  C67  1  0.50276295  0.59294410  0.81526852  1.0
  C  C68  1  0.49876865  0.43344185  0.87064292  1.0
  C  C69  1  0.49840980  0.42395922  0.82242743  1.0
  C  C70  1  0.49829937  0.56641627  0.66411021  1.0
  C  C71  1  0.49834149  0.57590459  0.71232377  1.0
  C  C72  1  0.50028062  0.49580768  0.74153469  1.0
  C  C73  1  0.50053265  0.50406784  0.79324197  1.0
  C  C74  1  0.86794329  0.44859281  0.50041037  1.0
  C  C75  1  0.85458978  0.61944317  0.49979380  1.0
  C  C76  1  0.95837671  0.62660000  0.50132903  1.0
  C  C77  1  0.02353596  0.54565306  0.50177505  1.0
  C  C78  1  0.13051216  0.55126821  0.50053683  1.0
  C  C79  1  0.14404954  0.38051954  0.49778508  1.0
  C  C80  1  0.04023197  0.37322552  0.49994974  1.0
  C  C81  1  0.97498316  0.45410101  0.50141748  1.0
  C  C82  1  0.80890261  0.52951581  0.49961135  1.0
  C  C83  1  0.18968365  0.47050331  0.49848359  1.0
  C  C84  1  0.57524451  0.80487315  0.07027045  1.0
  C  C85  1  0.57157479  0.90347033  0.06829045  1.0
  C  C86  1  0.42564732  0.19544683  0.00237912  1.0
  C  C87  1  0.42935866  0.09686382  0.00427959  1.0
  C  C88  1  0.55137856  0.20880176  0.05765966  1.0
  C  C89  1  0.56040003  0.11154923  0.06153043  1.0
  C  C90  1  0.45220445  0.79145483  0.01362763  1.0
  C  C91  1  0.44356253  0.88871447  0.00957597  1.0
  C  C92  1  0.50432757  0.94777749  0.03739893  1.0
  C  C93  1  0.49810928  0.05243583  0.03443841  1.0
  C  C94  1  0.86831732  0.55279078  0.03469576  1.0
  C  C95  1  0.85609420  0.38191257  0.03555750  1.0
  C  C96  1  0.95998661  0.37492021  0.03438426  1.0
  C  C97  1  0.02457900  0.45596079  0.03389039  1.0
  C  C98  1  0.13156875  0.45046378  0.03512521  1.0
  C  C99  1  0.14395815  0.62123097  0.03795008  1.0
  C  C100  1  0.04013879  0.62840356  0.03573316  1.0
  C  C101  1  0.97541608  0.54746920  0.03407387  1.0
  C  C102  1  0.80979346  0.47177986  0.03532644  1.0
  C  C103  1  0.19018836  0.53129543  0.03713638  1.0
  Br  Br104  1  0.66693438  0.25228905  0.42204105  1.0
  Br  Br105  1  0.33129405  0.74882763  0.57376870  1.0
  Br  Br106  1  0.50344543  0.27022045  0.64865520  1.0
  Br  Br107  1  0.50584351  0.72961693  0.88610666  1.0
  Br  Br108  1  0.66575913  0.74774853  0.11269926  1.0
  Br  Br109  1  0.33254503  0.25288270  0.96114492  1.0
  N  N110  1  0.51695748  0.25135988  0.49091298  1.0
  N  N111  1  0.48330894  0.74962398  0.50587555  1.0
  N  N112  1  0.51709067  0.74923046  0.04366817  1.0
  N  N113  1  0.48475260  0.25113350  0.02846458  1.0
  N  N114  1  0.50490601  0.72369439  0.26651114  1.0
  N  N115  1  0.50472417  0.27585633  0.26799759  1.0
  N  N116  1  0.99934176  0.27594907  0.50097238  1.0
  N  N117  1  0.99914091  0.72379872  0.50268904  1.0
  N  N118  1  0.99875048  0.72569522  0.03483596  1.0
  N  N119  1  0.00136970  0.27773956  0.03353272  1.0
  O  O120  1  0.50515429  0.40152215  0.56646971  1.0
  O  O121  1  0.49551713  0.56117013  0.57044963  1.0
  O  O122  1  0.33895302  0.56220114  0.49781567  1.0
  O  O123  1  0.35335225  0.40187548  0.49633006  1.0
  O  O124  1  0.49440907  0.60034622  0.43022257  1.0
  O  O125  1  0.50109487  0.44000418  0.42479402  1.0
  O  O126  1  0.65908990  0.43876383  0.49687599  1.0
  O  O127  1  0.64571169  0.59905987  0.49983950  1.0
  O  O128  1  0.50347312  0.59833863  0.96827996  1.0
  O  O129  1  0.49926759  0.43852262  0.96424564  1.0
  O  O130  1  0.34012498  0.43986606  0.03655701  1.0
  O  O131  1  0.35334428  0.60011404  0.03963803  1.0
  O  O132  1  0.49351214  0.39932003  0.10437968  1.0
  O  O133  1  0.50240403  0.55955760  0.10976341  1.0
  O  O134  1  0.65938147  0.56248302  0.03673633  1.0
  O  O135  1  0.64700477  0.40208571  0.03553077  1.0
  O  O136  1  0.55827958  0.73859617  0.23139052  1.0
  O  O137  1  0.45529581  0.78502321  0.28757346  1.0
  O  O138  1  0.55774285  0.26074552  0.30306071  1.0
  O  O139  1  0.45538432  0.21469210  0.24699370  1.0
  O  O140  1  0.92277528  0.26060232  0.52514837  1.0
  O  O141  1  0.04603921  0.21493072  0.47827214  1.0
  O  O142  1  0.07498527  0.73910636  0.52715811  1.0
  O  O143  1  0.95316959  0.78491607  0.47992543  1.0
  O  O144  1  0.92239940  0.74117670  0.01072301  1.0
  O  O145  1  0.04484483  0.78660977  0.05757563  1.0
  O  O146  1  0.07795216  0.26200039  0.00932674  1.0
  O  O147  1  0.95515715  0.21703696  0.05647427  1.0
