# generated using pymatgen
data_ZnH8C15(N2Cl)2
_symmetry_space_group_name_H-M   'P 1'
_cell_length_a   17.58362635
_cell_length_b   19.40201870
_cell_length_c   20.61595048
_cell_angle_alpha   101.18672338
_cell_angle_beta   89.98299700
_cell_angle_gamma   89.99726631
_symmetry_Int_Tables_number   1
_chemical_formula_structural   ZnH8C15(N2Cl)2
_chemical_formula_sum   'Zn8 H64 C120 N32 Cl16'
_cell_volume   6899.66133348
_cell_formula_units_Z   8
loop_
 _symmetry_equiv_pos_site_id
 _symmetry_equiv_pos_as_xyz
  1  'x, y, z'
loop_
 _atom_site_type_symbol
 _atom_site_label
 _atom_site_symmetry_multiplicity
 _atom_site_fract_x
 _atom_site_fract_y
 _atom_site_fract_z
 _atom_site_occupancy
  Zn  Zn0  1  0.03024968  0.05198625  0.43936682  1.0
  Zn  Zn1  1  0.96970924  0.94805308  0.56060877  1.0
  Zn  Zn2  1  0.46969004  0.55208512  0.93962037  1.0
  Zn  Zn3  1  0.53036405  0.44786520  0.06033697  1.0
  Zn  Zn4  1  0.86553892  0.05991708  0.54266055  1.0
  Zn  Zn5  1  0.13445856  0.94010501  0.45735108  1.0
  Zn  Zn6  1  0.36595090  0.43950574  0.95684205  1.0
  Zn  Zn7  1  0.63409748  0.56044094  0.04312876  1.0
  H  H8  1  0.98220958  0.91243795  0.32678172  1.0
  H  H9  1  0.05304068  0.65947263  0.76900294  1.0
  H  H10  1  0.79559085  0.87919058  0.90639595  1.0
  H  H11  1  0.20451643  0.12069436  0.09354670  1.0
  H  H12  1  0.29724622  0.62195331  0.59373219  1.0
  H  H13  1  0.70269185  0.37815523  0.40636673  1.0
  H  H14  1  0.44725211  0.16125465  0.27021734  1.0
  H  H15  1  0.55278500  0.83872734  0.72979998  1.0
  H  H16  1  0.98519091  0.79935649  0.58991740  1.0
  H  H17  1  0.01476019  0.20072608  0.41011249  1.0
  H  H18  1  0.11234862  0.11432028  0.31831006  1.0
  H  H19  1  0.01764741  0.08769277  0.67316094  1.0
  H  H20  1  0.88761167  0.88563417  0.68162986  1.0
  H  H21  1  0.61205963  0.38582973  0.18170379  1.0
  H  H22  1  0.38795035  0.61419685  0.81834846  1.0
  H  H23  1  0.48437032  0.70087201  0.91061707  1.0
  H  H24  1  0.51568380  0.29909212  0.08937625  1.0
  H  H25  1  0.70407093  0.00950302  0.62318674  1.0
  H  H26  1  0.29589471  0.99051871  0.37681597  1.0
  H  H27  1  0.78058479  0.17694878  0.46672937  1.0
  H  H28  1  0.21939398  0.82311496  0.53341603  1.0
  H  H29  1  0.28138110  0.32203906  0.03275088  1.0
  H  H30  1  0.85976755  0.11758690  0.78372848  1.0
  H  H31  1  0.71869794  0.67788519  0.96716225  1.0
  H  H32  1  0.20473188  0.48927124  0.87576856  1.0
  H  H33  1  0.79528931  0.51070754  0.12422748  1.0
  H  H34  1  0.21083642  0.79795683  0.38640673  1.0
  H  H35  1  0.78914600  0.20202140  0.61370252  1.0
  H  H36  1  0.18395797  0.10069258  0.52020414  1.0
  H  H37  1  0.81595116  0.89940627  0.47976937  1.0
  H  H38  1  0.68460985  0.39997802  0.97985553  1.0
  H  H39  1  0.31541168  0.59994190  0.02011727  1.0
  H  H40  1  0.71037880  0.70220746  0.11409947  1.0
  H  H41  1  0.14025103  0.88218274  0.21625454  1.0
  H  H42  1  0.28954209  0.29783253  0.88580314  1.0
  H  H43  1  0.69378212  0.16475398  0.83338752  1.0
  H  H44  1  0.30565465  0.83496392  0.16636183  1.0
  H  H45  1  0.78330198  0.89228169  0.26493538  1.0
  H  H46  1  0.21691645  0.10773805  0.73475255  1.0
  H  H47  1  0.28088134  0.60687388  0.23402629  1.0
  H  H48  1  0.71968925  0.39305344  0.76632100  1.0
  H  H49  1  0.19620552  0.33513818  0.66513274  1.0
  H  H50  1  0.80336118  0.66512609  0.33508802  1.0
  H  H51  1  0.33598321  0.73275192  0.31532231  1.0
  H  H52  1  0.36045388  0.38211991  0.71574223  1.0
  H  H53  1  0.66444623  0.26745429  0.68463515  1.0
  H  H54  1  0.25048973  0.20898949  0.58511853  1.0
  H  H55  1  0.74911119  0.79148542  0.41477814  1.0
  H  H56  1  0.74930924  0.28947273  0.91485720  1.0
  H  H57  1  0.25022381  0.70997792  0.08529172  1.0
  H  H58  1  0.83718844  0.76507152  0.18502627  1.0
  H  H59  1  0.16299868  0.23475036  0.81498304  1.0
  H  H60  1  0.76862589  0.29680427  0.46464460  1.0
  H  H61  1  0.23129062  0.70332182  0.53548825  1.0
  H  H62  1  0.62973415  0.90115697  0.66000770  1.0
  H  H63  1  0.63958609  0.61798531  0.28422964  1.0
  H  H64  1  0.37026329  0.09885548  0.34000461  1.0
  H  H65  1  0.12989750  0.59680825  0.83863036  1.0
  H  H66  1  0.87010206  0.40318180  0.16144938  1.0
  H  H67  1  0.27028159  0.20200248  0.03503010  1.0
  H  H68  1  0.72982283  0.79787657  0.96489329  1.0
  H  H69  1  0.48172768  0.58710343  0.17302250  1.0
  H  H70  1  0.51832623  0.41280486  0.82693363  1.0
  H  H71  1  0.94692718  0.34056459  0.23113899  1.0
  C  C72  1  0.94539439  0.91927575  0.37007654  1.0
  C  C73  1  0.63420880  0.25835555  0.79434055  1.0
  C  C74  1  0.76903606  0.78571425  0.36372134  1.0
  C  C75  1  0.73011334  0.28472092  0.86370037  1.0
  C  C76  1  0.26964865  0.71491983  0.13638788  1.0
  C  C77  1  0.81667638  0.77139288  0.23591921  1.0
  C  C78  1  0.18338515  0.22857320  0.76406464  1.0
  C  C79  1  0.70032960  0.21560758  0.81863411  1.0
  C  C80  1  0.29937745  0.78417017  0.18125206  1.0
  C  C81  1  0.78745435  0.84132378  0.27978110  1.0
  C  C82  1  0.21261072  0.15876061  0.72001243  1.0
  C  C83  1  0.28611434  0.65803571  0.21969603  1.0
  C  C84  1  0.27944113  0.19964053  0.69511826  1.0
  C  C85  1  0.71420087  0.34185323  0.78049568  1.0
  C  C86  1  0.20154959  0.28446759  0.68045679  1.0
  C  C87  1  0.79813412  0.71573755  0.31963894  1.0
  C  C88  1  0.75084990  0.22926007  0.75897188  1.0
  C  C89  1  0.24913979  0.77055647  0.24110411  1.0
  C  C90  1  0.83655358  0.82782668  0.34028108  1.0
  C  C91  1  0.16329331  0.17233348  0.65965706  1.0
  C  C92  1  0.33619274  0.67162188  0.15973334  1.0
  C  C93  1  0.66380743  0.32823576  0.84027835  1.0
  C  C94  1  0.25101823  0.27085655  0.74069367  1.0
  C  C95  1  0.72047562  0.80059428  0.30464275  1.0
  C  C96  1  0.74888990  0.72926624  0.25925805  1.0
  C  C97  1  0.77993077  0.29970349  0.80537900  1.0
  C  C98  1  0.22011665  0.69996315  0.19490129  1.0
  C  C99  1  0.86551285  0.75702268  0.29536013  1.0
  C  C100  1  0.13433791  0.24302528  0.70477269  1.0
  C  C101  1  0.86180813  0.27359745  0.39530112  1.0
  C  C102  1  0.13814073  0.72652076  0.60485670  1.0
  C  C103  1  0.72771035  0.91570876  0.72439366  1.0
  C  C104  1  0.05448192  0.08085450  0.62987803  1.0
  C  C105  1  0.27229788  0.08429563  0.27560142  1.0
  C  C106  1  0.22844364  0.58351816  0.77489252  1.0
  C  C107  1  0.77153735  0.41651452  0.22517254  1.0
  C  C108  1  0.36290811  0.22612902  0.10474056  1.0
  C  C109  1  0.63714762  0.77380938  0.89522792  1.0
  C  C110  1  0.24370901  0.64576977  0.61292042  1.0
  C  C111  1  0.75623308  0.35435026  0.38719516  1.0
  C  C112  1  0.39059584  0.14270667  0.25426419  1.0
  C  C113  1  0.60943277  0.85728001  0.74574411  1.0
  C  C114  1  0.89002718  0.35860892  0.24683271  1.0
  C  C115  1  0.85091622  0.12994217  0.73504561  1.0
  C  C116  1  0.10994191  0.64144697  0.75329149  1.0
  C  C117  1  0.74234754  0.85491596  0.88707881  1.0
  C  C118  1  0.25774283  0.14500769  0.11288199  1.0
  C  C119  1  0.20693565  0.69178231  0.58083823  1.0
  C  C120  1  0.79299391  0.30833875  0.41929770  1.0
  C  C121  1  0.34770064  0.10724048  0.29287925  1.0
  C  C122  1  0.65229618  0.89275945  0.70712782  1.0
  C  C123  1  0.84724535  0.39421493  0.20828835  1.0
  C  C124  1  0.15274474  0.60582476  0.79180785  1.0
  C  C125  1  0.70564597  0.80900159  0.91933130  1.0
  C  C126  1  0.14909125  0.86989455  0.26496944  1.0
  C  C127  1  0.29444264  0.19090494  0.08060847  1.0
  C  C128  1  0.10498193  0.70625662  0.65978273  1.0
  C  C129  1  0.89497720  0.29387005  0.34038534  1.0
  C  C130  1  0.24585384  0.09229378  0.21371425  1.0
  C  C131  1  0.75419633  0.90767238  0.78626067  1.0
  C  C132  1  0.74465599  0.40785317  0.28675553  1.0
  C  C133  1  0.25530757  0.59222728  0.71331758  1.0
  C  C134  1  0.60417814  0.79340668  0.83992296  1.0
  C  C135  1  0.39588055  0.20656204  0.16005886  1.0
  C  C136  1  0.14094049  0.65873601  0.69494455  1.0
  C  C137  1  0.35158398  0.36975576  0.76443693  1.0
  C  C138  1  0.85902372  0.34137730  0.30520093  1.0
  C  C139  1  0.28710965  0.13058231  0.17292244  1.0
  C  C140  1  0.71296033  0.86936495  0.82705580  1.0
  C  C141  1  0.78588750  0.36948468  0.32750288  1.0
  C  C142  1  0.21406871  0.63061241  0.67260270  1.0
  C  C143  1  0.64013634  0.84070245  0.80449788  1.0
  C  C144  1  0.35992976  0.15927047  0.19549578  1.0
  C  C145  1  0.03951358  0.81462773  0.57234745  1.0
  C  C146  1  0.96043802  0.18544336  0.42770003  1.0
  C  C147  1  0.14972122  0.08159077  0.34131407  1.0
  C  C148  1  0.64841442  0.63033592  0.23552229  1.0
  C  C149  1  0.85024031  0.91839014  0.65864026  1.0
  C  C150  1  0.64939895  0.41881102  0.15893666  1.0
  C  C151  1  0.35061326  0.58119953  0.84109256  1.0
  C  C152  1  0.53875966  0.68578132  0.92821768  1.0
  C  C153  1  0.46129959  0.31418455  0.07176519  1.0
  C  C154  1  0.75618137  0.98087447  0.62808211  1.0
  C  C155  1  0.24379110  0.01914469  0.37190477  1.0
  C  C156  1  0.84139902  0.17325645  0.45746293  1.0
  C  C157  1  0.15857585  0.82682074  0.54266435  1.0
  C  C158  1  0.34218531  0.32593158  0.04200423  1.0
  C  C159  1  0.44490277  0.58015254  0.12975895  1.0
  C  C160  1  0.65789308  0.67397801  0.95792159  1.0
  C  C161  1  0.25667420  0.51822713  0.87114194  1.0
  C  C162  1  0.74334473  0.48175792  0.12887037  1.0
  C  C163  1  0.18577928  0.82655042  0.35126096  1.0
  C  C164  1  0.81420580  0.17337728  0.64880950  1.0
  C  C165  1  0.13793309  0.08823847  0.55099790  1.0
  C  C166  1  0.86196021  0.91187612  0.44896292  1.0
  C  C167  1  0.63860280  0.41240611  0.94906014  1.0
  C  C168  1  0.36141872  0.58751309  0.05091863  1.0
  C  C169  1  0.68520665  0.67366570  0.14923515  1.0
  C  C170  1  0.55514941  0.41975145  0.87020321  1.0
  C  C171  1  0.31475977  0.32639035  0.85069594  1.0
  C  C172  1  0.88013978  0.88222445  0.38386795  1.0
  C  C173  1  0.11969973  0.11794163  0.61607803  1.0
  C  C174  1  0.80005349  0.17917580  0.71638604  1.0
  C  C175  1  0.19994605  0.82067624  0.28367837  1.0
  C  C176  1  0.30053872  0.32069409  0.78315197  1.0
  C  C177  1  0.69942221  0.67940540  0.21678874  1.0
  C  C178  1  0.37957190  0.61712055  0.11603349  1.0
  C  C179  1  0.62042202  0.38273609  0.88396680  1.0
  C  C180  1  0.11169368  0.78410216  0.57417162  1.0
  C  C181  1  0.36573312  0.74166412  0.20547257  1.0
  C  C182  1  0.88826935  0.21599894  0.42596317  1.0
  C  C183  1  0.22465964  0.06014481  0.32491874  1.0
  C  C184  1  0.77532705  0.93987220  0.67506568  1.0
  C  C185  1  0.72413111  0.44059458  0.17570049  1.0
  C  C186  1  0.27588051  0.55941307  0.82432729  1.0
  C  C187  1  0.61084116  0.71642109  0.92624067  1.0
  C  C188  1  0.38922763  0.28350709  0.07370566  1.0
  C  C189  1  0.31594375  0.72722991  0.26434776  1.0
  C  C190  1  0.68429153  0.27280827  0.73565457  1.0
  C  C191  1  0.23067276  0.21460127  0.63619264  1.0
  N  N192  1  0.96425423  0.96720877  0.42376139  1.0
  N  N193  1  0.95618278  0.12918122  0.45686797  1.0
  N  N194  1  0.12701137  0.05592452  0.39397589  1.0
  N  N195  1  0.87294340  0.94407175  0.60598014  1.0
  N  N196  1  0.62689451  0.44439753  0.10617422  1.0
  N  N197  1  0.37314194  0.55555997  0.89382370  1.0
  N  N198  1  0.54323238  0.62966268  0.95758220  1.0
  N  N199  1  0.45682906  0.37027735  0.04237532  1.0
  N  N200  1  0.81502409  0.98311465  0.58673394  1.0
  N  N201  1  0.18492963  0.01690418  0.41324202  1.0
  N  N202  1  0.88209355  0.12099382  0.47477330  1.0
  N  N203  1  0.03567867  0.03286144  0.57621810  1.0
  N  N204  1  0.11788293  0.87904277  0.52526339  1.0
  N  N205  1  0.38269672  0.37819249  0.02448455  1.0
  N  N206  1  0.61736471  0.62174464  0.97547154  1.0
  N  N207  1  0.31529416  0.51620606  0.91274211  1.0
  N  N208  1  0.68474001  0.48374617  0.08724847  1.0
  N  N209  1  0.13071583  0.87578138  0.37005478  1.0
  N  N210  1  0.86931211  0.12418751  0.62997967  1.0
  N  N211  1  0.08738537  0.03632066  0.52633452  1.0
  N  N212  1  0.91255711  0.96373285  0.47364875  1.0
  N  N213  1  0.58795172  0.46424183  0.97376806  1.0
  N  N214  1  0.89140098  0.09669580  0.68332645  1.0
  N  N215  1  0.41210461  0.53570127  0.02619388  1.0
  N  N216  1  0.62992824  0.62464842  0.13047891  1.0
  N  N217  1  0.37009695  0.37532305  0.86946663  1.0
  N  N218  1  0.10862505  0.90321995  0.31667820  1.0
  N  N219  1  0.39226034  0.40280131  0.81612570  1.0
  N  N220  1  0.60779679  0.59719650  0.18384565  1.0
  N  N221  1  0.46379899  0.53225375  0.07605584  1.0
  N  N222  1  0.53625785  0.46767280  0.92389449  1.0
  N  N223  1  0.04378921  0.87086670  0.54315263  1.0
  Cl  Cl224  1  0.46103767  0.76720511  0.21165009  1.0
  Cl  Cl225  1  0.01962215  0.74340159  0.69199688  1.0
  Cl  Cl226  1  0.84182279  0.94270634  0.81457398  1.0
  Cl  Cl227  1  0.15826530  0.05721150  0.18536111  1.0
  Cl  Cl228  1  0.34331412  0.55788768  0.68524068  1.0
  Cl  Cl229  1  0.65661804  0.44215432  0.31478501  1.0
  Cl  Cl230  1  0.48086932  0.24439023  0.19241352  1.0
  Cl  Cl231  1  0.51918263  0.75559752  0.80757937  1.0
  Cl  Cl232  1  0.53884899  0.23298950  0.78787339  1.0
  Cl  Cl233  1  0.37407531  0.17219127  0.68882540  1.0
  Cl  Cl234  1  0.62586697  0.82810454  0.31068825  1.0
  Cl  Cl235  1  0.87496066  0.32585468  0.81257047  1.0
  Cl  Cl236  1  0.12516602  0.67353500  0.18801375  1.0
  Cl  Cl237  1  0.96043557  0.73022887  0.29011943  1.0
  Cl  Cl238  1  0.03936887  0.26967508  0.71021018  1.0
  Cl  Cl239  1  0.98032667  0.25670413  0.30814676  1.0
