# generated using pymatgen
data_Zn2H41C48N7O10
_symmetry_space_group_name_H-M   'P 1'
_cell_length_a   10.88648725
_cell_length_b   14.62706151
_cell_length_c   15.11173371
_cell_angle_alpha   97.65749214
_cell_angle_beta   92.89273141
_cell_angle_gamma   106.74222618
_symmetry_Int_Tables_number   1
_chemical_formula_structural   Zn2H41C48N7O10
_chemical_formula_sum   'Zn2 H41 C48 N7 O10'
_cell_volume   2273.76809281
_cell_formula_units_Z   1
loop_
 _symmetry_equiv_pos_site_id
 _symmetry_equiv_pos_as_xyz
  1  'x, y, z'
loop_
 _atom_site_type_symbol
 _atom_site_label
 _atom_site_symmetry_multiplicity
 _atom_site_fract_x
 _atom_site_fract_y
 _atom_site_fract_z
 _atom_site_occupancy
  Zn  Zn0  1  0.55193505  0.58812335  0.47855498  1.0
  Zn  Zn1  1  0.47801996  0.40019372  0.51871299  1.0
  H  H2  1  0.15102247  0.61164227  0.43734606  1.0
  H  H3  1  0.39508323  0.46802377  0.77725646  1.0
  H  H4  1  0.19190376  0.64141166  0.55388442  1.0
  H  H5  1  0.22154471  0.20705377  0.08484955  1.0
  H  H6  1  0.23094243  0.94273928  0.61930520  1.0
  H  H7  1  0.46267223  0.75264538  0.52148809  1.0
  H  H8  1  0.72642659  0.69725702  0.35256791  1.0
  H  H9  1  0.76710586  0.03502094  0.34528615  1.0
  H  H10  1  0.27372475  0.28100923  0.61320916  1.0
  H  H11  1  0.58000664  0.23905571  0.48293410  1.0
  H  H12  1  0.35210917  0.83469041  0.55983051  1.0
  H  H13  1  0.86752312  0.36710828  0.57492305  1.0
  H  H14  1  0.65927759  0.14645497  0.41721996  1.0
  H  H15  1  0.79161741  0.86741147  0.31726796  1.0
  H  H16  1  0.95069289  0.63394029  0.46991616  1.0
  H  H17  1  0.08759142  0.43781058  0.35984145  1.0
  H  H18  1  0.08388299  0.37416487  0.58385682  1.0
  H  H19  1  0.90985164  0.47693631  0.64945732  1.0
  H  H20  1  0.40175323  0.83590960  0.00980217  1.0
  H  H21  1  0.36643799  0.79980148  0.10919999  1.0
  H  H22  1  0.33989272  0.60941943  0.20491774  1.0
  H  H23  1  0.44293383  0.71692470  0.19727744  1.0
  H  H24  1  0.04075350  0.34515473  0.42631325  1.0
  H  H25  1  0.18088147  0.43138258  0.79068078  1.0
  H  H26  1  0.11206412  0.32110666  0.81687761  1.0
  H  H27  1  0.06151550  0.18210688  0.61423883  1.0
  H  H28  1  0.15605493  0.21845839  0.72083029  1.0
  H  H29  1  0.01787094  0.11214738  0.70314107  1.0
  H  H30  1  0.90304963  0.74716247  0.56868660  1.0
  H  H31  1  0.07647271  0.78427142  0.58326829  1.0
  H  H32  1  0.98547001  0.77226703  0.67901611  1.0
  H  H33  1  0.94626355  0.53285546  0.33086559  1.0
  H  H34  1  0.85310576  0.42632709  0.28487392  1.0
  H  H35  1  0.83444970  0.36234979  0.41443833  1.0
  H  H36  1  0.23968006  0.51662732  0.67222892  1.0
  H  H37  1  0.12323288  0.56630282  0.68699959  1.0
  H  H38  1  0.46686903  0.54408249  0.21301737  1.0
  H  H39  1  0.32629542  0.24698242  0.24190873  1.0
  H  H40  1  0.16509415  0.25963170  0.94324340  1.0
  H  H41  1  0.50593702  0.81709389  0.89913638  1.0
  H  H42  1  0.54903066  0.76443951  0.74425735  1.0
  C  C43  1  0.51134258  0.57937083  0.66226251  1.0
  C  C44  1  0.38152122  0.57078944  0.89106357  1.0
  C  C45  1  0.42039475  0.67142208  0.92764277  1.0
  C  C46  1  0.26771861  0.48199897  0.49769757  1.0
  C  C47  1  0.32736400  0.49982271  0.94721661  1.0
  C  C48  1  0.35033929  0.52822868  0.04157973  1.0
  C  C49  1  0.37763446  0.62905369  0.07638786  1.0
  C  C50  1  0.40224999  0.69837398  0.01922966  1.0
  C  C51  1  0.24859346  0.40249064  0.91284411  1.0
  C  C52  1  0.22420313  0.33333333  0.96946716  1.0
  C  C53  1  0.27806764  0.35498592  0.05964627  1.0
  C  C54  1  0.89277002  0.49246239  0.50892580  1.0
  C  C55  1  0.34206935  0.45376416  0.09754074  1.0
  C  C56  1  0.27218731  0.28183050  0.11390747  1.0
  C  C57  1  0.33097668  0.30316221  0.20036965  1.0
  C  C58  1  0.46543358  0.42749370  0.32894171  1.0
  C  C59  1  0.40598323  0.47220301  0.18423950  1.0
  C  C60  1  0.28078224  0.13238266  0.60322232  1.0
  C  C61  1  0.32312341  0.22835376  0.59105060  1.0
  C  C62  1  0.49599152  0.20421978  0.51564075  1.0
  C  C63  1  0.46017763  0.10511764  0.52337993  1.0
  C  C64  1  0.35100821  0.06833596  0.57053706  1.0
  C  C65  1  0.90704438  0.43329212  0.41846139  1.0
  C  C66  1  0.52830395  0.04051203  0.48448099  1.0
  C  C67  1  0.48987926  0.94284830  0.49878057  1.0
  C  C68  1  0.38271222  0.90983399  0.54922298  1.0
  C  C69  1  0.31430382  0.96975638  0.58283999  1.0
  C  C70  1  0.75299220  0.49396706  0.51001991  1.0
  C  C71  1  0.63059727  0.07177657  0.42932198  1.0
  C  C72  1  0.69141695  0.00978269  0.38875109  1.0
  C  C73  1  0.65717022  0.91148625  0.40267010  1.0
  C  C74  1  0.55829162  0.87856591  0.45959648  1.0
  C  C75  1  0.71760081  0.84481800  0.36256956  1.0
  C  C76  1  0.92985670  0.44221308  0.58513052  1.0
  C  C77  1  0.68327122  0.75169968  0.38153479  1.0
  C  C78  1  0.53268369  0.78253512  0.47594073  1.0
  C  C79  1  0.12243766  0.58993020  0.50200938  1.0
  C  C80  1  0.98588058  0.59507047  0.51819930  1.0
  C  C81  1  0.04423751  0.42037308  0.42207127  1.0
  C  C82  1  0.07406075  0.44741068  0.58857142  1.0
  C  C83  1  0.13012113  0.48698276  0.50362787  1.0
  C  C84  1  0.09840945  0.15613468  0.67218555  1.0
  C  C85  1  0.98758458  0.74186695  0.60887777  1.0
  C  C86  1  0.47577027  0.61226604  0.75271137  1.0
  C  C87  1  0.40133397  0.39950615  0.23576094  1.0
  C  C88  1  0.47669925  0.74022966  0.87213406  1.0
  C  C89  1  0.50299989  0.71165788  0.78614267  1.0
  C  C90  1  0.41376772  0.54401615  0.80424785  1.0
  N  N91  1  0.42991306  0.26219404  0.54860299  1.0
  N  N92  1  0.59325086  0.72217895  0.43910470  1.0
  N  N93  1  0.41828164  0.79457821  0.05532670  1.0
  N  N94  1  0.36532416  0.66244036  0.16638620  1.0
  N  N95  1  0.19365046  0.37784449  0.82451411  1.0
  N  N96  1  0.87181984  0.47577869  0.34197291  1.0
  N  N97  1  0.14227790  0.50145210  0.67475419  1.0
  O  O98  1  0.54568111  0.64299824  0.61079826  1.0
  O  O99  1  0.98377432  0.64390096  0.60742914  1.0
  O  O100  1  0.50187756  0.48996884  0.64194276  1.0
  O  O101  1  0.34951235  0.55306048  0.47298823  1.0
  O  O102  1  0.28989299  0.40593413  0.51737927  1.0
  O  O103  1  0.53123544  0.51613416  0.35205754  1.0
  O  O104  1  0.44667470  0.36314773  0.38022438  1.0
  O  O105  1  0.72946365  0.57291981  0.50354593  1.0
  O  O106  1  0.66976135  0.41405933  0.51643274  1.0
  O  O107  1  0.17391964  0.09342216  0.64401488  1.0
