# generated using pymatgen
data_Zn2H37C56N7O18
_symmetry_space_group_name_H-M   'P 1'
_cell_length_a   9.89819801
_cell_length_b   10.96215521
_cell_length_c   23.55726382
_cell_angle_alpha   86.63978843
_cell_angle_beta   89.89275107
_cell_angle_gamma   86.83406345
_symmetry_Int_Tables_number   1
_chemical_formula_structural   Zn2H37C56N7O18
_chemical_formula_sum   'Zn2 H37 C56 N7 O18'
_cell_volume   2547.80327302
_cell_formula_units_Z   1
loop_
 _symmetry_equiv_pos_site_id
 _symmetry_equiv_pos_as_xyz
  1  'x, y, z'
loop_
 _atom_site_type_symbol
 _atom_site_label
 _atom_site_symmetry_multiplicity
 _atom_site_fract_x
 _atom_site_fract_y
 _atom_site_fract_z
 _atom_site_occupancy
  Zn  Zn0  1  0.64718561  0.49018431  0.49913143  1.0
  Zn  Zn1  1  0.35060838  0.50334583  0.49979172  1.0
  H  H2  1  0.25938501  0.34436203  0.05893153  1.0
  H  H3  1  0.24178129  0.35476095  0.95133109  1.0
  H  H4  1  0.29960064  0.60919905  0.32691052  1.0
  H  H5  1  0.70157272  0.44554999  0.31345196  1.0
  H  H6  1  0.68424665  0.47229363  0.20695544  1.0
  H  H7  1  0.40328600  0.74125422  0.76011690  1.0
  H  H8  1  0.42460518  0.70055645  0.65720705  1.0
  H  H9  1  0.54355350  0.36876369  0.80351480  1.0
  H  H10  1  0.32442033  0.91118813  0.45070682  1.0
  H  H11  1  0.65419873  0.73836181  0.58675498  1.0
  H  H12  1  0.83711945  0.81954780  0.64080509  1.0
  H  H13  1  0.73540117  0.18266244  0.56881350  1.0
  H  H14  1  0.24039229  0.65249113  0.41797470  1.0
  H  H15  1  0.10867973  0.79821263  0.35278232  1.0
  H  H16  1  0.85672856  0.81502403  0.35783212  1.0
  H  H17  1  0.73613951  0.68085709  0.42769058  1.0
  H  H18  1  0.87101552  0.38216530  0.56516045  1.0
  H  H19  1  0.38762174  0.20519793  0.72003341  1.0
  H  H20  1  0.39878497  0.25495275  0.64699324  1.0
  H  H21  1  0.49317306  0.12100481  0.67300580  1.0
  H  H22  1  0.64322764  0.29609045  0.66002309  1.0
  H  H23  1  0.63595313  0.24334136  0.73220781  1.0
  H  H24  1  0.85534301  0.23010506  0.65935617  1.0
  H  H25  1  0.84155032  0.11152178  0.71316609  1.0
  H  H26  1  0.00201814  0.16916608  0.69635738  1.0
  H  H27  1  0.98515882  0.96850071  0.65407101  1.0
  H  H28  1  0.99490221  0.08500661  0.60002439  1.0
  H  H29  1  0.17740032  0.50324506  0.63865521  1.0
  H  H30  1  0.01862431  0.43667786  0.65175804  1.0
  H  H31  1  0.17186822  0.35674660  0.67444283  1.0
  H  H32  1  0.08943734  0.26909549  0.58606743  1.0
  H  H33  1  0.24487333  0.33711754  0.57257216  1.0
  H  H34  1  0.27316081  0.83680478  0.26405681  1.0
  H  H35  1  0.35466576  0.84464476  0.19713868  1.0
  H  H36  1  0.17484022  0.86429236  0.20094522  1.0
  H  H37  1  0.23909244  0.65354476  0.17123911  1.0
  H  H38  1  0.16221228  0.64538179  0.23861443  1.0
  C  C39  1  0.47247325  0.73341135  0.50465510  1.0
  C  C40  1  0.50697105  0.50771088  0.38959690  1.0
  C  C41  1  0.52715928  0.25925153  0.50434183  1.0
  C  C42  1  0.50855637  0.49691779  0.61019140  1.0
  C  C43  1  0.36841935  0.49984989  0.87784255  1.0
  C  C44  1  0.53843887  0.66095625  0.87103155  1.0
  C  C45  1  0.52962575  0.66904413  0.93387031  1.0
  C  C46  1  0.45580187  0.58369279  0.96708404  1.0
  C  C47  1  0.37551949  0.50035608  0.94058163  1.0
  C  C48  1  0.60179895  0.75303374  0.96163706  1.0
  C  C49  1  0.60908756  0.74934796  0.02151339  1.0
  C  C50  1  0.53868342  0.66577195  0.05496981  1.0
  C  C51  1  0.46087300  0.58160304  0.02757255  1.0
  C  C52  1  0.38964814  0.49285839  0.05976472  1.0
  C  C53  1  0.31199090  0.41188769  0.03272192  1.0
  C  C54  1  0.30329046  0.41685389  0.97320883  1.0
  C  C55  1  0.53986917  0.66633695  0.11824834  1.0
  C  C56  1  0.39988185  0.48273238  0.12259073  1.0
  C  C57  1  0.37520219  0.60384288  0.24132530  1.0
  C  C58  1  0.38491742  0.58213302  0.30026635  1.0
  C  C59  1  0.50088494  0.52594018  0.32620557  1.0
  C  C60  1  0.61124144  0.48869579  0.29286414  1.0
  C  C61  1  0.60180977  0.50449758  0.23399220  1.0
  C  C62  1  0.48513640  0.56134086  0.20902074  1.0
  C  C63  1  0.43897542  0.65150203  0.74698297  1.0
  C  C64  1  0.45208706  0.62851322  0.68970391  1.0
  C  C65  1  0.49981376  0.51339649  0.67295790  1.0
  C  C66  1  0.53370512  0.41753126  0.71366757  1.0
  C  C67  1  0.51940466  0.44171684  0.77102743  1.0
  C  C68  1  0.47288206  0.55681560  0.78728092  1.0
  C  C69  1  0.67095865  0.83566589  0.58257035  1.0
  C  C70  1  0.77412701  0.88140652  0.61256439  1.0
  C  C71  1  0.80269241  0.00682303  0.60674636  1.0
  C  C72  1  0.71697824  0.08563411  0.57358973  1.0
  C  C73  1  0.60863440  0.04259298  0.54195911  1.0
  C  C74  1  0.58859822  0.91310941  0.54479782  1.0
  C  C75  1  0.48620222  0.86743766  0.51038095  1.0
  C  C76  1  0.40284916  0.94623067  0.47663152  1.0
  C  C77  1  0.42378404  0.07169585  0.47419261  1.0
  C  C78  1  0.52204493  0.12234674  0.50584447  1.0
  C  C79  1  0.13079449  0.65901375  0.42002760  1.0
  C  C80  1  0.05627105  0.73982862  0.38370977  1.0
  C  C81  1  0.91349810  0.74916762  0.38633222  1.0
  C  C82  1  0.84578250  0.67520215  0.42474039  1.0
  C  C83  1  0.91974191  0.59036866  0.46188912  1.0
  C  C84  1  0.06482977  0.58320833  0.46069822  1.0
  C  C85  1  0.06984730  0.43644726  0.53679045  1.0
  C  C86  1  0.92608732  0.44104495  0.53536441  1.0
  C  C87  1  0.57651070  0.29022005  0.69721595  1.0
  C  C88  1  0.45674376  0.21344422  0.68359390  1.0
  C  C89  1  0.92880135  0.04909582  0.63412100  1.0
  C  C90  1  0.90544693  0.14540360  0.67814356  1.0
  C  C91  1  0.13852447  0.35700470  0.58318046  1.0
  C  C92  1  0.12515097  0.41748880  0.64043276  1.0
  C  C93  1  0.25306400  0.67466526  0.21579567  1.0
  C  C94  1  0.26431515  0.81328069  0.21952658  1.0
  N  N95  1  0.45863332  0.57479424  0.84726317  1.0
  N  N96  1  0.47685451  0.57015608  0.14754148  1.0
  N  N97  1  0.13737117  0.50494858  0.49899925  1.0
  N  N98  1  0.85362372  0.51408278  0.49933742  1.0
  N  N99  1  0.67317612  0.85117264  0.92953449  1.0
  N  N100  1  0.34021922  0.14789916  0.43241477  1.0
  N  N101  1  0.69801323  0.83642918  0.04728701  1.0
  O  O102  1  0.58330291  0.66899236  0.50188087  1.0
  O  O103  1  0.35468200  0.69509582  0.50074706  1.0
  O  O104  1  0.62321503  0.49363097  0.41253261  1.0
  O  O105  1  0.39410171  0.51034698  0.41592100  1.0
  O  O106  1  0.64209056  0.30471762  0.49997217  1.0
  O  O107  1  0.41318346  0.31750048  0.50880335  1.0
  O  O108  1  0.62409397  0.47435476  0.58818589  1.0
  O  O109  1  0.39605311  0.51153670  0.58405816  1.0
  O  O110  1  0.29220429  0.43582667  0.85329561  1.0
  O  O111  1  0.61488972  0.72277043  0.84182478  1.0
  O  O112  1  0.59190221  0.74656493  0.14353042  1.0
  O  O113  1  0.34481749  0.40394879  0.15196086  1.0
  O  O114  1  0.60133232  0.93874538  0.90989091  1.0
  O  O115  1  0.79773161  0.83878442  0.92850589  1.0
  O  O116  1  0.39928427  0.21674773  0.39839936  1.0
  O  O117  1  0.21682934  0.13298897  0.43280807  1.0
  O  O118  1  0.80980389  0.79423995  0.06375443  1.0
  O  O119  1  0.65386789  0.94396421  0.04661315  1.0
