# generated using pymatgen
data_Hf3H8C20(N3O8)2
_symmetry_space_group_name_H-M   'P 1'
_cell_length_a   15.42376946
_cell_length_b   18.92617902
_cell_length_c   18.93493077
_cell_angle_alpha   88.77997474
_cell_angle_beta   89.88618133
_cell_angle_gamma   89.90607695
_symmetry_Int_Tables_number   1
_chemical_formula_structural   Hf3H8C20(N3O8)2
_chemical_formula_sum   'Hf6 H16 C40 N12 O32'
_cell_volume   5526.08187338
_cell_formula_units_Z   2
loop_
 _symmetry_equiv_pos_site_id
 _symmetry_equiv_pos_as_xyz
  1  'x, y, z'
loop_
 _atom_site_type_symbol
 _atom_site_label
 _atom_site_symmetry_multiplicity
 _atom_site_fract_x
 _atom_site_fract_y
 _atom_site_fract_z
 _atom_site_occupancy
  Hf  Hf0  1  0.99356015  0.09863717  0.01030187  1.0
  Hf  Hf1  1  0.99689167  0.96080658  0.88738768  1.0
  Hf  Hf2  1  0.99652014  0.97296783  0.15049113  1.0
  Hf  Hf3  1  0.99377428  0.83558522  0.02789263  1.0
  Hf  Hf4  1  0.83452344  0.96744030  0.01922457  1.0
  Hf  Hf5  1  0.15615510  0.96712425  0.01919668  1.0
  H  H6  1  0.11246088  0.07815361  0.90902959  1.0
  H  H7  1  0.87460011  0.85752249  0.91451175  1.0
  H  H8  1  0.11173166  0.85585343  0.12989217  1.0
  H  H9  1  0.87800507  0.07582935  0.12695726  1.0
  H  H10  1  0.94311928  0.86975354  0.78707299  1.0
  H  H11  1  0.05106471  0.73297936  0.94501479  1.0
  H  H12  1  0.96157136  0.73339955  0.12221139  1.0
  H  H13  1  0.03998360  0.90115404  0.27468541  1.0
  H  H14  1  0.02844524  0.06682172  0.24904095  1.0
  H  H15  1  0.94708605  0.22127069  0.07787970  1.0
  H  H16  1  0.96038277  0.19986906  0.91535800  1.0
  H  H17  1  0.04545671  0.03106710  0.76736954  1.0
  H  H18  1  0.93928837  0.89377796  0.25908258  1.0
  H  H19  1  0.04780771  0.20637340  0.08742585  1.0
  H  H20  1  0.94426262  0.04238600  0.77701863  1.0
  H  H21  1  0.95315350  0.71193341  0.95933283  1.0
  C  C22  1  0.49395197  0.35977632  0.02012931  1.0
  C  C23  1  0.42137168  0.25603231  0.02568599  1.0
  C  C24  1  0.56805689  0.25673153  0.01705037  1.0
  C  C25  1  0.49539655  0.57466657  0.01840876  1.0
  C  C26  1  0.56970685  0.67735983  0.02245728  1.0
  C  C27  1  0.42314998  0.67876346  0.01300605  1.0
  C  C28  1  0.49651257  0.97028778  0.62644320  1.0
  C  C29  1  0.42244227  0.97011414  0.72966944  1.0
  C  C30  1  0.56922977  0.97637281  0.72968255  1.0
  C  C31  1  0.49491834  0.96490017  0.41184772  1.0
  C  C32  1  0.42008544  0.96589042  0.30925842  1.0
  C  C33  1  0.56685651  0.95853198  0.30792827  1.0
  C  C34  1  0.78355174  0.13165273  0.00990189  1.0
  C  C35  1  0.20779985  0.96446885  0.85596088  1.0
  C  C36  1  0.78288703  0.97680780  0.85637684  1.0
  C  C37  1  0.20733330  0.12950511  0.02807151  1.0
  C  C38  1  0.20528633  0.97199121  0.18379055  1.0
  C  C39  1  0.78440390  0.80280287  0.02871739  1.0
  C  C40  1  0.20813620  0.80480597  0.01061102  1.0
  C  C41  1  0.78149484  0.95670601  0.18144382  1.0
  C  C42  1  0.27645900  0.97105461  0.23367388  1.0
  C  C43  1  0.34053250  0.96885878  0.27087987  1.0
  C  C44  1  0.64548948  0.95480126  0.26830071  1.0
  C  C45  1  0.70933305  0.95352116  0.23066504  1.0
  C  C46  1  0.34330534  0.96755209  0.76866046  1.0
  C  C47  1  0.27957621  0.96555186  0.80642181  1.0
  C  C48  1  0.64800698  0.97966015  0.76889725  1.0
  C  C49  1  0.71126587  0.98057180  0.80698439  1.0
  C  C50  1  0.49663921  0.96831850  0.55118125  1.0
  C  C51  1  0.49594020  0.96673952  0.48711138  1.0
  C  C52  1  0.28032794  0.75572141  0.00741015  1.0
  C  C53  1  0.34441288  0.71830703  0.00892559  1.0
  C  C54  1  0.64908572  0.71580182  0.02667700  1.0
  C  C55  1  0.71302855  0.75305933  0.02918433  1.0
  C  C56  1  0.34263089  0.21667526  0.02965415  1.0
  C  C57  1  0.27900100  0.17889997  0.03106804  1.0
  C  C58  1  0.71184371  0.18122927  0.01042806  1.0
  C  C59  1  0.64746880  0.21813800  0.01308132  1.0
  C  C60  1  0.49373329  0.43513995  0.01937752  1.0
  C  C61  1  0.49452851  0.49930444  0.01891060  1.0
  N  N62  1  0.41642943  0.32719727  0.02519134  1.0
  N  N63  1  0.49509423  0.21783314  0.02198624  1.0
  N  N64  1  0.57201236  0.32788815  0.01574839  1.0
  N  N65  1  0.57349527  0.60616890  0.02349276  1.0
  N  N66  1  0.49690311  0.71660098  0.01741009  1.0
  N  N67  1  0.41807753  0.60762945  0.01291219  1.0
  N  N68  1  0.41846241  0.96781121  0.65863185  1.0
  N  N69  1  0.49563637  0.97460917  0.76814357  1.0
  N  N70  1  0.57423269  0.97445159  0.65864774  1.0
  N  N71  1  0.41659177  0.96818962  0.38032305  1.0
  N  N72  1  0.49287672  0.96100294  0.27011886  1.0
  N  N73  1  0.57226631  0.96004810  0.37896205  1.0
  O  O74  1  0.86034992  0.15637847  0.00825653  1.0
  O  O75  1  0.76155902  0.06697462  0.01209346  1.0
  O  O76  1  0.13138343  0.96597393  0.83117790  1.0
  O  O77  1  0.22980471  0.96283832  0.92072325  1.0
  O  O78  1  0.85943108  0.98308962  0.83216799  1.0
  O  O79  1  0.76099198  0.96502595  0.92047254  1.0
  O  O80  1  0.13081237  0.15293078  0.03529804  1.0
  O  O81  1  0.22964199  0.06592278  0.01633241  1.0
  O  O82  1  0.00758847  0.17076542  0.93302556  1.0
  O  O83  1  0.98951478  0.18620268  0.09391212  1.0
  O  O84  1  0.00085788  0.04795952  0.79971493  1.0
  O  O85  1  0.99098088  0.88867621  0.81348849  1.0
  O  O86  1  0.92544849  0.02116912  0.96072714  1.0
  O  O87  1  0.08365213  0.04386981  0.93999031  1.0
  O  O88  1  0.12822906  0.97285507  0.20832760  1.0
  O  O89  1  0.22791927  0.97111155  0.11931163  1.0
  O  O90  1  0.86134010  0.77808533  0.02993435  1.0
  O  O91  1  0.76207186  0.86746182  0.02578342  1.0
  O  O92  1  0.13190453  0.78138219  0.00242613  1.0
  O  O93  1  0.22961283  0.86820556  0.02372207  1.0
  O  O94  1  0.85769481  0.94838601  0.20520951  1.0
  O  O95  1  0.76005726  0.96978052  0.11744469  1.0
  O  O96  1  0.99773937  0.88705191  0.23942722  1.0
  O  O97  1  0.98165927  0.04938785  0.22022233  1.0
  O  O98  1  0.00842137  0.76281342  0.10446492  1.0
  O  O99  1  0.99075153  0.74990026  0.94199810  1.0
  O  O100  1  0.08271643  0.89060702  0.09958662  1.0
  O  O101  1  0.92497268  0.91288164  0.07680780  1.0
  O  O102  1  0.06489627  0.02331494  0.07242062  1.0
  O  O103  1  0.90751992  0.88804347  0.94498326  1.0
  O  O104  1  0.90688816  0.04595707  0.09294278  1.0
  O  O105  1  0.06521113  0.91070943  0.96587701  1.0
