# generated using pymatgen
data_Zn4C20O13F8
_symmetry_space_group_name_H-M   'P 1'
_cell_length_a   17.25049903
_cell_length_b   17.25052632
_cell_length_c   17.25070966
_cell_angle_alpha   65.19626365
_cell_angle_beta   80.73572237
_cell_angle_gamma   114.80289552
_symmetry_Int_Tables_number   1
_chemical_formula_structural   Zn4C20O13F8
_chemical_formula_sum   'Zn8 C40 O26 F16'
_cell_volume   3860.19015995
_cell_formula_units_Z   2
loop_
 _symmetry_equiv_pos_site_id
 _symmetry_equiv_pos_as_xyz
  1  'x, y, z'
loop_
 _atom_site_type_symbol
 _atom_site_label
 _atom_site_symmetry_multiplicity
 _atom_site_fract_x
 _atom_site_fract_y
 _atom_site_fract_z
 _atom_site_occupancy
  Zn  Zn0  1  0.29070468  0.58890570  0.29820024  1.0
  Zn  Zn1  1  0.70929604  0.41109503  0.70179904  1.0
  Zn  Zn2  1  0.70179813  0.58890131  0.70929679  1.0
  Zn  Zn3  1  0.29820037  0.41109600  0.29070451  1.0
  Zn  Zn4  1  0.11289451  0.41109631  0.29819936  1.0
  Zn  Zn5  1  0.88710468  0.58890353  0.70180081  1.0
  Zn  Zn6  1  0.70180043  0.41109632  0.88710620  1.0
  Zn  Zn7  1  0.29820041  0.58890481  0.11289338  1.0
  C  C8  1  0.02714234  0.50000024  0.47285638  1.0
  C  C9  1  0.59189078  0.49999989  0.90810873  1.0
  C  C10  1  0.90811091  0.49999847  0.59189276  1.0
  C  C11  1  0.09189068  0.50000213  0.40810734  1.0
  C  C12  1  0.40811220  0.50000422  0.09188995  1.0
  C  C13  1  0.38849395  0.77698445  0.11150459  1.0
  C  C14  1  0.61151190  0.22301797  0.88849086  1.0
  C  C15  1  0.61150733  0.50000062  0.61150758  1.0
  C  C16  1  0.97286052  0.50000347  0.52714201  1.0
  C  C17  1  0.38849471  0.50000212  0.38848827  1.0
  C  C18  1  0.11150943  0.22301792  0.38849037  1.0
  C  C19  1  0.88849094  0.77698153  0.61150948  1.0
  C  C20  1  0.88848946  0.49999733  0.88849435  1.0
  C  C21  1  0.11150989  0.50000444  0.11150669  1.0
  C  C22  1  0.52714632  0.50000576  0.97285489  1.0
  C  C23  1  0.44048858  0.53367324  0.50643293  1.0
  C  C24  1  0.55951620  0.46633152  0.49356229  1.0
  C  C25  1  0.90681533  0.94691776  0.55951510  1.0
  C  C26  1  0.09318330  0.05307997  0.44048649  1.0
  C  C27  1  0.95989695  0.46633988  0.09317935  1.0
  C  C28  1  0.04010111  0.53365926  0.90681943  1.0
  C  C29  1  0.49356596  0.05308021  0.04010113  1.0
  C  C30  1  0.47286052  0.50000262  0.02714370  1.0
  C  C31  1  0.50643849  0.94691869  0.95989574  1.0
  C  C32  1  0.04010274  0.94691868  0.49356812  1.0
  C  C33  1  0.95989450  0.05307859  0.50643464  1.0
  C  C34  1  0.50643456  0.46633182  0.44048327  1.0
  C  C35  1  0.49356900  0.53367179  0.55951170  1.0
  C  C36  1  0.55951757  0.05307907  0.90681643  1.0
  C  C37  1  0.44048570  0.94692022  0.09318077  1.0
  C  C38  1  0.09318282  0.53365938  0.95989734  1.0
  C  C39  1  0.90681560  0.46634253  0.04010147  1.0
  C  C40  1  0.55442654  0.49999993  0.55442047  1.0
  C  C41  1  0.44557774  0.50000469  0.44557419  1.0
  C  C42  1  0.05442272  0.10884769  0.44557673  1.0
  C  C43  1  0.94557583  0.89114961  0.55442599  1.0
  C  C44  1  0.94557525  0.49999931  0.94557734  1.0
  C  C45  1  0.05442391  0.50000206  0.05442200  1.0
  C  C46  1  0.44557947  0.89115308  0.05442194  1.0
  C  C47  1  0.55442678  0.10884754  0.94557461  1.0
  O  O48  1  0.25000072  0.50000143  0.24999864  1.0
  O  O49  1  0.61671072  0.43829135  0.94499784  1.0
  O  O50  1  0.82158349  0.43829373  0.61670996  1.0
  O  O51  1  0.17841852  0.56170857  0.38328844  1.0
  O  O52  1  0.38329255  0.43829472  0.17841645  1.0
  O  O53  1  0.61671006  0.56170965  0.82158197  1.0
  O  O54  1  0.94500090  0.56170874  0.61670927  1.0
  O  O55  1  0.05500103  0.43829312  0.38329027  1.0
  O  O56  1  0.38328939  0.56171033  0.05500119  1.0
  O  O57  1  0.74999929  0.49999831  0.75000093  1.0
  O  O58  1  0.36190347  0.73398087  0.06804202  1.0
  O  O59  1  0.63810101  0.26601955  0.93195544  1.0
  O  O60  1  0.62792433  0.42994418  0.63809561  1.0
  O  O61  1  0.37207884  0.57005927  0.36190164  1.0
  O  O62  1  0.19797525  0.26602105  0.37207534  1.0
  O  O63  1  0.80202494  0.73398106  0.62792255  1.0
  O  O64  1  0.93195743  0.57005113  0.80202386  1.0
  O  O65  1  0.06804202  0.42994954  0.19797688  1.0
  O  O66  1  0.80202164  0.42994751  0.93195880  1.0
  O  O67  1  0.19797789  0.57005359  0.06804080  1.0
  O  O68  1  0.06803993  0.26602066  0.36190184  1.0
  O  O69  1  0.93195981  0.73397824  0.63809717  1.0
  O  O70  1  0.63809525  0.57004976  0.62792398  1.0
  O  O71  1  0.36190339  0.42994996  0.37207422  1.0
  O  O72  1  0.37208013  0.73398259  0.19797524  1.0
  O  O73  1  0.62792668  0.26602319  0.80201964  1.0
  F  F74  1  0.38180481  0.56418494  0.51791611  1.0
  F  F75  1  0.91789602  0.10027673  0.51791934  1.0
  F  F76  1  0.51791912  0.43581772  0.38180201  1.0
  F  F77  1  0.48208247  0.56418486  0.61819471  1.0
  F  F78  1  0.61820170  0.10027783  0.81762158  1.0
  F  F79  1  0.38180025  0.89972142  0.18237566  1.0
  F  F80  1  0.18237765  0.56416536  0.91790360  1.0
  F  F81  1  0.81762225  0.43583547  0.08209628  1.0
  F  F82  1  0.61819783  0.43581684  0.48208000  1.0
  F  F83  1  0.81762064  0.89972280  0.61819707  1.0
  F  F84  1  0.18237933  0.10027648  0.38180506  1.0
  F  F85  1  0.91790521  0.43583903  0.18237190  1.0
  F  F86  1  0.08209435  0.56416252  0.81762515  1.0
  F  F87  1  0.48207863  0.10027821  0.08209787  1.0
  F  F88  1  0.51792577  0.89972376  0.91789734  1.0
  F  F89  1  0.08210242  0.89972166  0.48208368  1.0
