# generated using pymatgen
data_Ni3P4H34C34(N4O7)2
_symmetry_space_group_name_H-M   'P 1'
_cell_length_a   8.84661577
_cell_length_b   10.58600518
_cell_length_c   15.22719247
_cell_angle_alpha   76.71994844
_cell_angle_beta   78.19714772
_cell_angle_gamma   80.03848210
_symmetry_Int_Tables_number   1
_chemical_formula_structural   Ni3P4H34C34(N4O7)2
_chemical_formula_sum   'Ni3 P4 H34 C34 N8 O14'
_cell_volume   1346.61917811
_cell_formula_units_Z   1
loop_
 _symmetry_equiv_pos_site_id
 _symmetry_equiv_pos_as_xyz
  1  'x, y, z'
loop_
 _atom_site_type_symbol
 _atom_site_label
 _atom_site_symmetry_multiplicity
 _atom_site_fract_x
 _atom_site_fract_y
 _atom_site_fract_z
 _atom_site_occupancy
  Ni  Ni0  1  0.80488396  0.92595261  0.62899318  1.0
  Ni  Ni1  1  0.19513383  0.07404900  0.37100665  1.0
  Ni  Ni2  1  0.00000656  0.49999835  0.50000188  1.0
  P  P3  1  0.71483614  0.72757531  0.53797038  1.0
  P  P4  1  0.03530224  0.81363922  0.46948150  1.0
  P  P5  1  0.28516636  0.27242823  0.46202633  1.0
  P  P6  1  0.96470264  0.18635649  0.53051881  1.0
  H  H7  1  0.87345470  0.95896560  0.32023818  1.0
  H  H8  1  0.87527608  0.78868756  0.32876069  1.0
  H  H9  1  0.56152603  0.07663853  0.38329988  1.0
  H  H10  1  0.34656026  0.82976651  0.27972096  1.0
  H  H11  1  0.65836980  0.72409633  0.28341816  1.0
  H  H12  1  0.50294467  0.73622961  0.48115745  1.0
  H  H13  1  0.84385993  0.04190725  0.46234934  1.0
  H  H14  1  0.80459513  0.41735953  0.39488326  1.0
  H  H15  1  0.75292409  0.47470398  0.23317190  1.0
  H  H16  1  0.15632653  0.68218773  0.16023227  1.0
  H  H17  1  0.18914419  0.61372323  0.32500760  1.0
  H  H18  1  0.83348855  0.57233053  0.07334903  1.0
  H  H19  1  0.02907598  0.79663850  0.04682115  1.0
  H  H20  1  0.97677079  0.97370776  0.91779892  1.0
  H  H21  1  0.90525369  0.04385729  0.76061908  1.0
  H  H22  1  0.80541184  0.67694269  0.76401139  1.0
  H  H23  1  0.86201723  0.59085363  0.92282479  1.0
  H  H24  1  0.12654967  0.04102619  0.67976085  1.0
  H  H25  1  0.12473019  0.21131402  0.67123654  1.0
  H  H26  1  0.43848493  0.92335524  0.61670201  1.0
  H  H27  1  0.65344782  0.17024582  0.72026711  1.0
  H  H28  1  0.34163421  0.27590522  0.71657343  1.0
  H  H29  1  0.49705752  0.26377588  0.51883962  1.0
  H  H30  1  0.15614275  0.95809529  0.53764487  1.0
  H  H31  1  0.19541112  0.58264895  0.60512272  1.0
  H  H32  1  0.24707343  0.52528687  0.76683793  1.0
  H  H33  1  0.84365779  0.31782072  0.83977626  1.0
  H  H34  1  0.81085709  0.38628034  0.67499778  1.0
  H  H35  1  0.16651368  0.42765248  0.92666086  1.0
  H  H36  1  0.97090533  0.20336012  0.95318275  1.0
  H  H37  1  0.02324503  0.02627720  0.08220383  1.0
  H  H38  1  0.09476963  0.95613848  0.23938433  1.0
  H  H39  1  0.19457374  0.32305882  0.23597776  1.0
  H  H40  1  0.13794188  0.40914691  0.07717613  1.0
  C  C41  1  0.82374234  0.85394171  0.45750945  1.0
  C  C42  1  0.81378906  0.87428166  0.35619219  1.0
  C  C43  1  0.54447202  0.99861821  0.35240051  1.0
  C  C44  1  0.43881027  0.86676968  0.29913052  1.0
  C  C45  1  0.59082743  0.81253623  0.30201841  1.0
  C  C46  1  0.87754517  0.47651636  0.34002069  1.0
  C  C47  1  0.85041332  0.50927491  0.25030478  1.0
  C  C48  1  0.94632870  0.58886478  0.18277671  1.0
  C  C49  1  0.07322777  0.62525167  0.20971403  1.0
  C  C50  1  0.09439386  0.58661283  0.30032451  1.0
  C  C51  1  0.91151436  0.62945250  0.09026867  1.0
  C  C52  1  0.96052779  0.73382144  0.02756558  1.0
  C  C53  1  0.92338350  0.77548609  0.93564894  1.0
  C  C54  1  0.93738315  0.90434429  0.88710597  1.0
  C  C55  1  0.89945880  0.94436212  0.80002852  1.0
  C  C56  1  0.84153509  0.73862871  0.80219309  1.0
  C  C57  1  0.87266365  0.69271959  0.89046182  1.0
  C  C58  1  0.17625947  0.14605889  0.54248911  1.0
  C  C59  1  0.18621568  0.12571503  0.64380667  1.0
  C  C60  1  0.45553184  0.00137655  0.64760401  1.0
  C  C61  1  0.56119569  0.13324165  0.70085401  1.0
  C  C62  1  0.40918331  0.18747412  0.69796506  1.0
  C  C63  1  0.12245625  0.52348624  0.65998679  1.0
  C  C64  1  0.14958557  0.49071492  0.74969718  1.0
  C  C65  1  0.05366741  0.41112798  0.81722575  1.0
  C  C66  1  0.92676431  0.37475187  0.79028783  1.0
  C  C67  1  0.90560267  0.41339170  0.69967798  1.0
  C  C68  1  0.08847075  0.37054416  0.90973313  1.0
  C  C69  1  0.03945933  0.26617717  0.97243370  1.0
  C  C70  1  0.07660041  0.22450371  0.06435279  1.0
  C  C71  1  0.06263075  0.09565245  0.11290035  1.0
  C  C72  1  0.10055332  0.05563165  0.19997258  1.0
  C  C73  1  0.15844412  0.26136891  0.19780596  1.0
  C  C74  1  0.12730690  0.30728880  0.10953847  1.0
  N  N75  1  0.65625249  0.89723992  0.33570828  1.0
  N  N76  1  0.41156197  0.98216632  0.33090243  1.0
  N  N77  1  0.99603111  0.51629343  0.36490361  1.0
  N  N78  1  0.85446792  0.86284186  0.75702013  1.0
  N  N79  1  0.34375411  0.10275970  0.66428726  1.0
  N  N80  1  0.58844313  0.01783528  0.66909756  1.0
  N  N81  1  0.00396451  0.48371696  0.63509476  1.0
  N  N82  1  0.14554082  0.13715876  0.24297763  1.0
  O  O83  1  0.76911493  0.59628633  0.51082216  1.0
  O  O84  1  0.72679534  0.74789632  0.63164697  1.0
  O  O85  1  0.53161230  0.76651229  0.53075980  1.0
  O  O86  1  0.09355433  0.67010290  0.46895877  1.0
  O  O87  1  0.03735439  0.85573190  0.56043950  1.0
  O  O88  1  0.11752823  0.90093569  0.38448312  1.0
  O  O89  1  0.76589046  0.97469044  0.48977642  1.0
  O  O90  1  0.23088885  0.40371624  0.48917783  1.0
  O  O91  1  0.27321723  0.25210919  0.36834956  1.0
  O  O92  1  0.46839205  0.23349418  0.46923621  1.0
  O  O93  1  0.90645642  0.32989187  0.53104758  1.0
  O  O94  1  0.96264728  0.14426967  0.43955761  1.0
  O  O95  1  0.88246925  0.09906296  0.61551890  1.0
  O  O96  1  0.23410891  0.02531112  0.51021899  1.0
