# generated using pymatgen
data_Al2H7C20S2Cl(O5F)2
_symmetry_space_group_name_H-M   'P 1'
_cell_length_a   6.63158748
_cell_length_b   11.04773965
_cell_length_c   12.68757804
_cell_angle_alpha   91.85102464
_cell_angle_beta   104.11236633
_cell_angle_gamma   106.45960560
_symmetry_Int_Tables_number   1
_chemical_formula_structural   Al2H7C20S2Cl(O5F)2
_chemical_formula_sum   'Al2 H7 C20 S2 Cl1 O10 F2'
_cell_volume   859.39398677
_cell_formula_units_Z   1
loop_
 _symmetry_equiv_pos_site_id
 _symmetry_equiv_pos_as_xyz
  1  'x, y, z'
loop_
 _atom_site_type_symbol
 _atom_site_label
 _atom_site_symmetry_multiplicity
 _atom_site_fract_x
 _atom_site_fract_y
 _atom_site_fract_z
 _atom_site_occupancy
  Al  Al0  1  0.00761324  0.50106396  0.49971140  1.0
  Al  Al1  1  0.51097363  0.50487182  0.50379127  1.0
  H  H2  1  0.34974891  0.58189022  0.63272181  1.0
  H  H3  1  0.64650494  0.34769982  0.44096450  1.0
  H  H4  1  0.76437210  0.41998056  0.14774893  1.0
  H  H5  1  0.49487057  0.75508720  0.37192826  1.0
  H  H6  1  0.75082506  0.22215827  0.35277459  1.0
  H  H7  1  0.38224411  0.12232088  0.56094691  1.0
  H  H8  1  0.26320378  0.88512496  0.55460297  1.0
  C  C9  1  0.86908932  0.72625702  0.48727134  1.0
  C  C10  1  0.85185934  0.51116603  0.69911920  1.0
  C  C11  1  0.14002719  0.27291867  0.49409583  1.0
  C  C12  1  0.17509202  0.50041154  0.30669661  1.0
  C  C13  1  0.12716068  0.55709117  0.88966692  1.0
  C  C14  1  0.90782557  0.46052268  0.11859311  1.0
  C  C15  1  0.91946126  0.51173746  0.81813861  1.0
  C  C16  1  0.11590621  0.50337434  0.18788998  1.0
  C  C17  1  0.91234939  0.47804958  0.00942543  1.0
  C  C18  1  0.12389143  0.53659333  0.99878087  1.0
  C  C19  1  0.92958311  0.86526737  0.47658588  1.0
  C  C20  1  0.77349962  0.92631448  0.42500383  1.0
  C  C21  1  0.14641521  0.93488845  0.51978769  1.0
  C  C22  1  0.55443182  0.85719022  0.37027820  1.0
  C  C23  1  0.41615978  0.91871461  0.31397407  1.0
  C  C24  1  0.06550306  0.13130690  0.47834957  1.0
  C  C25  1  0.21359517  0.06761751  0.52212930  1.0
  C  C26  1  0.84500618  0.06187584  0.42319981  1.0
  C  C27  1  0.69751440  0.12134639  0.36186716  1.0
  C  C28  1  0.48861056  0.05101172  0.30872046  1.0
  S  S29  1  0.72047470  0.44709808  0.88517083  1.0
  S  S30  1  0.31797040  0.56618072  0.12209982  1.0
  Cl  Cl31  1  0.36201742  0.63584947  0.85685811  1.0
  O  O32  1  0.00329524  0.66895674  0.47299050  1.0
  O  O33  1  0.64812285  0.49073071  0.65510850  1.0
  O  O34  1  0.33123936  0.32857887  0.48551078  1.0
  O  O35  1  0.01920143  0.47088981  0.35230955  1.0
  O  O36  1  0.00770417  0.32770074  0.51649960  1.0
  O  O37  1  0.37742786  0.52688965  0.35538409  1.0
  O  O38  1  0.69289158  0.67564053  0.51378490  1.0
  O  O39  1  0.00102405  0.53050232  0.64915064  1.0
  O  O40  1  0.30995780  0.56090054  0.55394067  1.0
  O  O41  1  0.70480358  0.43954867  0.45439298  1.0
  F  F42  1  0.20773870  0.85348236  0.26041144  1.0
  F  F43  1  0.34825039  0.10711235  0.24877715  1.0
