# generated using pymatgen
data_AlH10C16O5
_symmetry_space_group_name_H-M   'P 1'
_cell_length_a   6.68554314
_cell_length_b   22.42293257
_cell_length_c   23.82143264
_cell_angle_alpha   112.81621314
_cell_angle_beta   89.95019220
_cell_angle_gamma   89.79828549
_symmetry_Int_Tables_number   1
_chemical_formula_structural   AlH10C16O5
_chemical_formula_sum   'Al4 H40 C64 O20'
_cell_volume   3291.60559128
_cell_formula_units_Z   4
loop_
 _symmetry_equiv_pos_site_id
 _symmetry_equiv_pos_as_xyz
  1  'x, y, z'
loop_
 _atom_site_type_symbol
 _atom_site_label
 _atom_site_symmetry_multiplicity
 _atom_site_fract_x
 _atom_site_fract_y
 _atom_site_fract_z
 _atom_site_occupancy
  Al  Al0  1  0.10141270  0.49940352  0.49878952  1.0
  Al  Al1  1  0.60136518  0.50079919  0.50157415  1.0
  Al  Al2  1  0.70771543  0.00067142  0.00127850  1.0
  Al  Al3  1  0.20775356  0.99907842  0.99838970  1.0
  H  H4  1  0.62671735  0.10537466  0.89904933  1.0
  H  H5  1  0.60739646  0.17144029  0.83589581  1.0
  H  H6  1  0.25017160  0.16731991  0.82208596  1.0
  H  H7  1  0.26683048  0.10278029  0.88686774  1.0
  H  H8  1  0.18679873  0.26695229  0.82199263  1.0
  H  H9  1  0.16614050  0.33133034  0.75893577  1.0
  H  H10  1  0.62245516  0.23298390  0.67774843  1.0
  H  H11  1  0.64270618  0.16872083  0.74094440  1.0
  H  H12  1  0.55857906  0.33266137  0.67771885  1.0
  H  H13  1  0.54225070  0.39710951  0.61282396  1.0
  H  H14  1  0.18231554  0.39450847  0.60075035  1.0
  H  H15  1  0.20143420  0.32856129  0.66406212  1.0
  H  H16  1  0.14387716  0.32305221  0.34864002  1.0
  H  H17  1  0.53453926  0.37183529  0.32701340  1.0
  H  H18  1  0.29723514  0.22288114  0.27226635  1.0
  H  H19  1  0.51295751  0.27734149  0.22766402  1.0
  H  H20  1  0.27576012  0.12835759  0.17288780  1.0
  H  H21  1  0.66618825  0.17696032  0.15134149  1.0
  H  H22  1  0.64235890  0.67583099  0.65076674  1.0
  H  H23  1  0.03211792  0.63002715  0.67385694  1.0
  H  H24  1  0.79745937  0.77550077  0.72665664  1.0
  H  H25  1  0.01308440  0.72450183  0.77346854  1.0
  H  H26  1  0.77814584  0.87002273  0.82619869  1.0
  H  H27  1  0.16813916  0.82401951  0.84931933  1.0
  H  H28  1  0.12860285  0.89422378  0.10012578  1.0
  H  H29  1  0.10866702  0.82846133  0.16351867  1.0
  H  H30  1  0.75106083  0.83259350  0.17827186  1.0
  H  H31  1  0.76832365  0.89689220  0.11332052  1.0
  H  H32  1  0.68921849  0.73310572  0.17858864  1.0
  H  H33  1  0.66791069  0.66880504  0.24165754  1.0
  H  H34  1  0.11980877  0.76696043  0.32166434  1.0
  H  H35  1  0.14077938  0.83113451  0.25847872  1.0
  H  H36  1  0.05793955  0.66730263  0.32180984  1.0
  H  H37  1  0.04089804  0.60293606  0.38672030  1.0
  H  H38  1  0.68049155  0.60582886  0.40006211  1.0
  H  H39  1  0.70035568  0.67166213  0.33672491  1.0
  H  H40  1  0.35512817  0.41494067  0.47478537  1.0
  H  H41  1  0.85277625  0.58516596  0.52344802  1.0
  H  H42  1  0.45345523  0.08503024  0.02510144  1.0
  H  H43  1  0.95582156  0.91483950  0.97657769  1.0
  C  C44  1  0.34767122  0.59203897  0.59698579  1.0
  C  C45  1  0.35202926  0.56278864  0.43678503  1.0
  C  C46  1  0.84995516  0.40820109  0.40325327  1.0
  C  C47  1  0.85345770  0.43745789  0.56350523  1.0
  C  C48  1  0.76211276  0.11937296  0.88186644  1.0
  C  C49  1  0.75244324  0.15574230  0.84618242  1.0
  C  C50  1  0.92755403  0.17422684  0.82438023  1.0
  C  C51  1  0.11299827  0.15469686  0.83969482  1.0
  C  C52  1  0.12328646  0.11832404  0.87547943  1.0
  C  C53  1  0.94773019  0.10042181  0.89704333  1.0
  C  C54  1  0.06404567  0.25850042  0.78972221  1.0
  C  C55  1  0.05241901  0.29489203  0.75402762  1.0
  C  C56  1  0.89264288  0.28723764  0.71345154  1.0
  C  C57  1  0.74488132  0.24150584  0.71014166  1.0
  C  C58  1  0.75642343  0.20515513  0.74587037  1.0
  C  C59  1  0.91616152  0.21281836  0.78646504  1.0
  C  C60  1  0.69580971  0.34527837  0.66014968  1.0
  C  C61  1  0.68564709  0.38157945  0.62430941  1.0
  C  C62  1  0.86126929  0.39946578  0.60277876  1.0
  C  C63  1  0.04689100  0.38054963  0.61797265  1.0
  C  C64  1  0.05642308  0.34425479  0.65373226  1.0
  C  C65  1  0.88127033  0.32580455  0.67552134  1.0
  C  C66  1  0.84115436  0.35206172  0.34353464  1.0
  C  C67  1  0.96875562  0.14798292  0.15645151  1.0
  C  C68  1  0.16073507  0.21343636  0.24514974  1.0
  C  C69  1  0.14908814  0.16102554  0.19058341  1.0
  C  C70  1  0.80420246  0.18811354  0.17773218  1.0
  C  C71  1  0.81391451  0.24354405  0.23267111  1.0
  C  C72  1  0.99601346  0.25654362  0.26727345  1.0
  C  C73  1  0.00578413  0.31194202  0.32225863  1.0
  C  C74  1  0.66102213  0.33908306  0.30933668  1.0
  C  C75  1  0.64934167  0.28669884  0.25477855  1.0
  C  C76  1  0.33912484  0.64834318  0.65660511  1.0
  C  C77  1  0.47106182  0.85167332  0.84342773  1.0
  C  C78  1  0.66142059  0.78548338  0.75418219  1.0
  C  C79  1  0.65093085  0.83788480  0.80882612  1.0
  C  C80  1  0.30585846  0.81224361  0.82257649  1.0
  C  C81  1  0.31448230  0.75683233  0.76759051  1.0
  C  C82  1  0.49606019  0.74308724  0.73247872  1.0
  C  C83  1  0.50454623  0.68767645  0.67747163  1.0
  C  C84  1  0.15933207  0.66213938  0.69122796  1.0
  C  C85  1  0.14902796  0.71448739  0.74590441  1.0
  C  C86  1  0.26377119  0.88034244  0.11762521  1.0
  C  C87  1  0.25374868  0.84413277  0.15344226  1.0
  C  C88  1  0.42858820  0.82574098  0.17560616  1.0
  C  C89  1  0.61406567  0.84519047  0.16046563  1.0
  C  C90  1  0.62470729  0.88143541  0.12456035  1.0
  C  C91  1  0.44940462  0.89925855  0.10266304  1.0
  C  C92  1  0.56543054  0.74156760  0.21064533  1.0
  C  C93  1  0.55336632  0.70520575  0.24634694  1.0
  C  C94  1  0.39222964  0.71282554  0.28662256  1.0
  C  C95  1  0.24349816  0.75847508  0.28955202  1.0
  C  C96  1  0.25550317  0.79480173  0.25381392  1.0
  C  C97  1  0.41670501  0.78721956  0.21357778  1.0
  C  C98  1  0.19491798  0.65479774  0.33969260  1.0
  C  C99  1  0.18437821  0.61853904  0.37557128  1.0
  C  C100  1  0.35969908  0.60076868  0.39748394  1.0
  C  C101  1  0.54531972  0.61973717  0.38258820  1.0
  C  C102  1  0.55527748  0.65597085  0.34679481  1.0
  C  C103  1  0.38042704  0.67431763  0.32461507  1.0
  C  C104  1  0.45698312  0.93715620  0.06327231  1.0
  C  C105  1  0.46201745  0.90796980  0.90303540  1.0
  C  C106  1  0.95555190  0.06245799  0.93636428  1.0
  C  C107  1  0.95973039  0.09179608  0.09675705  1.0
  O  O108  1  0.51974348  0.54937280  0.45457101  1.0
  O  O109  1  0.18052919  0.56962230  0.57233260  1.0
  O  O110  1  0.02101732  0.45104936  0.54592563  1.0
  O  O111  1  0.18050371  0.54741691  0.45037889  1.0
  O  O112  1  0.02174449  0.42855619  0.42546532  1.0
  O  O113  1  0.51979912  0.57130259  0.57476310  1.0
  O  O114  1  0.35247092  0.46173741  0.49189421  1.0
  O  O115  1  0.68237004  0.43082000  0.42800904  1.0
  O  O116  1  0.68173668  0.45268977  0.54972352  1.0
  O  O117  1  0.85156692  0.53843019  0.50836431  1.0
  O  O118  1  0.28979615  0.92855861  0.92525554  1.0
  O  O119  1  0.62849904  0.95253940  0.04963527  1.0
  O  O120  1  0.78779550  0.07149265  0.07458217  1.0
  O  O121  1  0.62906362  0.93050905  0.92769757  1.0
  O  O122  1  0.78797948  0.04893760  0.95399945  1.0
  O  O123  1  0.28929686  0.95052707  0.04546964  1.0
  O  O124  1  0.45660119  0.03823636  0.00813469  1.0
  O  O125  1  0.12719957  0.04720412  0.95018224  1.0
  O  O126  1  0.12716087  0.06909782  0.07197479  1.0
  O  O127  1  0.95751722  0.96157559  0.99168753  1.0
