# generated using pymatgen
data_AlH12C24(ClO2)3
_symmetry_space_group_name_H-M   'P 1'
_cell_length_a   4.05561322
_cell_length_b   28.67747897
_cell_length_c   28.67747728
_cell_angle_alpha   59.99919392
_cell_angle_beta   90.00083279
_cell_angle_gamma   89.99904804
_symmetry_Int_Tables_number   1
_chemical_formula_structural   AlH12C24(ClO2)3
_chemical_formula_sum   'Al2 H24 C48 Cl6 O12'
_cell_volume   2888.45461593
_cell_formula_units_Z   2
loop_
 _symmetry_equiv_pos_site_id
 _symmetry_equiv_pos_as_xyz
  1  'x, y, z'
loop_
 _atom_site_type_symbol
 _atom_site_label
 _atom_site_symmetry_multiplicity
 _atom_site_fract_x
 _atom_site_fract_y
 _atom_site_fract_z
 _atom_site_occupancy
  Al  Al0  1  0.98434100  0.99999981  0.49999967  1.0
  Al  Al1  1  0.98436180  0.66666665  0.16666741  1.0
  H  H2  1  0.16374428  0.51252575  0.29465805  1.0
  H  H3  1  0.18031701  0.41331464  0.33944128  1.0
  H  H4  1  0.82094550  0.42462753  0.21402594  1.0
  H  H5  1  0.81268478  0.52407576  0.17109435  1.0
  H  H6  1  0.82096826  0.24203969  0.45263031  1.0
  H  H7  1  0.18033304  0.25335710  0.32720964  1.0
  H  H8  1  0.16371474  0.15414647  0.37200236  1.0
  H  H9  1  0.81267907  0.14259230  0.49557158  1.0
  H  H10  1  0.16375972  0.79466181  0.19281525  1.0
  H  H11  1  0.18033813  0.83944571  0.24724200  1.0
  H  H12  1  0.82098431  0.71402478  0.36134544  1.0
  H  H13  1  0.81270776  0.67109187  0.30483131  1.0
  H  H14  1  0.82098735  0.95262571  0.30533116  1.0
  H  H15  1  0.18033284  0.82721052  0.41943390  1.0
  H  H16  1  0.16375601  0.87199592  0.47385903  1.0
  H  H17  1  0.81271527  0.99556048  0.36184317  1.0
  H  H18  1  0.16375148  0.69281843  0.01252371  1.0
  H  H19  1  0.18033559  0.74724500  0.91331237  1.0
  H  H20  1  0.82094538  0.86134745  0.92462975  1.0
  H  H21  1  0.81268321  0.80483229  0.02407780  1.0
  H  H22  1  0.82101080  0.80531907  0.74204835  1.0
  H  H23  1  0.18036183  0.91942604  0.75335447  1.0
  H  H24  1  0.16376672  0.97384736  0.65414375  1.0
  H  H25  1  0.81274722  0.86182852  0.64259977  1.0
  C  C26  1  0.48484508  0.95458352  0.58234218  1.0
  C  C27  1  0.48482172  0.08234083  0.46307154  1.0
  C  C28  1  0.48482820  0.96306804  0.45458970  1.0
  C  C29  1  0.48484597  0.58432792  0.20359476  1.0
  C  C30  1  0.48484936  0.70359426  0.21207773  1.0
  C  C31  1  0.48484481  0.71207958  0.08432729  1.0
  C  C32  1  0.49103976  0.52456483  0.23045479  1.0
  C  C33  1  0.31405229  0.49286362  0.27802263  1.0
  C  C34  1  0.32529802  0.43704734  0.30320041  1.0
  C  C35  1  0.51033329  0.41119641  0.28101051  1.0
  C  C36  1  0.67851310  0.44358860  0.23221355  1.0
  C  C37  1  0.67348103  0.49931347  0.20784689  1.0
  C  C38  1  0.52176662  0.35207999  0.30651539  1.0
  C  C39  1  0.52182578  0.31459182  0.36013167  1.0
  C  C40  1  0.67855100  0.22308208  0.43444033  1.0
  C  C41  1  0.51039943  0.25547382  0.38564115  1.0
  C  C42  1  0.32533530  0.22962214  0.36345299  1.0
  C  C43  1  0.31405176  0.17380872  0.38863280  1.0
  C  C44  1  0.49103543  0.14210470  0.43620660  1.0
  C  C45  1  0.67347609  0.16735483  0.45881270  1.0
  C  C46  1  0.49105817  0.73045652  0.24497897  1.0
  C  C47  1  0.31407886  0.77802538  0.22911330  1.0
  C  C48  1  0.32532757  0.80320456  0.25975122  1.0
  C  C49  1  0.51037608  0.78101479  0.30779006  1.0
  C  C50  1  0.67855653  0.73221563  0.32419464  1.0
  C  C51  1  0.67350655  0.70784658  0.29283956  1.0
  C  C52  1  0.52180739  0.80651687  0.34140348  1.0
  C  C53  1  0.52182319  0.86013136  0.32527642  1.0
  C  C54  1  0.67856055  0.93443551  0.34248134  1.0
  C  C55  1  0.51038989  0.88563793  0.35888688  1.0
  C  C56  1  0.32535873  0.86344860  0.40692825  1.0
  C  C57  1  0.31410283  0.88862783  0.43756298  1.0
  C  C58  1  0.49108360  0.93619891  0.42169540  1.0
  C  C59  1  0.67350109  0.95880540  0.37383808  1.0
  C  C60  1  0.49105099  0.74498118  0.02456496  1.0
  C  C61  1  0.31406647  0.72911583  0.99286144  1.0
  C  C62  1  0.32532032  0.75975326  0.93704526  1.0
  C  C63  1  0.51036591  0.80779229  0.91119494  1.0
  C  C64  1  0.67852614  0.82419852  0.94358787  1.0
  C  C65  1  0.67348348  0.79283952  0.99931536  1.0
  C  C66  1  0.52181667  0.84140052  0.85208042  1.0
  C  C67  1  0.52183295  0.82526775  0.81459618  1.0
  C  C68  1  0.67858039  0.84246945  0.72308677  1.0
  C  C69  1  0.51040431  0.85887885  0.75547567  1.0
  C  C70  1  0.32536530  0.90691711  0.72962396  1.0
  C  C71  1  0.31411207  0.93755138  0.67380899  1.0
  C  C72  1  0.49108584  0.92168391  0.64210737  1.0
  C  C73  1  0.67353580  0.87382364  0.66735993  1.0
  Cl  Cl74  1  0.56189760  0.32950154  0.26038412  1.0
  Cl  Cl75  1  0.56217091  0.33717571  0.40625786  1.0
  Cl  Cl76  1  0.56194561  0.76038475  0.41011440  1.0
  Cl  Cl77  1  0.56212164  0.90626128  0.25656564  1.0
  Cl  Cl78  1  0.56201015  0.91011161  0.82949506  1.0
  Cl  Cl79  1  0.56209833  0.75655729  0.83718061  1.0
  O  O80  1  0.71791025  0.99613982  0.44694689  1.0
  O  O81  1  0.71794091  0.94694609  0.55691175  1.0
  O  O82  1  0.71791911  0.05690850  0.49614066  1.0
  O  O83  1  0.24798600  0.95144978  0.48800987  1.0
  O  O84  1  0.24796795  0.06054187  0.45144940  1.0
  O  O85  1  0.24799992  0.98800639  0.56054198  1.0
  O  O86  1  0.71794728  0.71971837  0.10975718  1.0
  O  O87  1  0.71795676  0.60975635  0.17052772  1.0
  O  O88  1  0.71796068  0.67052585  0.21971794  1.0
  O  O89  1  0.24801561  0.67865578  0.10612781  1.0
  O  O90  1  0.24801966  0.71521804  0.17865326  1.0
  O  O91  1  0.24801799  0.60613038  0.21521884  1.0
