# generated using pymatgen
data_Zn4H16C40O13F4
_symmetry_space_group_name_H-M   'P 1'
_cell_length_a   23.82242821
_cell_length_b   23.82257193
_cell_length_c   23.82082878
_cell_angle_alpha   66.57165388
_cell_angle_beta   72.46749446
_cell_angle_gamma   107.52924559
_symmetry_Int_Tables_number   1
_chemical_formula_structural   Zn4H16C40O13F4
_chemical_formula_sum   'Zn8 H32 C80 O26 F8'
_cell_volume   10368.81189873
_cell_formula_units_Z   2
loop_
 _symmetry_equiv_pos_site_id
 _symmetry_equiv_pos_as_xyz
  1  'x, y, z'
loop_
 _atom_site_type_symbol
 _atom_site_label
 _atom_site_symmetry_multiplicity
 _atom_site_fract_x
 _atom_site_fract_y
 _atom_site_fract_z
 _atom_site_occupancy
  Zn  Zn0  1  0.05773934  0.09993212  0.45779558  1.0
  Zn  Zn1  1  0.05773715  0.95780593  0.48445159  1.0
  Zn  Zn2  1  0.94225573  0.95779385  0.59994425  1.0
  Zn  Zn3  1  0.94227604  0.98447131  0.45779030  1.0
  Zn  Zn4  1  0.94226156  0.40006850  0.04220270  1.0
  Zn  Zn5  1  0.05774869  0.54220677  0.90005339  1.0
  Zn  Zn6  1  0.94226271  0.54219320  0.01554231  1.0
  Zn  Zn7  1  0.05772344  0.51553231  0.04220897  1.0
  H  H8  1  0.92366617  0.27154564  0.96389515  1.0
  H  H9  1  0.92326675  0.20827806  0.90151175  1.0
  H  H10  1  0.07671742  0.40150670  0.70825378  1.0
  H  H11  1  0.07632544  0.46389493  0.77151482  1.0
  H  H12  1  0.92327443  0.09849340  0.79174618  1.0
  H  H13  1  0.92366769  0.03610414  0.72848475  1.0
  H  H14  1  0.07627580  0.22846655  0.53609282  1.0
  H  H15  1  0.07667087  0.29173519  0.59847334  1.0
  H  H16  1  0.07634324  0.61247403  0.15210066  1.0
  H  H17  1  0.07673626  0.67525361  0.21497335  1.0
  H  H18  1  0.92328468  0.71502811  0.17519789  1.0
  H  H19  1  0.92368374  0.65216389  0.11241144  1.0
  H  H20  1  0.07667437  0.78494219  0.32482990  1.0
  H  H21  1  0.07627579  0.84780746  0.38761495  1.0
  H  H22  1  0.92366646  0.88755997  0.34786308  1.0
  H  H23  1  0.92327557  0.82478403  0.28498703  1.0
  H  H24  1  0.73542720  0.27154103  0.15216228  1.0
  H  H25  1  0.60977590  0.20827403  0.21503484  1.0
  H  H26  1  0.60977178  0.40151089  0.17519769  1.0
  H  H27  1  0.73542153  0.46389851  0.11241445  1.0
  H  H28  1  0.39022877  0.09848875  0.32481217  1.0
  H  H29  1  0.26457882  0.03610165  0.38759149  1.0
  H  H30  1  0.26457307  0.22844653  0.34790618  1.0
  H  H31  1  0.39022496  0.29171195  0.28504038  1.0
  H  H32  1  0.26458486  0.65219316  0.77153236  1.0
  H  H33  1  0.39023497  0.71506618  0.70826603  1.0
  H  H34  1  0.39021772  0.67519649  0.90153318  1.0
  H  H35  1  0.26456785  0.61241436  0.96392001  1.0
  H  H36  1  0.60978667  0.82481391  0.59846486  1.0
  H  H37  1  0.73543577  0.88759343  0.53608055  1.0
  H  H38  1  0.73541700  0.84787727  0.72845606  1.0
  H  H39  1  0.60976583  0.78501051  0.79171981  1.0
  C  C40  1  0.18258701  0.09128673  0.40871236  1.0
  C  C41  1  0.99999679  0.86302289  0.63697862  1.0
  C  C42  1  0.99998499  0.09128415  0.59129835  1.0
  C  C43  1  0.81741840  0.90872038  0.59127728  1.0
  C  C44  1  0.00000425  0.13697953  0.36301797  1.0
  C  C45  1  0.99999017  0.90870003  0.40871084  1.0
  C  C46  1  0.00000083  0.40871909  0.90869798  1.0
  C  C47  1  0.00000312  0.63697728  0.86302073  1.0
  C  C48  1  0.81741345  0.40871081  0.09130256  1.0
  C  C49  1  0.99999836  0.59130213  0.09128458  1.0
  C  C50  1  0.99999807  0.36302356  0.13697939  1.0
  C  C51  1  0.18258482  0.59129889  0.90871885  1.0
  C  C52  1  0.00000303  0.19462474  0.30537513  1.0
  C  C53  1  0.99999998  0.30537888  0.19462097  1.0
  C  C54  1  0.95770159  0.18099847  0.27670549  1.0
  C  C55  1  0.04230162  0.31900464  0.22329117  1.0
  C  C56  1  0.95769984  0.23440729  0.22329758  1.0
  C  C57  1  0.04230316  0.26559632  0.27669937  1.0
  C  C58  1  0.00000007  0.80537871  0.69462162  1.0
  C  C59  1  0.00000317  0.69462145  0.80537498  1.0
  C  C60  1  0.95770099  0.77669991  0.76560242  1.0
  C  C61  1  0.04230312  0.72330077  0.73439378  1.0
  C  C62  1  0.95770205  0.72329056  0.81900949  1.0
  C  C63  1  0.04230138  0.77670960  0.68098670  1.0
  C  C64  1  0.99999561  0.37131822  0.87130193  1.0
  C  C65  1  0.95682674  0.29923423  0.90798596  1.0
  C  C66  1  0.95665749  0.26421727  0.87334296  1.0
  C  C67  1  0.99999230  0.30080694  0.80079764  1.0
  C  C68  1  0.04332884  0.37334560  0.76419791  1.0
  C  C69  1  0.04316525  0.40799203  0.79921255  1.0
  C  C70  1  0.99998989  0.26533738  0.76532703  1.0
  C  C71  1  0.99998159  0.23467061  0.73466468  1.0
  C  C72  1  0.99997269  0.19919845  0.69919622  1.0
  C  C73  1  0.95664990  0.12665661  0.73579803  1.0
  C  C74  1  0.95681653  0.09200915  0.70078414  1.0
  C  C75  1  0.99997226  0.12868769  0.62869128  1.0
  C  C76  1  0.04313055  0.20077585  0.59200367  1.0
  C  C77  1  0.04329021  0.23579491  0.62664663  1.0
  C  C78  1  0.00000992  0.62871763  0.12866494  1.0
  C  C79  1  0.04318001  0.63521136  0.15757630  1.0
  C  C80  1  0.04334774  0.67002454  0.19242357  1.0
  C  C81  1  0.00000715  0.69922056  0.19917396  1.0
  C  C82  1  0.95667581  0.69248272  0.16996650  1.0
  C  C83  1  0.95684068  0.65763095  0.13515673  1.0
  C  C84  1  0.99999876  0.73467970  0.23465455  1.0
  C  C85  1  0.99998842  0.76532716  0.26533563  1.0
  C  C86  1  0.99997682  0.80078263  0.30082026  1.0
  C  C87  1  0.04329257  0.80750012  0.33004804  1.0
  C  C88  1  0.04313131  0.84235397  0.36485505  1.0
  C  C89  1  0.99997325  0.87128191  0.37133306  1.0
  C  C90  1  0.95681647  0.86480646  0.34240456  1.0
  C  C91  1  0.95665106  0.82999640  0.30755284  1.0
  C  C92  1  0.74261706  0.37131527  0.12869549  1.0
  C  C93  1  0.70721252  0.29923017  0.15761938  1.0
  C  C94  1  0.63755187  0.26421435  0.19247326  1.0
  C  C95  1  0.60160490  0.30080786  0.19920425  1.0
  C  C96  1  0.63754938  0.37334819  0.16998305  1.0
  C  C97  1  0.70721166  0.40799452  0.13517109  1.0
  C  C98  1  0.53066508  0.26533266  0.23468178  1.0
  C  C99  1  0.46933648  0.23465963  0.26535756  1.0
  C  C100  1  0.39839607  0.19918599  0.30083926  1.0
  C  C101  1  0.36245124  0.12664777  0.33004462  1.0
  C  C102  1  0.29279057  0.09200302  0.36484833  1.0
  C  C103  1  0.25738375  0.12868015  0.37133905  1.0
  C  C104  1  0.29278695  0.20075949  0.34243128  1.0
  C  C105  1  0.36244848  0.23577530  0.30758638  1.0
  C  C106  1  0.25738133  0.62870799  0.87132303  1.0
  C  C107  1  0.29279401  0.65764304  0.79922902  1.0
  C  C108  1  0.36245483  0.69250097  0.76421227  1.0
  C  C109  1  0.39839578  0.69921749  0.80081443  1.0
  C  C110  1  0.36244591  0.66999138  0.87336272  1.0
  C  C111  1  0.29278253  0.63517777  0.90800920  1.0
  C  C112  1  0.46933666  0.73468643  0.76533570  1.0
  C  C113  1  0.53066539  0.76535216  0.73465438  1.0
  C  C114  1  0.60160572  0.80082371  0.69917898  1.0
  C  C115  1  0.63755602  0.83003364  0.62663445  1.0
  C  C116  1  0.70721806  0.86484151  0.59199066  1.0
  C  C117  1  0.74262063  0.87132851  0.62867211  1.0
  C  C118  1  0.70720974  0.84240964  0.70076168  1.0
  C  C119  1  0.63754876  0.80756371  0.73577666  1.0
  O  O120  1  0.00000052  0.99999940  0.50000032  1.0
  O  O121  1  0.15343475  0.12770507  0.41289191  1.0
  O  O122  1  0.04034659  0.88474886  0.57490386  1.0
  O  O123  1  0.95938159  0.02571304  0.62772196  1.0
  O  O124  1  0.15343523  0.02572078  0.43365809  1.0
  O  O125  1  0.04060292  0.12770132  0.52572345  1.0
  O  O126  1  0.95964520  0.88473603  0.65561068  1.0
  O  O127  1  0.84656298  0.91290272  0.62770232  1.0
  O  O128  1  0.95966303  0.07491451  0.38473466  1.0
  O  O129  1  0.84657691  0.93368362  0.52570076  1.0
  O  O130  1  0.04035030  0.15560440  0.38474013  1.0
  O  O131  1  0.04060441  0.91289739  0.43366453  1.0
  O  O132  1  0.95939423  0.93367694  0.41288739  1.0
  O  O133  1  0.00000120  0.50000127  0.99999737  1.0
  O  O134  1  0.95938835  0.37230037  0.97427395  1.0
  O  O135  1  0.04035599  0.61526310  0.84438870  1.0
  O  O136  1  0.84656513  0.47427940  0.06634196  1.0
  O  O137  1  0.04061579  0.47428759  0.87227612  1.0
  O  O138  1  0.84656556  0.37229405  0.08711445  1.0
  O  O139  1  0.95965264  0.61525079  0.92509338  1.0
  O  O140  1  0.95938364  0.58710320  0.06633033  1.0
  O  O141  1  0.04033709  0.42508859  0.11526462  1.0
  O  O142  1  0.04059721  0.56633095  0.08710522  1.0
  O  O143  1  0.95965222  0.34439817  0.11525654  1.0
  O  O144  1  0.15344169  0.58710925  0.87229375  1.0
  O  O145  1  0.15342436  0.56632574  0.97429694  1.0
  F  F146  1  0.91475029  0.11550223  0.29925776  1.0
  F  F147  1  0.08525360  0.38450140  0.20073765  1.0
  F  F148  1  0.91474832  0.21400753  0.20075125  1.0
  F  F149  1  0.08525357  0.28599558  0.29924623  1.0
  F  F150  1  0.91475161  0.79924487  0.78601192  1.0
  F  F151  1  0.08525295  0.70075583  0.71398414  1.0
  F  F152  1  0.91475325  0.70073697  0.88451662  1.0
  F  F153  1  0.08525111  0.79926425  0.61547929  1.0
