# generated using pymatgen
data_ZnH10C22N(ClO5)2
_symmetry_space_group_name_H-M   'P 1'
_cell_length_a   16.95510620
_cell_length_b   24.73131697
_cell_length_c   25.74913725
_cell_angle_alpha   89.99969388
_cell_angle_beta   90.00043934
_cell_angle_gamma   89.99999661
_symmetry_Int_Tables_number   1
_chemical_formula_structural   ZnH10C22N(ClO5)2
_chemical_formula_sum   'Zn4 H40 C88 N4 Cl8 O40'
_cell_volume   10797.18245096
_cell_formula_units_Z   4
loop_
 _symmetry_equiv_pos_site_id
 _symmetry_equiv_pos_as_xyz
  1  'x, y, z'
loop_
 _atom_site_type_symbol
 _atom_site_label
 _atom_site_symmetry_multiplicity
 _atom_site_fract_x
 _atom_site_fract_y
 _atom_site_fract_z
 _atom_site_occupancy
  Zn  Zn0  1  0.41565175  0.50000086  0.00000012  1.0
  Zn  Zn1  1  0.58435078  0.50000005  0.00000055  1.0
  Zn  Zn2  1  0.41555674  0.99999938  0.49999809  1.0
  Zn  Zn3  1  0.58444396  0.00000006  0.50000075  1.0
  H  H4  1  0.37339821  0.38709900  0.87629916  1.0
  H  H5  1  0.62660190  0.61290084  0.12370084  1.0
  H  H6  1  0.37340148  0.61291095  0.12368622  1.0
  H  H7  1  0.62659863  0.38709131  0.87630951  1.0
  H  H8  1  0.62659896  0.38711747  0.12371808  1.0
  H  H9  1  0.37340115  0.61288399  0.87628115  1.0
  H  H10  1  0.62659980  0.61288641  0.87628373  1.0
  H  H11  1  0.37340090  0.38711586  0.12371550  1.0
  H  H12  1  0.37339887  0.87615668  0.38658838  1.0
  H  H13  1  0.62660006  0.12384316  0.61341201  1.0
  H  H14  1  0.37339551  0.12384236  0.61340982  1.0
  H  H15  1  0.62660342  0.87615627  0.38659096  1.0
  H  H16  1  0.62660180  0.87615247  0.61340283  1.0
  H  H17  1  0.37339832  0.12385020  0.38659640  1.0
  H  H18  1  0.62660287  0.12384938  0.38659665  1.0
  H  H19  1  0.37339725  0.87615207  0.61340258  1.0
  H  H20  1  0.31593198  0.33499006  0.81343272  1.0
  H  H21  1  0.68406696  0.66500816  0.18656845  1.0
  H  H22  1  0.31593007  0.66501949  0.18655160  1.0
  H  H23  1  0.68406827  0.33498116  0.81344530  1.0
  H  H24  1  0.68406756  0.33501684  0.18658701  1.0
  H  H25  1  0.31593373  0.66498462  0.81341377  1.0
  H  H26  1  0.68406767  0.66498744  0.81341625  1.0
  H  H27  1  0.31593363  0.33501361  0.18658298  1.0
  H  H28  1  0.31592857  0.81311714  0.33383504  1.0
  H  H29  1  0.68406860  0.18688270  0.66616691  1.0
  H  H30  1  0.31592522  0.18688998  0.66615744  1.0
  H  H31  1  0.68407253  0.81311026  0.33384257  1.0
  H  H32  1  0.68407388  0.81309076  0.66614147  1.0
  H  H33  1  0.31592800  0.18691070  0.33385776  1.0
  H  H34  1  0.68407374  0.18690948  0.33385869  1.0
  H  H35  1  0.31592697  0.81309076  0.66614132  1.0
  H  H36  1  0.16192222  0.62514760  0.99999916  1.0
  H  H37  1  0.83807848  0.37485224  0.00000200  1.0
  H  H38  1  0.16192171  0.37485266  0.00000030  1.0
  H  H39  1  0.83807782  0.62514799  0.99999699  1.0
  H  H40  1  0.16177777  0.12512644  0.50000042  1.0
  H  H41  1  0.83822234  0.87487259  0.50000075  1.0
  H  H42  1  0.16177951  0.87487341  0.49999904  1.0
  H  H43  1  0.83822119  0.12512643  0.50000019  1.0
  C  C44  1  0.50001050  0.57147090  0.92550345  1.0
  C  C45  1  0.50000967  0.42853055  0.07449656  1.0
  C  C46  1  0.50001202  0.57147927  0.07448231  1.0
  C  C47  1  0.50001050  0.42852098  0.92551614  1.0
  C  C48  1  0.49999583  0.07462308  0.42860613  1.0
  C  C49  1  0.49999485  0.92537757  0.57139271  1.0
  C  C50  1  0.49999607  0.07461940  0.57139732  1.0
  C  C51  1  0.49999402  0.92538044  0.42860307  1.0
  C  C52  1  0.24494618  0.54643767  0.99999921  1.0
  C  C53  1  0.75505334  0.45356257  0.00000002  1.0
  C  C54  1  0.24494618  0.45356272  0.00000000  1.0
  C  C55  1  0.75505328  0.54643767  0.99999855  1.0
  C  C56  1  0.24482061  0.04643876  0.50000008  1.0
  C  C57  1  0.75517833  0.95355987  0.50000148  1.0
  C  C58  1  0.24482175  0.95356109  0.49999980  1.0
  C  C59  1  0.75517896  0.04643875  0.50000137  1.0
  C  C60  1  0.11880254  0.50000006  0.00000015  1.0
  C  C61  1  0.88119699  0.49999978  0.99999907  1.0
  C  C62  1  0.11874291  0.99999938  0.50000084  1.0
  C  C63  1  0.88125716  0.99999977  0.50000120  1.0
  C  C64  1  0.03594962  0.49999925  0.00000033  1.0
  C  C65  1  0.96405049  0.49999937  0.99999967  1.0
  C  C66  1  0.03593128  0.99999898  0.50000102  1.0
  C  C67  1  0.96406761  0.99999937  0.50000025  1.0
  C  C68  1  0.42845975  0.33741252  0.81713718  1.0
  C  C69  1  0.57153977  0.66258893  0.18286166  1.0
  C  C70  1  0.42845780  0.66259136  0.18285431  1.0
  C  C71  1  0.57154054  0.33740929  0.81714181  1.0
  C  C72  1  0.57154274  0.33743358  0.18288366  1.0
  C  C73  1  0.42845738  0.66256868  0.81711712  1.0
  C  C74  1  0.57154229  0.66256989  0.81711825  1.0
  C  C75  1  0.42845782  0.33743237  0.18288136  1.0
  C  C76  1  0.42846636  0.81615218  0.33705481  1.0
  C  C77  1  0.57153198  0.18384644  0.66294675  1.0
  C  C78  1  0.42846358  0.18384927  0.66294328  1.0
  C  C79  1  0.57153536  0.81614935  0.33705750  1.0
  C  C80  1  0.57153254  0.81613950  0.66293249  1.0
  C  C81  1  0.42846757  0.18386236  0.33706479  1.0
  C  C82  1  0.57153303  0.18386074  0.33706515  1.0
  C  C83  1  0.42846767  0.81613910  0.66293213  1.0
  C  C84  1  0.42845704  0.37269122  0.85927367  1.0
  C  C85  1  0.57154425  0.62730983  0.14072400  1.0
  C  C86  1  0.42845874  0.62731429  0.14071743  1.0
  C  C87  1  0.57154196  0.37268758  0.85927908  1.0
  C  C88  1  0.57154249  0.37270795  0.14074588  1.0
  C  C89  1  0.42846057  0.62729351  0.85925296  1.0
  C  C90  1  0.57154313  0.62729472  0.85925448  1.0
  C  C91  1  0.42846052  0.37270674  0.14074474  1.0
  C  C92  1  0.42846067  0.85876525  0.37237428  1.0
  C  C93  1  0.57153708  0.14123419  0.62762650  1.0
  C  C94  1  0.42845865  0.14123540  0.62762420  1.0
  C  C95  1  0.57153851  0.85876242  0.37237620  1.0
  C  C96  1  0.57153882  0.85875602  0.62761116  1.0
  C  C97  1  0.42845952  0.14124503  0.37238807  1.0
  C  C98  1  0.57153854  0.14124462  0.37238765  1.0
  C  C99  1  0.42846098  0.85875562  0.62761080  1.0
  C  C100  1  0.49999786  0.39033339  0.88042424  1.0
  C  C101  1  0.50000049  0.60966847  0.11957343  1.0
  C  C102  1  0.49999932  0.39034937  0.11959370  1.0
  C  C103  1  0.49999903  0.60965168  0.88040592  1.0
  C  C104  1  0.50000146  0.88016579  0.39000507  1.0
  C  C105  1  0.49999924  0.11983365  0.60999610  1.0
  C  C106  1  0.49999980  0.88015830  0.60998409  1.0
  C  C107  1  0.50000209  0.11984235  0.39001513  1.0
  C  C108  1  0.49999913  0.31855366  0.79501647  1.0
  C  C109  1  0.49999803  0.68144658  0.20498587  1.0
  C  C110  1  0.50000041  0.31857185  0.20500912  1.0
  C  C111  1  0.50000088  0.68143162  0.79499127  1.0
  C  C112  1  0.49999987  0.79382325  0.31815833  1.0
  C  C113  1  0.49999612  0.20617497  0.68184245  1.0
  C  C114  1  0.50000022  0.79381088  0.68182139  1.0
  C  C115  1  0.49999989  0.20618936  0.31817745  1.0
  C  C116  1  0.50000066  0.28146512  0.75368662  1.0
  C  C117  1  0.49999709  0.71853755  0.24631105  1.0
  C  C118  1  0.50000065  0.28148763  0.24634030  1.0
  C  C119  1  0.50000005  0.71851423  0.75366087  1.0
  C  C120  1  0.50000024  0.75254209  0.28068459  1.0
  C  C121  1  0.49999869  0.24745856  0.71931542  1.0
  C  C122  1  0.49999985  0.75252103  0.71928957  1.0
  C  C123  1  0.50000085  0.24748002  0.28071004  1.0
  C  C124  1  0.16206023  0.54879946  0.99999936  1.0
  C  C125  1  0.83794047  0.45120078  0.00000026  1.0
  C  C126  1  0.16206030  0.45119999  0.00000011  1.0
  C  C127  1  0.83794040  0.54879945  0.99999757  1.0
  C  C128  1  0.16195295  0.04879731  0.50000062  1.0
  C  C129  1  0.83804540  0.95120132  0.50000172  1.0
  C  C130  1  0.16195349  0.95120214  0.49999962  1.0
  C  C131  1  0.83804603  0.04879729  0.50000077  1.0
  N  N132  1  0.28572446  0.49999979  0.99999990  1.0
  N  N133  1  0.71427618  0.49999978  0.99999943  1.0
  N  N134  1  0.28561182  0.99999978  0.49999932  1.0
  N  N135  1  0.71438648  0.99999897  0.50000117  1.0
  Cl  Cl136  1  0.29334575  0.60767865  0.99999778  1.0
  Cl  Cl137  1  0.70665436  0.39232159  0.00000223  1.0
  Cl  Cl138  1  0.29334465  0.39232079  0.00000080  1.0
  Cl  Cl139  1  0.70665428  0.60767824  0.99999649  1.0
  Cl  Cl140  1  0.29296775  0.10780468  0.49999981  1.0
  Cl  Cl141  1  0.70703059  0.89219436  0.49999981  1.0
  Cl  Cl142  1  0.29296890  0.89219517  0.49999993  1.0
  Cl  Cl143  1  0.70703122  0.10780426  0.50000124  1.0
  O  O144  1  0.43298772  0.55666027  0.94294793  1.0
  O  O145  1  0.56700295  0.44333916  0.05705479  1.0
  O  O146  1  0.43298905  0.44334119  0.05705212  1.0
  O  O147  1  0.56700104  0.55666270  0.94294633  1.0
  O  O148  1  0.56700531  0.55666633  0.05704403  1.0
  O  O149  1  0.43298773  0.44333432  0.94295870  1.0
  O  O150  1  0.56700163  0.44333230  0.94295593  1.0
  O  O151  1  0.43299258  0.55666552  0.05703980  1.0
  O  O152  1  0.43298719  0.05734511  0.44376746  1.0
  O  O153  1  0.56701587  0.94265675  0.55623021  1.0
  O  O154  1  0.43298722  0.94265554  0.55623026  1.0
  O  O155  1  0.56701525  0.05734309  0.44376897  1.0
  O  O156  1  0.56701768  0.05734441  0.55623293  1.0
  O  O157  1  0.43299010  0.94265462  0.44376591  1.0
  O  O158  1  0.56701875  0.94265583  0.44376819  1.0
  O  O159  1  0.43298785  0.05734320  0.55623376  1.0
  O  O160  1  0.36025834  0.31883023  0.79507009  1.0
  O  O161  1  0.63974119  0.68116920  0.20492952  1.0
  O  O162  1  0.36025488  0.68117810  0.20491639  1.0
  O  O163  1  0.63974346  0.31882416  0.79507934  1.0
  O  O164  1  0.63974297  0.31885894  0.20495627  1.0
  O  O165  1  0.36025832  0.68114495  0.79504529  1.0
  O  O166  1  0.63974227  0.68114696  0.79504832  1.0
  O  O167  1  0.36025667  0.31885530  0.20495129  1.0
  O  O168  1  0.36024492  0.79384388  0.31847915  1.0
  O  O169  1  0.63975342  0.20615475  0.68152280  1.0
  O  O170  1  0.36024235  0.20615839  0.68151510  1.0
  O  O171  1  0.63975541  0.79383983  0.31848607  1.0
  O  O172  1  0.63975576  0.79383190  0.68150678  1.0
  O  O173  1  0.36024613  0.20616875  0.31849129  1.0
  O  O174  1  0.63975602  0.20616874  0.31849277  1.0
  O  O175  1  0.36024527  0.79383150  0.68150607  1.0
  O  O176  1  0.12241967  0.59599185  0.99999827  1.0
  O  O177  1  0.87758104  0.40400839  0.00000212  1.0
  O  O178  1  0.12241856  0.40400800  0.00000099  1.0
  O  O179  1  0.87758096  0.59599184  0.99999629  1.0
  O  O180  1  0.12227404  0.09596989  0.50000069  1.0
  O  O181  1  0.87772666  0.90402955  0.50000125  1.0
  O  O182  1  0.12227518  0.90402916  0.49999896  1.0
  O  O183  1  0.87772611  0.09596947  0.49999988  1.0
