# generated using pymatgen
data_Zn4H36C24O13
_symmetry_space_group_name_H-M   'P 1'
_cell_length_a   16.18650925
_cell_length_b   16.35291563
_cell_length_c   16.72387940
_cell_angle_alpha   62.08523366
_cell_angle_beta   88.78201893
_cell_angle_gamma   61.04838934
_symmetry_Int_Tables_number   1
_chemical_formula_structural   Zn4H36C24O13
_chemical_formula_sum   'Zn8 H72 C48 O26'
_cell_volume   3299.89627989
_cell_formula_units_Z   2
loop_
 _symmetry_equiv_pos_site_id
 _symmetry_equiv_pos_as_xyz
  1  'x, y, z'
loop_
 _atom_site_type_symbol
 _atom_site_label
 _atom_site_symmetry_multiplicity
 _atom_site_fract_x
 _atom_site_fract_y
 _atom_site_fract_z
 _atom_site_occupancy
  Zn  Zn0  1  0.05453519  0.95473081  0.95600455  1.0
  Zn  Zn1  1  0.02055115  0.92567653  0.14607145  1.0
  Zn  Zn2  1  0.83834499  0.09655290  0.96298571  1.0
  Zn  Zn3  1  0.00220669  0.15198328  0.98605180  1.0
  Zn  Zn4  1  0.44806146  0.15283480  0.53803472  1.0
  Zn  Zn5  1  0.42430034  0.09842591  0.37886081  1.0
  Zn  Zn6  1  0.41163687  0.96222165  0.58364272  1.0
  Zn  Zn7  1  0.61392470  0.92386235  0.55400431  1.0
  H  H8  1  0.50430464  0.46783075  0.11946605  1.0
  H  H9  1  0.52561691  0.41231635  0.24253947  1.0
  H  H10  1  0.47426987  0.55496108  0.16472220  1.0
  H  H11  1  0.37523969  0.43058307  0.17668707  1.0
  H  H12  1  0.32308417  0.57261080  0.09892543  1.0
  H  H13  1  0.38449989  0.45863075  0.31387585  1.0
  H  H14  1  0.32204053  0.60062235  0.23335143  1.0
  H  H15  1  0.21257449  0.54880927  0.31039715  1.0
  H  H16  1  0.16372120  0.60664402  0.10710275  1.0
  H  H17  1  0.08112530  0.62600929  0.17662471  1.0
  H  H18  1  0.17262941  0.42983634  0.30344933  1.0
  H  H19  1  0.22978932  0.42544749  0.21272026  1.0
  H  H20  1  0.87586931  0.68376776  0.90592159  1.0
  H  H21  1  0.74755750  0.77857647  0.85715885  1.0
  H  H22  1  0.80966688  0.77200350  0.94834733  1.0
  H  H23  1  0.83890961  0.84656817  0.74907913  1.0
  H  H24  1  0.90390723  0.83775131  0.83946592  1.0
  H  H25  1  0.67977065  0.98108939  0.76395471  1.0
  H  H26  1  0.74924557  0.97785484  0.84573013  1.0
  H  H27  1  0.69260223  0.14127286  0.69610798  1.0
  H  H28  1  0.91113697  0.99428811  0.71667590  1.0
  H  H29  1  0.84215094  0.13716919  0.66340372  1.0
  H  H30  1  0.72745176  0.15403603  0.55216756  1.0
  H  H31  1  0.81081983  0.00967424  0.60717776  1.0
  H  H32  1  0.10759905  0.99614677  0.66578068  1.0
  H  H33  1  0.11346364  0.11380762  0.59460243  1.0
  H  H34  1  0.03947899  0.11361596  0.67496996  1.0
  H  H35  1  0.26484314  0.96712866  0.73023111  1.0
  H  H36  1  0.19201356  0.96518573  0.81007416  1.0
  H  H37  1  0.19858025  0.16596444  0.66870757  1.0
  H  H38  1  0.12453152  0.16568434  0.74644098  1.0
  H  H39  1  0.25688481  0.17148504  0.79306803  1.0
  H  H40  1  0.32708520  0.93802431  0.94473377  1.0
  H  H41  1  0.30792217  0.04952466  0.95436100  1.0
  H  H42  1  0.42535012  0.04964039  0.83212731  1.0
  H  H43  1  0.41452240  0.93927834  0.85025951  1.0
  H  H44  1  0.92689938  0.94674146  0.43256567  1.0
  H  H45  1  0.80462435  0.06211920  0.38812816  1.0
  H  H46  1  0.88156078  0.05071826  0.31155522  1.0
  H  H47  1  0.80961804  0.89456273  0.41334459  1.0
  H  H48  1  0.88580353  0.88464365  0.33645371  1.0
  H  H49  1  0.67610596  0.07847855  0.28425824  1.0
  H  H50  1  0.75116634  0.07675228  0.20733095  1.0
  H  H51  1  0.62954565  0.04316082  0.17473072  1.0
  H  H52  1  0.82135351  0.82124091  0.25518676  1.0
  H  H53  1  0.72510281  0.89429022  0.15277326  1.0
  H  H54  1  0.62187514  0.88487270  0.27448399  1.0
  H  H55  1  0.73127138  0.82124264  0.35960829  1.0
  H  H56  1  0.37873058  0.69585411  0.39384087  1.0
  H  H57  1  0.41791802  0.78695116  0.32951314  1.0
  H  H58  1  0.32317672  0.79209860  0.27173306  1.0
  H  H59  1  0.30704955  0.84686225  0.42660615  1.0
  H  H60  1  0.21289595  0.85678314  0.36361870  1.0
  H  H61  1  0.30870691  0.99053682  0.28205676  1.0
  H  H62  1  0.22699897  0.99336273  0.21215046  1.0
  H  H63  1  0.15225717  0.15193028  0.23131020  1.0
  H  H64  1  0.05543445  0.02512242  0.33170718  1.0
  H  H65  1  0.00036223  0.16811766  0.25026311  1.0
  H  H66  1  0.11021693  0.14027988  0.37734150  1.0
  H  H67  1  0.17084552  0.99721064  0.43668715  1.0
  H  H68  1  0.59042862  0.55289461  0.01686006  1.0
  H  H69  1  0.65314554  0.62134217  0.96768865  1.0
  H  H70  1  0.71974177  0.47596866  0.03712296  1.0
  H  H71  1  0.56770067  0.61585075  0.84657616  1.0
  H  H72  1  0.63690245  0.47128527  0.91524989  1.0
  H  H73  1  0.72173396  0.61679929  0.82947801  1.0
  H  H74  1  0.79297329  0.47309205  0.90151571  1.0
  H  H75  1  0.78254771  0.53445938  0.73682317  1.0
  H  H76  1  0.65770207  0.43326362  0.78813225  1.0
  H  H77  1  0.74436766  0.41637498  0.72235285  1.0
  H  H78  1  0.63519537  0.61919364  0.62011606  1.0
  H  H79  1  0.56469292  0.61307930  0.70183432  1.0
  C  C80  1  0.47463094  0.48355125  0.17393846  1.0
  C  C81  1  0.37205317  0.50282960  0.16898813  1.0
  C  C82  1  0.33055509  0.52439237  0.24507460  1.0
  C  C83  1  0.23240472  0.53255716  0.25377038  1.0
  C  C84  1  0.14902418  0.62417587  0.16347685  1.0
  C  C85  1  0.12204799  0.74054318  0.12396727  1.0
  C  C86  1  0.23618432  0.42737062  0.27690815  1.0
  C  C87  1  0.32587903  0.31867407  0.34834117  1.0
  C  C88  1  0.81589308  0.76705787  0.88485715  1.0
  C  C89  1  0.83312940  0.85391669  0.81142107  1.0
  C  C90  1  0.75077016  0.96984045  0.78382107  1.0
  C  C91  1  0.75436645  0.06550001  0.70358943  1.0
  C  C92  1  0.84945189  0.06130192  0.72060189  1.0
  C  C93  1  0.88314685  0.05030626  0.81075604  1.0
  C  C94  1  0.74267437  0.07356551  0.60798684  1.0
  C  C95  1  0.66112409  0.06102078  0.58568488  1.0
  C  C96  1  0.10938478  0.06288209  0.66486043  1.0
  C  C97  1  0.19608492  0.01839594  0.74108955  1.0
  C  C98  1  0.19607723  0.11300555  0.73934058  1.0
  C  C99  1  0.27543845  0.08972811  0.81058441  1.0
  C  C100  1  0.27813639  0.02641654  0.91586099  1.0
  C  C101  1  0.18135058  0.04278538  0.93567073  1.0
  C  C102  1  0.38266751  0.02789391  0.80524744  1.0
  C  C103  1  0.39567768  0.04744388  0.70934800  1.0
  C  C104  1  0.86197915  0.00376800  0.37221371  1.0
  C  C105  1  0.82655068  0.94283726  0.35109529  1.0
  C  C106  1  0.73575194  0.02287328  0.26729465  1.0
  C  C107  1  0.69539749  0.97350491  0.23298284  1.0
  C  C108  1  0.76690129  0.90308437  0.19580704  1.0
  C  C109  1  0.82306970  0.94987363  0.13819424  1.0
  C  C110  1  0.66546141  0.90014491  0.30868090  1.0
  C  C111  1  0.60654169  0.94878261  0.36324599  1.0
  C  C112  1  0.35349808  0.77998317  0.33740259  1.0
  C  C113  1  0.27687600  0.86472139  0.35790081  1.0
  C  C114  1  0.24567106  0.98144830  0.28141899  1.0
  C  C115  1  0.15913788  0.07568094  0.28642337  1.0
  C  C116  1  0.06014638  0.08590814  0.26814021  1.0
  C  C117  1  0.04450829  0.06855825  0.19006569  1.0
  C  C118  1  0.17265467  0.06711104  0.38109916  1.0
  C  C119  1  0.26383131  0.05726904  0.41732275  1.0
  C  C120  1  0.65093796  0.54893777  0.98439140  1.0
  C  C121  1  0.63903320  0.54438867  0.89636283  1.0
  C  C122  1  0.72195937  0.54208274  0.84973378  1.0
  C  C123  1  0.72014726  0.53234434  0.76278474  1.0
  C  C124  1  0.72828772  0.42625595  0.78286319  1.0
  C  C125  1  0.80423286  0.31781947  0.86810401  1.0
  C  C126  1  0.62526028  0.62471335  0.68334699  1.0
  C  C127  1  0.58786273  0.74264802  0.65083449  1.0
  O  O128  1  0.97601122  0.03726547  0.01261085  1.0
  O  O129  1  0.11885281  0.77371004  0.18026565  1.0
  O  O130  1  0.09963574  0.79894839  0.03454236  1.0
  O  O131  1  0.37615059  0.25475427  0.31905069  1.0
  O  O132  1  0.34423051  0.29734458  0.43212083  1.0
  O  O133  1  0.81967647  0.08621312  0.85150421  1.0
  O  O134  1  0.97529111  0.00676821  0.83699643  1.0
  O  O135  1  0.68804507  0.96994340  0.59251587  1.0
  O  O136  1  0.57348275  0.14052693  0.56347799  1.0
  O  O137  1  0.12210938  0.12621748  0.94075700  1.0
  O  O138  1  0.16806138  0.96757897  0.94686327  1.0
  O  O139  1  0.40054411  0.97654515  0.69300570  1.0
  O  O140  1  0.40226005  0.12896579  0.65374912  1.0
  O  O141  1  0.77854880  0.02899605  0.05307793  1.0
  O  O142  1  0.91106117  0.90598913  0.18038462  1.0
  O  O143  1  0.65165576  0.90747829  0.44665924  1.0
  O  O144  1  0.51698193  0.02708104  0.32157204  1.0
  O  O145  1  0.02480645  0.14463624  0.10593732  1.0
  O  O146  1  0.05420180  0.97647848  0.21661410  1.0
  O  O147  1  0.28860796  0.01449056  0.50602811  1.0
  O  O148  1  0.30698167  0.09301839  0.35857679  1.0
  O  O149  1  0.89125126  0.29604570  0.88589758  1.0
  O  O150  1  0.77460109  0.25401938  0.91470113  1.0
  O  O151  1  0.49477132  0.80522188  0.62846505  1.0
  O  O152  1  0.64888032  0.77229734  0.64420360  1.0
  O  O153  1  0.47484552  0.03817977  0.51167091  1.0
