# generated using pymatgen
data_AlH10C14NO5
_symmetry_space_group_name_H-M   'P 1'
_cell_length_a   6.68264649
_cell_length_b   11.07011694
_cell_length_c   16.82996120
_cell_angle_alpha   77.43967899
_cell_angle_beta   84.11097525
_cell_angle_gamma   73.43695622
_symmetry_Int_Tables_number   1
_chemical_formula_structural   AlH10C14NO5
_chemical_formula_sum   'Al2 H20 C28 N2 O10'
_cell_volume   1163.72225797
_cell_formula_units_Z   2
loop_
 _symmetry_equiv_pos_site_id
 _symmetry_equiv_pos_as_xyz
  1  'x, y, z'
loop_
 _atom_site_type_symbol
 _atom_site_label
 _atom_site_symmetry_multiplicity
 _atom_site_fract_x
 _atom_site_fract_y
 _atom_site_fract_z
 _atom_site_occupancy
  Al  Al0  1  0.49116638  0.50503919  0.49557517  1.0
  Al  Al1  1  0.99081104  0.50440410  0.49610201  1.0
  H  H2  1  0.17785648  0.66269275  0.44119477  1.0
  H  H3  1  0.80739663  0.34477255  0.54346634  1.0
  H  H4  1  0.92135669  0.41542852  0.74284346  1.0
  H  H5  1  0.84763312  0.42281131  0.89127326  1.0
  H  H6  1  0.37588259  0.57258331  0.88677195  1.0
  H  H7  1  0.61372326  0.43329559  0.10549313  1.0
  H  H8  1  0.13877717  0.58574464  0.10173821  1.0
  H  H9  1  0.06259845  0.59371561  0.24996645  1.0
  H  H10  1  0.90759275  0.74456567  0.60319881  1.0
  H  H11  1  0.08740433  0.84351887  0.68093952  1.0
  H  H12  1  0.64318512  0.21048971  0.60990992  1.0
  H  H13  1  0.95397330  0.07751767  0.68476533  1.0
  H  H14  1  0.16569011  0.13249318  0.44592736  1.0
  H  H15  1  0.28666531  0.89631918  0.44860611  1.0
  H  H16  1  0.57907079  0.61497433  0.77050154  1.0
  H  H17  1  0.44628207  0.66539874  0.67735341  1.0
  H  H18  1  0.61308609  0.51029878  0.70005101  1.0
  H  H19  1  0.37277975  0.49493516  0.29164209  1.0
  H  H20  1  0.54221479  0.34065999  0.31485034  1.0
  H  H21  1  0.41080252  0.38973515  0.22134239  1.0
  C  C22  1  0.62902982  0.72973575  0.50474154  1.0
  C  C23  1  0.77398151  0.52113205  0.34961046  1.0
  C  C24  1  0.35212125  0.27535851  0.50171504  1.0
  C  C25  1  0.20952506  0.48732893  0.64282217  1.0
  C  C26  1  0.18650406  0.49114695  0.73143421  1.0
  C  C27  1  0.01930308  0.44987854  0.77553144  1.0
  C  C28  1  0.97783449  0.45381540  0.85724677  1.0
  C  C29  1  0.10737614  0.50034300  0.89669761  1.0
  C  C30  1  0.27767123  0.53833028  0.85373089  1.0
  C  C31  1  0.32067045  0.53580909  0.77084346  1.0
  C  C32  1  0.71055882  0.46834104  0.13865266  1.0
  C  C33  1  0.88047632  0.50708799  0.09590550  1.0
  C  C34  1  0.00865801  0.55435026  0.13554766  1.0
  C  C35  1  0.96582756  0.55857470  0.21717861  1.0
  C  C36  1  0.79875823  0.51677562  0.26103506  1.0
  C  C37  1  0.66629651  0.47101409  0.22148299  1.0
  C  C38  1  0.55965503  0.86678215  0.51415042  1.0
  C  C39  1  0.67516672  0.92167094  0.55694640  1.0
  C  C40  1  0.37517097  0.94139054  0.47826135  1.0
  C  C41  1  0.85244783  0.84712501  0.60242683  1.0
  C  C42  1  0.95240268  0.90271439  0.64624773  1.0
  C  C43  1  0.42048530  0.13235966  0.51320288  1.0
  C  C44  1  0.30642601  0.07382702  0.47713353  1.0
  C  C45  1  0.60152955  0.05722378  0.55746842  1.0
  C  C46  1  0.70531758  0.10994299  0.60539798  1.0
  C  C47  1  0.87749443  0.03486968  0.64825866  1.0
  C  C48  1  0.49975781  0.58399132  0.72789203  1.0
  C  C49  1  0.48806377  0.42165437  0.26415064  1.0
  N  N50  1  0.07954297  0.51242209  0.97925287  1.0
  N  N51  1  0.90911511  0.49489242  0.01342216  1.0
  O  O52  1  0.48516538  0.67465764  0.50536329  1.0
  O  O53  1  0.93900571  0.51438403  0.38445987  1.0
  O  O54  1  0.15635579  0.32927883  0.50310489  1.0
  O  O55  1  0.39063003  0.47453811  0.60783677  1.0
  O  O56  1  0.49440383  0.33401390  0.48946944  1.0
  O  O57  1  0.04315155  0.49585302  0.60823806  1.0
  O  O58  1  0.82362412  0.67799470  0.49437467  1.0
  O  O59  1  0.59255209  0.53260495  0.38423248  1.0
  O  O60  1  0.21889125  0.57021127  0.45984980  1.0
  O  O61  1  0.76309248  0.43813502  0.53227772  1.0
