# generated using pymatgen
data_Zn4H26C48O13F2
_symmetry_space_group_name_H-M   'P 1'
_cell_length_a   18.48236512
_cell_length_b   18.48051165
_cell_length_c   23.80633692
_cell_angle_alpha   112.83399980
_cell_angle_beta   112.79694709
_cell_angle_gamma   90.01243813
_symmetry_Int_Tables_number   1
_chemical_formula_structural   Zn4H26C48O13F2
_chemical_formula_sum   'Zn8 H52 C96 O26 F4'
_cell_volume   6799.36733420
_cell_formula_units_Z   2
loop_
 _symmetry_equiv_pos_site_id
 _symmetry_equiv_pos_as_xyz
  1  'x, y, z'
loop_
 _atom_site_type_symbol
 _atom_site_label
 _atom_site_symmetry_multiplicity
 _atom_site_fract_x
 _atom_site_fract_y
 _atom_site_fract_z
 _atom_site_occupancy
  Zn  Zn0  1  0.11510021  0.52874928  0.05793138  1.0
  Zn  Zn1  1  0.52869355  0.11505614  0.05792033  1.0
  Zn  Zn2  1  0.94280652  0.52913586  0.05803684  1.0
  Zn  Zn3  1  0.52917014  0.94284509  0.05818525  1.0
  Zn  Zn4  1  0.97192134  0.55893948  0.94396858  1.0
  Zn  Zn5  1  0.38499108  0.97193903  0.94392224  1.0
  Zn  Zn6  1  0.97206720  0.38486598  0.94389342  1.0
  Zn  Zn7  1  0.55899069  0.97179149  0.94397150  1.0
  H  H8  1  0.29959402  0.39466131  0.07465288  1.0
  H  H9  1  0.67923973  0.29964326  0.07417298  1.0
  H  H10  1  0.77503086  0.67975266  0.07460905  1.0
  H  H11  1  0.39488600  0.77441994  0.07418496  1.0
  H  H12  1  0.77440623  0.39480277  0.07413027  1.0
  H  H13  1  0.39469900  0.29937320  0.07460870  1.0
  H  H14  1  0.29969760  0.67919153  0.07420765  1.0
  H  H15  1  0.67982217  0.77491061  0.07463700  1.0
  H  H16  1  0.16485127  0.06817124  0.85997233  1.0
  H  H17  1  0.79265278  0.16435542  0.86045100  1.0
  H  H18  1  0.69523278  0.79179032  0.86000681  1.0
  H  H19  1  0.06796203  0.69583184  0.86043943  1.0
  H  H20  1  0.69607475  0.06777699  0.86048219  1.0
  H  H21  1  0.06829496  0.16491849  0.85993360  1.0
  H  H22  1  0.16455587  0.79246136  0.86040267  1.0
  H  H23  1  0.79198589  0.69527260  0.86007346  1.0
  H  H24  1  0.15050937  0.05400746  0.92509241  1.0
  H  H25  1  0.87185047  0.15067574  0.92595789  1.0
  H  H26  1  0.77444208  0.87119833  0.92518499  1.0
  H  H27  1  0.05432059  0.77502245  0.92602543  1.0
  H  H28  1  0.77521823  0.05404639  0.92599007  1.0
  H  H29  1  0.05392805  0.15072372  0.92502743  1.0
  H  H30  1  0.15091541  0.87166021  0.92598915  1.0
  H  H31  1  0.87119859  0.77467300  0.92528642  1.0
  H  H32  1  0.48497702  0.86136012  0.73587572  1.0
  H  H33  1  0.86177472  0.48509992  0.73651752  1.0
  H  H34  1  0.25131270  0.87330547  0.73595361  1.0
  H  H35  1  0.87380177  0.25078923  0.73520651  1.0
  H  H36  1  0.24523925  0.60493030  0.26433718  1.0
  H  H37  1  0.60724869  0.24606707  0.26448368  1.0
  H  H38  1  0.01959040  0.65858793  0.26527209  1.0
  H  H39  1  0.65973237  0.02005625  0.26519070  1.0
  H  H40  1  0.37108871  0.72060756  0.35009944  1.0
  H  H41  1  0.51388696  0.71280656  0.40555044  1.0
  H  H42  1  0.55562411  0.64701329  0.48409349  1.0
  H  H43  1  0.45362791  0.58914940  0.50657051  1.0
  H  H44  1  0.31132115  0.59814897  0.45183524  1.0
  H  H45  1  0.54449677  0.32440744  0.35055638  1.0
  H  H46  1  0.54602957  0.46975038  0.40684015  1.0
  H  H47  1  0.67530851  0.56292645  0.48560631  1.0
  H  H48  1  0.80259947  0.50992364  0.50779790  1.0
  H  H49  1  0.80058179  0.36485400  0.45227177  1.0
  H  H50  1  0.98121465  0.62495934  0.35094011  1.0
  H  H51  1  0.89461413  0.68580139  0.40807077  1.0
  H  H52  1  0.93055091  0.82966093  0.48759186  1.0
  H  H53  1  0.05335299  0.91202274  0.50944337  1.0
  H  H54  1  0.14044131  0.85060397  0.45329770  1.0
  H  H55  1  0.62983172  0.98293919  0.35114603  1.0
  H  H56  1  0.69027037  0.89631637  0.40831350  1.0
  H  H57  1  0.83403384  0.93192649  0.48779734  1.0
  H  H58  1  0.91674355  0.05446874  0.50957401  1.0
  H  H59  1  0.85586841  0.14137519  0.45316613  1.0
  C  C60  1  0.90935157  0.40911730  0.81887818  1.0
  C  C61  1  0.40959880  0.90917513  0.81889321  1.0
  C  C62  1  0.37209775  0.87129806  0.74381380  1.0
  C  C63  1  0.87185175  0.37186706  0.74380126  1.0
  C  C64  1  0.30094387  0.79926111  0.60148936  1.0
  C  C65  1  0.80190469  0.30168801  0.60139000  1.0
  C  C66  1  0.26576449  0.76364252  0.53095701  1.0
  C  C67  1  0.76803952  0.26700278  0.53084934  1.0
  C  C68  1  0.23525148  0.73293406  0.46964316  1.0
  C  C69  1  0.74008554  0.23710866  0.46957518  1.0
  C  C70  1  0.24634711  0.66341346  0.36264888  1.0
  C  C71  1  0.67065647  0.24829166  0.36268719  1.0
  C  C72  1  0.11711551  0.69670206  0.36315467  1.0
  C  C73  1  0.70214552  0.11847102  0.36306462  1.0
  C  C74  1  0.21031645  0.63096857  0.29263122  1.0
  C  C75  1  0.63297127  0.21103206  0.29271032  1.0
  C  C76  1  0.08278253  0.66037473  0.29310885  1.0
  C  C77  1  0.66264903  0.08352404  0.29311564  1.0
  C  C78  1  0.12888688  0.62839450  0.25766145  1.0
  C  C79  1  0.62879873  0.12922632  0.25773527  1.0
  C  C80  1  0.19969000  0.69772249  0.39865868  1.0
  C  C81  1  0.70582543  0.20175387  0.39859591  1.0
  C  C82  1  0.09134906  0.59132721  0.18279404  1.0
  C  C83  1  0.59055779  0.09135928  0.18286154  1.0
  C  C84  1  0.13896789  0.63820882  0.00093652  1.0
  C  C85  1  0.36233061  0.13876486  0.00069251  1.0
  C  C86  1  0.86208085  0.36255517  0.00099678  1.0
  C  C87  1  0.63831058  0.86179675  0.00089859  1.0
  C  C88  1  0.86191407  0.63835173  0.00079173  1.0
  C  C89  1  0.63833252  0.13883312  0.00098522  1.0
  C  C90  1  0.13905306  0.36251279  0.00083442  1.0
  C  C91  1  0.36261681  0.86192063  0.00091996  1.0
  C  C92  1  0.17052450  0.22396802  0.95969599  1.0
  C  C93  1  0.73596429  0.17045344  0.95994505  1.0
  C  C94  1  0.78918506  0.73577352  0.95974775  1.0
  C  C95  1  0.22407323  0.78917710  0.95985434  1.0
  C  C96  1  0.78941191  0.22389675  0.95993326  1.0
  C  C97  1  0.22390474  0.17049412  0.95970026  1.0
  C  C98  1  0.17064993  0.73573357  0.95987068  1.0
  C  C99  1  0.73571854  0.78916053  0.95973294  1.0
  C  C100  1  0.19559292  0.30541542  0.00054005  1.0
  C  C101  1  0.69498261  0.19547427  0.00054284  1.0
  C  C102  1  0.80501747  0.69509478  0.00054156  1.0
  C  C103  1  0.30557282  0.80481325  0.00049017  1.0
  C  C104  1  0.80497914  0.30544119  0.00052279  1.0
  C  C105  1  0.30533982  0.19541145  0.00051001  1.0
  C  C106  1  0.19562935  0.69483125  0.00049987  1.0
  C  C107  1  0.69505478  0.80489620  0.00055936  1.0
  C  C108  1  0.27808638  0.33127383  0.04209537  1.0
  C  C109  1  0.71032485  0.27805547  0.04180780  1.0
  C  C110  1  0.76400514  0.71061046  0.04207361  1.0
  C  C111  1  0.33148868  0.76354649  0.04180629  1.0
  C  C112  1  0.76364489  0.33136993  0.04180199  1.0
  C  C113  1  0.33133029  0.27791538  0.04209112  1.0
  C  C114  1  0.27818345  0.71022185  0.04181264  1.0
  C  C115  1  0.71067130  0.76388180  0.04207966  1.0
  C  C116  1  0.15929150  0.09881303  0.90754646  1.0
  C  C117  1  0.80945091  0.15916914  0.90815338  1.0
  C  C118  1  0.74825985  0.80880950  0.90762564  1.0
  C  C119  1  0.09887864  0.74870388  0.90814222  1.0
  C  C120  1  0.74892657  0.09865374  0.90817136  1.0
  C  C121  1  0.09881063  0.15939316  0.90752420  1.0
  C  C122  1  0.15938595  0.80923214  0.90812041  1.0
  C  C123  1  0.80885437  0.74834287  0.90766715  1.0
  C  C124  1  0.38443839  0.81493281  0.63939448  1.0
  C  C125  1  0.81689849  0.38507970  0.63976675  1.0
  C  C126  1  0.25534599  0.82200088  0.63942793  1.0
  C  C127  1  0.82392676  0.25568493  0.63899992  1.0
  C  C128  1  0.42038164  0.85021640  0.70881466  1.0
  C  C129  1  0.85108387  0.42054449  0.70917341  1.0
  C  C130  1  0.28884604  0.85702700  0.70886143  1.0
  C  C131  1  0.85795108  0.28867562  0.70842937  1.0
  C  C132  1  0.33164837  0.66025792  0.39744750  1.0
  C  C133  1  0.38939918  0.69163879  0.38435094  1.0
  C  C134  1  0.46957910  0.68722182  0.41557252  1.0
  C  C135  1  0.49298053  0.65048258  0.45966760  1.0
  C  C136  1  0.43580684  0.61836117  0.47251135  1.0
  C  C137  1  0.35582835  0.62354309  0.44192015  1.0
  C  C138  1  0.67243571  0.33486592  0.39764830  1.0
  C  C139  1  0.60105983  0.36537203  0.38484627  1.0
  C  C140  1  0.60198340  0.44693979  0.41655253  1.0
  C  C141  1  0.67445356  0.49916339  0.46083326  1.0
  C  C142  1  0.74580909  0.46945572  0.47340447  1.0
  C  C143  1  0.74481638  0.38788697  0.44236756  1.0
  C  C144  1  0.06686318  0.73354400  0.39858440  1.0
  C  C145  1  0.99680283  0.68796892  0.38568758  1.0
  C  C146  1  0.94827051  0.72223344  0.41786236  1.0
  C  C147  1  0.96854819  0.80279608  0.46256207  1.0
  C  C148  1  0.03760073  0.84888854  0.47504295  1.0
  C  C149  1  0.08669811  0.81445564  0.44362009  1.0
  C  C150  1  0.73865863  0.06816415  0.39848083  1.0
  C  C151  1  0.69284684  0.99834116  0.38578047  1.0
  C  C152  1  0.72686229  0.94982922  0.41802643  1.0
  C  C153  1  0.80736637  0.96992309  0.46272150  1.0
  C  C154  1  0.85366693  0.03881136  0.47513588  1.0
  C  C155  1  0.81952661  0.08780350  0.44356076  1.0
  O  O156  1  0.00016174  0.50008046  0.00034429  1.0
  O  O157  1  0.50014739  0.00002151  0.00038057  1.0
  O  O158  1  0.92456330  0.36169744  0.84756700  1.0
  O  O159  1  0.48566558  0.92292859  0.84771157  1.0
  O  O160  1  0.92306326  0.48520769  0.84781621  1.0
  O  O161  1  0.36228199  0.92446565  0.84769120  1.0
  O  O162  1  0.13839715  0.57436995  0.15370951  1.0
  O  O163  1  0.57306780  0.13820481  0.15363576  1.0
  O  O164  1  0.01528545  0.57945731  0.15385425  1.0
  O  O165  1  0.57874101  0.01523273  0.15403026  1.0
  O  O166  1  0.06596017  0.62665550  0.95992004  1.0
  O  O167  1  0.33275247  0.06559625  0.96010883  1.0
  O  O168  1  0.89421973  0.33306552  0.96003438  1.0
  O  O169  1  0.62736337  0.89440005  0.96031776  1.0
  O  O170  1  0.89459753  0.62746425  0.96025612  1.0
  O  O171  1  0.62683794  0.06578262  0.96000788  1.0
  O  O172  1  0.06590065  0.33293822  0.96027905  1.0
  O  O173  1  0.33313726  0.89395889  0.95991462  1.0
  O  O174  1  0.87436260  0.43554988  0.04188516  1.0
  O  O175  1  0.60551398  0.87339783  0.04124373  1.0
  O  O176  1  0.16753144  0.60616622  0.04187304  1.0
  O  O177  1  0.43541861  0.16752723  0.04096082  1.0
  O  O178  1  0.16781789  0.43562505  0.04114188  1.0
  O  O179  1  0.43556360  0.87425075  0.04182535  1.0
  O  O180  1  0.87342014  0.60548295  0.04105462  1.0
  O  O181  1  0.60619844  0.16742610  0.04189720  1.0
  F  F182  1  0.43084435  0.79421124  0.60531584  1.0
  F  F183  1  0.79686056  0.43198156  0.60610679  1.0
  F  F184  1  0.17488502  0.80827773  0.60538770  1.0
  F  F185  1  0.81071008  0.17527712  0.60463871  1.0
