# generated using pymatgen
data_ZnSiH16C24(N2F3)2
_symmetry_space_group_name_H-M   'P 1'
_cell_length_a   7.77626944
_cell_length_b   13.99982021
_cell_length_c   13.99996450
_cell_angle_alpha   90.00023534
_cell_angle_beta   90.00074588
_cell_angle_gamma   89.99978957
_symmetry_Int_Tables_number   1
_chemical_formula_structural   ZnSiH16C24(N2F3)2
_chemical_formula_sum   'Zn1 Si1 H16 C24 N4 F6'
_cell_volume   1524.12537199
_cell_formula_units_Z   1
loop_
 _symmetry_equiv_pos_site_id
 _symmetry_equiv_pos_as_xyz
  1  'x, y, z'
loop_
 _atom_site_type_symbol
 _atom_site_label
 _atom_site_symmetry_multiplicity
 _atom_site_fract_x
 _atom_site_fract_y
 _atom_site_fract_z
 _atom_site_occupancy
  Zn  Zn0  1  0.50003425  0.49999412  0.49999985  1.0
  Si  Si1  1  0.00001814  0.49999959  0.49999872  1.0
  H  H2  1  0.23276027  0.66224788  0.49995848  1.0
  H  H3  1  0.22146117  0.83943945  0.49999309  1.0
  H  H4  1  0.77851363  0.83945750  0.49999157  1.0
  H  H5  1  0.76723764  0.66226166  0.49994830  1.0
  H  H6  1  0.22148415  0.16056502  0.49995884  1.0
  H  H7  1  0.23282315  0.33775586  0.49998425  1.0
  H  H8  1  0.76729923  0.33770964  0.50019121  1.0
  H  H9  1  0.77853532  0.16051449  0.50014803  1.0
  H  H10  1  0.23277301  0.50004756  0.66225070  1.0
  H  H11  1  0.22146372  0.50000722  0.83944254  1.0
  H  H12  1  0.77851617  0.50001026  0.83947244  1.0
  H  H13  1  0.76724652  0.50005563  0.66227552  1.0
  H  H14  1  0.22147389  0.50004583  0.16056582  1.0
  H  H15  1  0.23281813  0.50002261  0.33775488  1.0
  H  H16  1  0.76728264  0.49981424  0.33771470  1.0
  H  H17  1  0.77851992  0.49985673  0.16052072  1.0
  C  C18  1  0.35090804  0.70397616  0.49995472  1.0
  C  C19  1  0.34522887  0.80309673  0.49997633  1.0
  C  C20  1  0.49997898  0.85536225  0.49997843  1.0
  C  C21  1  0.65475261  0.80310358  0.49997461  1.0
  C  C22  1  0.64909472  0.70398374  0.49995081  1.0
  C  C23  1  0.49997605  0.95643426  0.49997650  1.0
  C  C24  1  0.49998443  0.04355826  0.49999962  1.0
  C  C25  1  0.50000851  0.14463098  0.50004340  1.0
  C  C26  1  0.34525674  0.19690680  0.50001508  1.0
  C  C27  1  0.35095064  0.29602521  0.50004245  1.0
  C  C28  1  0.64914889  0.29599850  0.50017355  1.0
  C  C29  1  0.65477791  0.19688008  0.50013122  1.0
  C  C30  1  0.35091240  0.50005253  0.70398196  1.0
  C  C31  1  0.34522958  0.50002703  0.80310076  1.0
  C  C32  1  0.49998048  0.50001699  0.85536789  1.0
  C  C33  1  0.65475590  0.50002888  0.80311261  1.0
  C  C34  1  0.64909908  0.50005654  0.70399448  1.0
  C  C35  1  0.49996622  0.50000148  0.95643957  1.0
  C  C36  1  0.49996983  0.49998675  0.04356226  1.0
  C  C37  1  0.49999929  0.49995910  0.14463252  1.0
  C  C38  1  0.34524703  0.49999364  0.19690708  1.0
  C  C39  1  0.35094113  0.49996527  0.29602449  1.0
  C  C40  1  0.64913424  0.49983355  0.29600273  1.0
  C  C41  1  0.65476819  0.49987692  0.19688393  1.0
  N  N42  1  0.50000284  0.65472253  0.49994588  1.0
  N  N43  1  0.50005924  0.34526713  0.50010524  1.0
  N  N44  1  0.50001160  0.50005944  0.65473167  1.0
  N  N45  1  0.50004790  0.49990094  0.34526945  1.0
  F  F46  1  0.22663452  0.49999509  0.50000098  1.0
  F  F47  1  0.77340570  0.49999743  0.49999585  1.0
  F  F48  1  0.00001813  0.58589266  0.41409082  1.0
  F  F49  1  0.00001558  0.41411009  0.58591377  1.0
  F  F50  1  0.00001754  0.58590873  0.58589269  1.0
  F  F51  1  0.00002517  0.41408545  0.41411047  1.0
