# generated using pymatgen
data_ZnH8C15NO6F
_symmetry_space_group_name_H-M   'P 1'
_cell_length_a   9.55783598
_cell_length_b   10.86900761
_cell_length_c   16.12937672
_cell_angle_alpha   89.66354393
_cell_angle_beta   89.40934557
_cell_angle_gamma   88.92735901
_symmetry_Int_Tables_number   1
_chemical_formula_structural   ZnH8C15NO6F
_chemical_formula_sum   'Zn2 H16 C30 N2 O12 F2'
_cell_volume   1675.17759981
_cell_formula_units_Z   2
loop_
 _symmetry_equiv_pos_site_id
 _symmetry_equiv_pos_as_xyz
  1  'x, y, z'
loop_
 _atom_site_type_symbol
 _atom_site_label
 _atom_site_symmetry_multiplicity
 _atom_site_fract_x
 _atom_site_fract_y
 _atom_site_fract_z
 _atom_site_occupancy
  Zn  Zn0  1  0.64708333  0.50382294  0.49148584  1.0
  Zn  Zn1  1  0.35289882  0.49618040  0.50850867  1.0
  H  H2  1  0.66479454  0.65821713  0.95415618  1.0
  H  H3  1  0.33526621  0.34177754  0.04583875  1.0
  H  H4  1  0.27178566  0.53813638  0.93465583  1.0
  H  H5  1  0.72827410  0.46185461  0.06533910  1.0
  H  H6  1  0.38880590  0.09655625  0.62149851  1.0
  H  H7  1  0.61115313  0.90344902  0.37850412  1.0
  H  H8  1  0.75302602  0.04361082  0.49970097  1.0
  H  H9  1  0.24692252  0.95639542  0.50030231  1.0
  H  H10  1  0.87620222  0.53409305  0.63060714  1.0
  H  H11  1  0.12378101  0.46590382  0.36939420  1.0
  H  H12  1  0.10423802  0.68044866  0.56083750  1.0
  H  H13  1  0.89574628  0.31954729  0.43916384  1.0
  H  H14  1  0.38030358  0.77831308  0.00664889  1.0
  H  H15  1  0.61973844  0.22167339  0.99334858  1.0
  H  H16  1  0.99735102  0.72306286  0.37022192  1.0
  H  H17  1  0.00263944  0.27693949  0.62978125  1.0
  C  C18  1  0.47238360  0.73897592  0.50273367  1.0
  C  C19  1  0.52758376  0.26103113  0.49727079  1.0
  C  C20  1  0.43684051  0.05189639  0.56749298  1.0
  C  C21  1  0.56311429  0.94811258  0.43250841  1.0
  C  C22  1  0.52053024  0.12427496  0.49861672  1.0
  C  C23  1  0.47943393  0.87573672  0.50138588  1.0
  C  C24  1  0.64115806  0.02452067  0.49958575  1.0
  C  C25  1  0.35879362  0.97548740  0.50041565  1.0
  C  C26  1  0.05065360  0.60207452  0.53462378  1.0
  C  C27  1  0.94933174  0.39792235  0.46537632  1.0
  C  C28  1  0.93871840  0.51977020  0.57431329  1.0
  C  C29  1  0.06126696  0.48022482  0.42568743  1.0
  C  C30  1  0.97069966  0.59502608  0.45076289  1.0
  C  C31  1  0.02928880  0.40497076  0.54923905  1.0
  C  C32  1  0.48003717  0.50433074  0.33768228  1.0
  C  C33  1  0.51995745  0.49567621  0.66231529  1.0
  C  C34  1  0.59204200  0.58778720  0.97507886  1.0
  C  C35  1  0.40802295  0.41220375  0.02492040  1.0
  C  C36  1  0.45000039  0.61184733  0.02297895  1.0
  C  C37  1  0.55005095  0.38814461  0.97701973  1.0
  C  C38  1  0.47221145  0.50495085  0.24820315  1.0
  C  C39  1  0.52780737  0.49504399  0.75180057  1.0
  C  C40  1  0.62752932  0.47906023  0.03547701  1.0
  C  C41  1  0.37252518  0.52092985  0.96452166  1.0
  C  C42  1  0.48594666  0.50239755  0.08514373  1.0
  C  C43  1  0.51411207  0.49759253  0.91485121  1.0
  C  C44  1  0.47411869  0.50480854  0.17263691  1.0
  C  C45  1  0.52592108  0.49518992  0.82735806  1.0
  C  C46  1  0.55783203  0.95390249  0.56797336  1.0
  C  C47  1  0.44212380  0.04610832  0.43202741  1.0
  N  N48  1  0.86060008  0.51190677  0.49118479  1.0
  N  N49  1  0.13938314  0.48809195  0.50881530  1.0
  O  O50  1  0.59140671  0.68448731  0.49886380  1.0
  O  O51  1  0.40856766  0.31550430  0.50108735  1.0
  O  O52  1  0.35359748  0.68857441  0.50759055  1.0
  O  O53  1  0.64638608  0.31144435  0.49245229  1.0
  O  O54  1  0.60305477  0.49856218  0.36739050  1.0
  O  O55  1  0.39694295  0.50137203  0.63261525  1.0
  O  O56  1  0.36525608  0.50962162  0.37848784  1.0
  O  O57  1  0.63474908  0.49045802  0.62149840  1.0
  O  O58  1  0.39921250  0.72314921  0.05325395  1.0
  O  O59  1  0.60084629  0.27683811  0.94673914  1.0
  O  O60  1  0.91999583  0.68804196  0.40183287  1.0
  O  O61  1  0.07999262  0.31195673  0.59816721  1.0
  F  F62  1  0.61540061  0.90499424  0.63885844  1.0
  F  F63  1  0.38455528  0.09501197  0.36114233  1.0
