# generated using pymatgen
data_AlH9C21(NO3)4
_symmetry_space_group_name_H-M   'P 1'
_cell_length_a   4.17034681
_cell_length_b   13.45247928
_cell_length_c   13.45144018
_cell_angle_alpha   119.99155892
_cell_angle_beta   89.99726305
_cell_angle_gamma   89.99819843
_symmetry_Int_Tables_number   1
_chemical_formula_structural   AlH9C21(NO3)4
_chemical_formula_sum   'Al1 H9 C21 N4 O12'
_cell_volume   653.59820898
_cell_formula_units_Z   1
loop_
 _symmetry_equiv_pos_site_id
 _symmetry_equiv_pos_as_xyz
  1  'x, y, z'
loop_
 _atom_site_type_symbol
 _atom_site_label
 _atom_site_symmetry_multiplicity
 _atom_site_fract_x
 _atom_site_fract_y
 _atom_site_fract_z
 _atom_site_occupancy
  Al  Al0  1  0.03452990  0.49997316  0.50000487  1.0
  H  H1  1  0.24227291  0.19397111  0.22492427  1.0
  H  H2  1  0.21701433  0.98358008  0.11001036  1.0
  H  H3  1  0.77873330  0.96111836  0.36838403  1.0
  H  H4  1  0.77866746  0.90727571  0.03881575  1.0
  H  H5  1  0.24231040  0.53098350  0.80613926  1.0
  H  H6  1  0.21700796  0.62652899  0.01655364  1.0
  H  H7  1  0.77878734  0.63166900  0.09276722  1.0
  H  H8  1  0.24216560  0.77508962  0.46905158  1.0
  H  H9  1  0.21694383  0.89001477  0.37354044  1.0
  C  C10  1  0.53446061  0.60016756  0.67336901  1.0
  C  C11  1  0.53447311  0.57315814  0.39981997  1.0
  C  C12  1  0.53451447  0.32662938  0.42684323  1.0
  C  C13  1  0.35874779  0.14249539  0.25648328  1.0
  C  C14  1  0.34232111  0.02342368  0.19201127  1.0
  C  C15  1  0.49093585  0.95486208  0.23069453  1.0
  C  C16  1  0.65791064  0.00937509  0.33458508  1.0
  C  C17  1  0.66624210  0.12833123  0.39876553  1.0
  C  C18  1  0.51912416  0.19778767  0.36224279  1.0
  C  C19  1  0.65783477  0.82522474  0.99059443  1.0
  C  C20  1  0.66615998  0.77040704  0.87161357  1.0
  C  C21  1  0.51910120  0.66443427  0.80220285  1.0
  C  C22  1  0.35875552  0.61401361  0.85756371  1.0
  C  C23  1  0.34228471  0.66865812  0.97665554  1.0
  C  C24  1  0.49089647  0.77589205  0.04518078  1.0
  C  C25  1  0.65791899  0.66545052  0.17480913  1.0
  C  C26  1  0.66624826  0.60125817  0.22959593  1.0
  C  C27  1  0.51908038  0.63776902  0.33556671  1.0
  C  C28  1  0.35867457  0.74352949  0.38601458  1.0
  C  C29  1  0.34226441  0.80800797  0.33139376  1.0
  C  C30  1  0.49091199  0.76934138  0.22415219  1.0
  N  N31  1  0.47421432  0.83338460  0.16668556  1.0
  N  N32  1  0.83853337  0.18018144  0.50919683  1.0
  N  N33  1  0.83842007  0.82894518  0.81969721  1.0
  N  N34  1  0.83856999  0.49083792  0.17104050  1.0
  O  O35  1  0.77369323  0.36987892  0.40367226  1.0
  O  O36  1  0.77362236  0.53374395  0.63011878  1.0
  O  O37  1  0.77365806  0.59631193  0.46622568  1.0
  O  O38  1  0.29893422  0.37979141  0.49111756  1.0
  O  O39  1  0.29891160  0.50888900  0.38871153  1.0
  O  O40  1  0.29888177  0.61125854  0.62019677  1.0
  O  O41  1  0.79235667  0.28335022  0.57704591  1.0
  O  O42  1  0.01840908  0.11728221  0.52729194  1.0
  O  O43  1  0.79223445  0.79356302  0.71650200  1.0
  O  O44  1  0.01821810  0.90995269  0.88255498  1.0
  O  O45  1  0.79237547  0.42299955  0.20638833  1.0
  O  O46  1  0.01844859  0.47275535  0.09005054  1.0
