# generated using pymatgen
data_ZnH11C13INO5
_symmetry_space_group_name_H-M   'P 1'
_cell_length_a   9.67921994
_cell_length_b   11.08142025
_cell_length_c   11.21998984
_cell_angle_alpha   93.18491438
_cell_angle_beta   105.22864443
_cell_angle_gamma   90.55668866
_symmetry_Int_Tables_number   1
_chemical_formula_structural   ZnH11C13INO5
_chemical_formula_sum   'Zn2 H22 C26 I2 N2 O10'
_cell_volume   1159.02902492
_cell_formula_units_Z   2
loop_
 _symmetry_equiv_pos_site_id
 _symmetry_equiv_pos_as_xyz
  1  'x, y, z'
loop_
 _atom_site_type_symbol
 _atom_site_label
 _atom_site_symmetry_multiplicity
 _atom_site_fract_x
 _atom_site_fract_y
 _atom_site_fract_z
 _atom_site_occupancy
  Zn  Zn0  1  0.36812845  0.49215268  0.49635681  1.0
  Zn  Zn1  1  0.65779518  0.49749644  0.51396641  1.0
  H  H2  1  0.62213052  0.49310598  0.12655080  1.0
  H  H3  1  0.70595384  0.87520479  0.44386265  1.0
  H  H4  1  0.16789686  0.10596985  0.46839932  1.0
  H  H5  1  0.26188485  0.90239518  0.64355535  1.0
  H  H6  1  0.67360126  0.25840804  0.33233751  1.0
  H  H7  1  0.60903504  0.12380962  0.23879622  1.0
  H  H8  1  0.85917306  0.07371989  0.23223407  1.0
  H  H9  1  0.81607065  0.22075418  0.17841707  1.0
  H  H10  1  0.92715230  0.20375148  0.33064173  1.0
  H  H11  1  0.14056604  0.27157077  0.55904435  1.0
  H  H12  1  0.23154660  0.31071897  0.71563512  1.0
  H  H13  1  0.82149315  0.42180449  0.32607705  1.0
  H  H14  1  0.06884224  0.16595927  0.78501321  1.0
  H  H15  1  0.96956835  0.27909259  0.69478200  1.0
  H  H16  1  0.97290398  0.13131503  0.62696179  1.0
  H  H17  1  0.07998835  0.41900303  0.31910144  1.0
  H  H18  1  0.23743004  0.56401124  0.78623617  1.0
  H  H19  1  0.22047732  0.70562760  0.71528499  1.0
  H  H20  1  0.97887709  0.56950686  0.79203070  1.0
  H  H21  1  0.95944646  0.71017517  0.71911308  1.0
  H  H22  1  0.39722406  0.43624734  0.87283371  1.0
  H  H23  1  0.71449974  0.52013753  0.93723729  1.0
  C  C24  1  0.51022568  0.72863083  0.50244010  1.0
  C  C25  1  0.90681488  0.45921237  0.40339416  1.0
  C  C26  1  0.04947440  0.45767248  0.39970648  1.0
  C  C27  1  0.57996324  0.49409987  0.74556882  1.0
  C  C28  1  0.11522188  0.55275898  0.58974068  1.0
  C  C29  1  0.16848583  0.61738727  0.71585870  1.0
  C  C30  1  0.00541110  0.62001847  0.71931673  1.0
  C  C31  1  0.50964762  0.25896283  0.48928675  1.0
  C  C32  1  0.44307109  0.47482467  0.26129436  1.0
  C  C33  1  0.60698615  0.49326484  0.88185816  1.0
  C  C34  1  0.50147878  0.46379967  0.93443151  1.0
  C  C35  1  0.50505653  0.86221277  0.49176749  1.0
  C  C36  1  0.41164279  0.45554031  0.12320343  1.0
  C  C37  1  0.51631425  0.46980810  0.06484481  1.0
  C  C38  1  0.39296321  0.93298318  0.51092888  1.0
  C  C39  1  0.70186711  0.16618155  0.30808570  1.0
  C  C40  1  0.83380729  0.16576320  0.25950650  1.0
  C  C41  1  0.17002897  0.23794159  0.65268167  1.0
  C  C42  1  0.03795038  0.20066372  0.69208951  1.0
  C  C43  1  0.61636605  0.92517184  0.46179045  1.0
  C  C44  1  0.61857718  0.05131116  0.45262958  1.0
  C  C45  1  0.50910893  0.12369750  0.48011776  1.0
  C  C46  1  0.39697895  0.05821163  0.50521175  1.0
  C  C47  1  0.25711925  0.07517874  0.54243062  1.0
  C  C48  1  0.25722520  0.93309751  0.55161691  1.0
  C  C49  1  0.97223420  0.55412313  0.59335941  1.0
  I  I50  1  0.06581701  0.83843306  0.43088005  1.0
  I  I51  1  0.19740187  0.41207166  0.02813772  1.0
  N  N52  1  0.86570826  0.50556704  0.50318985  1.0
  N  N53  1  0.15781236  0.50252438  0.49580799  1.0
  O  O54  1  0.40246543  0.67690379  0.52489266  1.0
  O  O55  1  0.26888951  0.14131440  0.65539196  1.0
  O  O56  1  0.62193696  0.67611826  0.48833931  1.0
  O  O57  1  0.45205012  0.47064951  0.68090757  1.0
  O  O58  1  0.68643259  0.51973574  0.70323460  1.0
  O  O59  1  0.38754744  0.30776714  0.46444373  1.0
  O  O60  1  0.63061534  0.31472588  0.52374069  1.0
  O  O61  1  0.33994527  0.50065144  0.30757839  1.0
  O  O62  1  0.57365054  0.46438743  0.32030428  1.0
  O  O63  1  0.73295852  0.09561203  0.41654787  1.0
