# generated using pymatgen
data_Zn2H15C28Br2N3O10
_symmetry_space_group_name_H-M   'P 1'
_cell_length_a   9.71974877
_cell_length_b   11.06157161
_cell_length_c   11.06973742
_cell_angle_alpha   83.97800855
_cell_angle_beta   87.92566328
_cell_angle_gamma   89.96693348
_symmetry_Int_Tables_number   1
_chemical_formula_structural   Zn2H15C28Br2N3O10
_chemical_formula_sum   'Zn2 H15 C28 Br2 N3 O10'
_cell_volume   1182.82100240
_cell_formula_units_Z   1
loop_
 _symmetry_equiv_pos_site_id
 _symmetry_equiv_pos_as_xyz
  1  'x, y, z'
loop_
 _atom_site_type_symbol
 _atom_site_label
 _atom_site_symmetry_multiplicity
 _atom_site_fract_x
 _atom_site_fract_y
 _atom_site_fract_z
 _atom_site_occupancy
  Zn  Zn0  1  0.35723076  0.49998198  0.49555692  1.0
  Zn  Zn1  1  0.64318936  0.50127801  0.48580014  1.0
  H  H2  1  0.52108684  0.66534307  0.83822297  1.0
  H  H3  1  0.48995726  0.08865792  0.20785692  1.0
  H  H4  1  0.51712493  0.29758341  0.26240827  1.0
  H  H5  1  0.52409422  0.69512542  0.05734942  1.0
  H  H6  1  0.71641946  0.89094318  0.48840214  1.0
  H  H7  1  0.71304660  0.11649242  0.48546483  1.0
  H  H8  1  0.16500303  0.10991037  0.53763716  1.0
  H  H9  1  0.16833564  0.87917635  0.54785714  1.0
  H  H10  1  0.18232154  0.89221003  0.38517240  1.0
  H  H11  1  0.88150937  0.40556237  0.33801566  1.0
  H  H12  1  0.14021454  0.40759427  0.34222963  1.0
  H  H13  1  0.11112744  0.56366377  0.76845025  1.0
  H  H14  1  0.11768999  0.70640678  0.67632784  1.0
  H  H15  1  0.84955761  0.56537182  0.76283856  1.0
  H  H16  1  0.85695928  0.70675222  0.66860372  1.0
  C  C17  1  0.49959505  0.73585046  0.49024975  1.0
  C  C18  1  0.49434563  0.47312213  0.73008942  1.0
  C  C19  1  0.49338146  0.26704487  0.47946446  1.0
  C  C20  1  0.51349722  0.51810522  0.25038346  1.0
  C  C21  1  0.46214248  0.24551776  0.92821838  1.0
  C  C22  1  0.46266041  0.14802583  0.01730284  1.0
  C  C23  1  0.48581577  0.16614782  0.13890326  1.0
  C  C24  1  0.50096547  0.28266492  0.16851148  1.0
  C  C25  1  0.49799492  0.38494547  0.08014556  1.0
  C  C26  1  0.48476871  0.36784574  0.95367671  1.0
  C  C27  1  0.49598354  0.47266347  0.86652987  1.0
  C  C28  1  0.51174220  0.58653192  0.90615724  1.0
  C  C29  1  0.51517087  0.60361127  0.03012942  1.0
  C  C30  1  0.50934073  0.50426020  0.11647078  1.0
  C  C31  1  0.37560306  0.93782351  0.47207218  1.0
  C  C32  1  0.49706072  0.87121741  0.48228427  1.0
  C  C33  1  0.61904656  0.93981868  0.48384302  1.0
  C  C34  1  0.61734101  0.06625095  0.48103199  1.0
  C  C35  1  0.49375881  0.13282168  0.47452765  1.0
  C  C36  1  0.37425578  0.06460572  0.46701961  1.0
  C  C37  1  0.21951073  0.06972781  0.46346635  1.0
  C  C38  1  0.22049880  0.92715556  0.46699368  1.0
  C  C39  1  0.92267590  0.54941518  0.57442029  1.0
  C  C40  1  0.93429973  0.44810396  0.40774992  1.0
  C  C41  1  0.07769147  0.44969066  0.40972032  1.0
  C  C42  1  0.06591770  0.55029379  0.57691448  1.0
  C  C43  1  0.06807794  0.61668236  0.68938205  1.0
  C  C44  1  0.90438891  0.61677260  0.68568215  1.0
  Br  Br45  1  0.14119726  0.15015107  0.31281544  1.0
  Br  Br46  1  0.43573211  0.98594374  0.98051923  1.0
  N  N47  1  0.85347812  0.49933285  0.49101761  1.0
  N  N48  1  0.14659333  0.50186030  0.49551878  1.0
  N  N49  1  0.43954751  0.21731835  0.80303038  1.0
  O  O50  1  0.38327608  0.68170240  0.50412349  1.0
  O  O51  1  0.61659041  0.68495806  0.48292619  1.0
  O  O52  1  0.37763778  0.46690470  0.68310098  1.0
  O  O53  1  0.61028919  0.48756227  0.67379523  1.0
  O  O54  1  0.37610190  0.31812507  0.48239103  1.0
  O  O55  1  0.60978460  0.32012852  0.47861063  1.0
  O  O56  1  0.39786652  0.52550091  0.30650439  1.0
  O  O57  1  0.63145894  0.51789438  0.29614054  1.0
  O  O58  1  0.54331804  0.21486332  0.73520188  1.0
  O  O59  1  0.32052498  0.19511773  0.77667490  1.0
