# generated using pymatgen
data_ZnH16C24(NO2)2
_symmetry_space_group_name_H-M   'P 1'
_cell_length_a   14.35781660
_cell_length_b   15.09357961
_cell_length_c   15.19837385
_cell_angle_alpha   89.99983814
_cell_angle_beta   74.09567346
_cell_angle_gamma   89.99985442
_symmetry_Int_Tables_number   1
_chemical_formula_structural   ZnH16C24(NO2)2
_chemical_formula_sum   'Zn4 H64 C96 N8 O16'
_cell_volume   3167.57350673
_cell_formula_units_Z   4
loop_
 _symmetry_equiv_pos_site_id
 _symmetry_equiv_pos_as_xyz
  1  'x, y, z'
loop_
 _atom_site_type_symbol
 _atom_site_label
 _atom_site_symmetry_multiplicity
 _atom_site_fract_x
 _atom_site_fract_y
 _atom_site_fract_z
 _atom_site_occupancy
  Zn  Zn0  1  0.00616031  0.73545521  0.74795626  1.0
  Zn  Zn1  1  0.49383809  0.23545531  0.25204517  1.0
  Zn  Zn2  1  0.99383883  0.26454588  0.25204632  1.0
  Zn  Zn3  1  0.50616030  0.76454578  0.74795498  1.0
  H  H4  1  0.17667119  0.52223620  0.51068511  1.0
  H  H5  1  0.32332763  0.02223273  0.48931615  1.0
  H  H6  1  0.82333301  0.47776820  0.48931547  1.0
  H  H7  1  0.67666860  0.97776571  0.51068523  1.0
  H  H8  1  0.95124015  0.68980392  0.47384164  1.0
  H  H9  1  0.54875693  0.18980034  0.52615647  1.0
  H  H10  1  0.04876114  0.31019783  0.52615839  1.0
  H  H11  1  0.45123927  0.81019876  0.47384163  1.0
  H  H12  1  0.81239822  0.52843938  0.98384519  1.0
  H  H13  1  0.68759992  0.02843957  0.01615639  1.0
  H  H14  1  0.18760235  0.47156104  0.01615570  1.0
  H  H15  1  0.31239775  0.97155953  0.98384461  1.0
  H  H16  1  0.08733872  0.50341674  0.26138637  1.0
  H  H17  1  0.41266302  0.00341367  0.73861351  1.0
  H  H18  1  0.91266403  0.49658501  0.73861460  1.0
  H  H19  1  0.58733826  0.99658477  0.26138522  1.0
  H  H20  1  0.89140331  0.50642039  0.23847130  1.0
  H  H21  1  0.60859561  0.00642130  0.76153079  1.0
  H  H22  1  0.10859581  0.49357937  0.76152931  1.0
  H  H23  1  0.39140279  0.99357979  0.23847067  1.0
  H  H24  1  0.35498926  0.28888324  0.42889639  1.0
  H  H25  1  0.14501337  0.78888132  0.57110311  1.0
  H  H26  1  0.64501348  0.71111851  0.57110326  1.0
  H  H27  1  0.85498574  0.21111778  0.42889685  1.0
  H  H28  1  0.05489368  0.67290906  0.01926813  1.0
  H  H29  1  0.44510339  0.17290853  0.98073382  1.0
  H  H30  1  0.94510762  0.32709004  0.98073257  1.0
  H  H31  1  0.55489429  0.82709057  0.01926848  1.0
  H  H32  1  0.81422985  0.38499532  0.25536136  1.0
  H  H33  1  0.68576759  0.88499744  0.74464071  1.0
  H  H34  1  0.18576926  0.61500444  0.74463859  1.0
  H  H35  1  0.31423152  0.11500497  0.25535925  1.0
  H  H36  1  0.23259503  0.44901935  0.20247666  1.0
  H  H37  1  0.26740438  0.94901781  0.79752324  1.0
  H  H38  1  0.76740409  0.55098108  0.79752461  1.0
  H  H39  1  0.73259764  0.05097996  0.20247661  1.0
  H  H40  1  0.96817796  0.62399070  0.31961774  1.0
  H  H41  1  0.53181997  0.12398938  0.68037967  1.0
  H  H42  1  0.03182188  0.37600906  0.68038268  1.0
  H  H43  1  0.46817912  0.87601038  0.31961765  1.0
  H  H44  1  0.67445034  0.28277580  0.30579365  1.0
  H  H45  1  0.82554802  0.78277905  0.69420715  1.0
  H  H46  1  0.32554877  0.71722330  0.69420565  1.0
  H  H47  1  0.17445109  0.21722336  0.30579281  1.0
  H  H48  1  0.21809998  0.39268177  0.48490980  1.0
  H  H49  1  0.28190389  0.89267835  0.51508973  1.0
  H  H50  1  0.78190349  0.60732131  0.51509032  1.0
  H  H51  1  0.71809522  0.10732009  0.48491022  1.0
  H  H52  1  0.36601040  0.33879623  0.15863705  1.0
  H  H53  1  0.13398849  0.83879422  0.84136198  1.0
  H  H54  1  0.63398798  0.66120486  0.84136244  1.0
  H  H55  1  0.86601207  0.16120422  0.15863825  1.0
  H  H56  1  0.54341818  0.38297777  0.11627027  1.0
  H  H57  1  0.95658143  0.88297950  0.88372991  1.0
  H  H58  1  0.45657948  0.61702332  0.88373073  1.0
  H  H59  1  0.04341697  0.11702225  0.11627089  1.0
  H  H60  1  0.02785253  0.60955081  0.17566801  1.0
  H  H61  1  0.47214466  0.10955132  0.82433343  1.0
  H  H62  1  0.97214586  0.39044829  0.82433213  1.0
  H  H63  1  0.52785229  0.89044844  0.17566842  1.0
  H  H64  1  0.67334880  0.49401166  0.06111642  1.0
  H  H65  1  0.82664987  0.99401421  0.93888502  1.0
  H  H66  1  0.32664959  0.50598744  0.93888439  1.0
  H  H67  1  0.17334780  0.00598688  0.06111663  1.0
  C  C68  1  0.14280159  0.50474555  0.38048217  1.0
  C  C69  1  0.35719724  0.00474361  0.61951650  1.0
  C  C70  1  0.85720114  0.49525620  0.61951551  1.0
  C  C71  1  0.64280188  0.99525416  0.38048411  1.0
  C  C72  1  0.21643788  0.43524045  0.34857804  1.0
  C  C73  1  0.28356373  0.93523664  0.65142131  1.0
  C  C74  1  0.78356486  0.56476196  0.65142161  1.0
  C  C75  1  0.71643612  0.06476047  0.34857977  1.0
  C  C76  1  0.05135619  0.64110333  0.59648869  1.0
  C  C77  1  0.44864164  0.14110046  0.40351052  1.0
  C  C78  1  0.94864654  0.35889776  0.40351096  1.0
  C  C79  1  0.55135457  0.85889864  0.59648955  1.0
  C  C80  1  0.06239108  0.60757860  0.50137921  1.0
  C  C81  1  0.43760899  0.10757615  0.49861884  1.0
  C  C82  1  0.93761021  0.39242182  0.49862148  1.0
  C  C83  1  0.56239083  0.89242030  0.50137895  1.0
  C  C84  1  0.13153545  0.54240980  0.46716306  1.0
  C  C85  1  0.36846619  0.04240609  0.53283410  1.0
  C  C86  1  0.86847161  0.45759262  0.53283347  1.0
  C  C87  1  0.63153220  0.95759102  0.46716605  1.0
  C  C88  1  0.93325145  0.60507644  0.99370859  1.0
  C  C89  1  0.56674581  0.10507563  0.00629300  1.0
  C  C90  1  0.06675056  0.39492332  0.00629125  1.0
  C  C91  1  0.43325113  0.89492281  0.99370819  1.0
  C  C92  1  0.83905075  0.51126043  0.11723895  1.0
  C  C93  1  0.66094815  0.01126220  0.88276181  1.0
  C  C94  1  0.16094908  0.48873933  0.88276081  1.0
  C  C95  1  0.33905024  0.98873823  0.11723833  1.0
  C  C96  1  0.75775862  0.44921224  0.15184488  1.0
  C  C97  1  0.74224158  0.94921460  0.84815561  1.0
  C  C98  1  0.24224193  0.55078752  0.84815403  1.0
  C  C99  1  0.25775825  0.05078848  0.15184415  1.0
  C  C100  1  0.00451764  0.63819309  0.44701952  1.0
  C  C101  1  0.49548165  0.13818968  0.55297931  1.0
  C  C102  1  0.99548510  0.36181065  0.55298013  1.0
  C  C103  1  0.50451601  0.86180942  0.44701972  1.0
  C  C104  1  0.85649716  0.54698036  0.02893408  1.0
  C  C105  1  0.64350093  0.04698125  0.97106613  1.0
  C  C106  1  0.14350196  0.45302073  0.97106718  1.0
  C  C107  1  0.35649745  0.95301851  0.02893336  1.0
  C  C108  1  0.08299812  0.53476310  0.32718394  1.0
  C  C109  1  0.41700065  0.03475954  0.67281466  1.0
  C  C110  1  0.91700317  0.46523932  0.67281609  1.0
  C  C111  1  0.58299773  0.96523890  0.32718418  1.0
  C  C112  1  0.94911036  0.64024383  0.89846932  1.0
  C  C113  1  0.55088829  0.14024212  0.10153246  1.0
  C  C114  1  0.05089165  0.35975527  0.10153052  1.0
  C  C115  1  0.44911084  0.85975499  0.89847012  1.0
  C  C116  1  0.90193126  0.53446485  0.17018791  1.0
  C  C117  1  0.59806543  0.03446493  0.82981469  1.0
  C  C118  1  0.09806786  0.46553491  0.82981336  1.0
  C  C119  1  0.40193080  0.96553483  0.17018734  1.0
  C  C120  1  0.32599464  0.32626281  0.38105184  1.0
  C  C121  1  0.17400719  0.82626135  0.61894776  1.0
  C  C122  1  0.67400738  0.67373894  0.61894800  1.0
  C  C123  1  0.82599265  0.17373908  0.38105200  1.0
  C  C124  1  0.99454027  0.62822133  0.04750774  1.0
  C  C125  1  0.50545623  0.12822062  0.95249399  1.0
  C  C126  1  0.00545958  0.37177976  0.95249334  1.0
  C  C127  1  0.49454072  0.87177914  0.04750785  1.0
  C  C128  1  0.75578290  0.38847705  0.22254025  1.0
  C  C129  1  0.74421525  0.88847894  0.77746031  1.0
  C  C130  1  0.24421620  0.61152271  0.77745840  1.0
  C  C131  1  0.25578314  0.11152281  0.22253984  1.0
  C  C132  1  0.25819359  0.41670285  0.25545630  1.0
  C  C133  1  0.24180588  0.91670020  0.74454367  1.0
  C  C134  1  0.74181059  0.58330088  0.74454296  1.0
  C  C135  1  0.75819034  0.08329956  0.25545771  1.0
  C  C136  1  0.01504802  0.60142724  0.36062990  1.0
  C  C137  1  0.48495279  0.10142228  0.63936863  1.0
  C  C138  1  0.98495617  0.39857783  0.63937003  1.0
  C  C139  1  0.51504559  0.89857748  0.36063020  1.0
  C  C140  1  0.67828056  0.33045111  0.25104202  1.0
  C  C141  1  0.82171698  0.83045421  0.74895820  1.0
  C  C142  1  0.32171709  0.66954733  0.74895700  1.0
  C  C143  1  0.17828068  0.16954820  0.25104148  1.0
  C  C144  1  0.25035113  0.38535686  0.41165800  1.0
  C  C145  1  0.24964913  0.88535397  0.58834250  1.0
  C  C146  1  0.74964943  0.61464489  0.58834222  1.0
  C  C147  1  0.75035071  0.11464314  0.41165857  1.0
  C  C148  1  0.33274352  0.35526807  0.23024621  1.0
  C  C149  1  0.16725463  0.85526884  0.76975362  1.0
  C  C150  1  0.66725778  0.64473302  0.76975448  1.0
  C  C151  1  0.83274303  0.14473092  0.23024606  1.0
  C  C152  1  0.60460155  0.38653413  0.14563213  1.0
  C  C153  1  0.89539733  0.88653544  0.85436824  1.0
  C  C154  1  0.39539683  0.61346695  0.85436736  1.0
  C  C155  1  0.10460034  0.11346565  0.14563276  1.0
  C  C156  1  0.97867541  0.59254314  0.13501138  1.0
  C  C157  1  0.52132262  0.09254265  0.86499071  1.0
  C  C158  1  0.02132371  0.40745794  0.86498989  1.0
  C  C159  1  0.47867506  0.90745712  0.13501160  1.0
  C  C160  1  0.67839160  0.44744144  0.11429040  1.0
  C  C161  1  0.82160717  0.94744350  0.88571114  1.0
  C  C162  1  0.32160679  0.55255965  0.88570975  1.0
  C  C163  1  0.17839195  0.05255825  0.11428947  1.0
  N  N164  1  0.60375515  0.32846299  0.21309328  1.0
  N  N165  1  0.89624384  0.82846514  0.78690722  1.0
  N  N166  1  0.39624251  0.67153744  0.78690640  1.0
  N  N167  1  0.10375454  0.17153594  0.21309292  1.0
  N  N168  1  0.36856682  0.31215159  0.29156596  1.0
  N  N169  1  0.13143285  0.81215130  0.70843359  1.0
  N  N170  1  0.63143374  0.68784751  0.70843426  1.0
  N  N171  1  0.86856552  0.18784780  0.29156525  1.0
  O  O172  1  0.01868782  0.69731363  0.87048812  1.0
  O  O173  1  0.48130992  0.19731213  0.12951358  1.0
  O  O174  1  0.98131418  0.30268547  0.12951107  1.0
  O  O175  1  0.51868848  0.80268565  0.87048853  1.0
  O  O176  1  0.10483667  0.61164034  0.64289883  1.0
  O  O177  1  0.39515834  0.11164171  0.35710318  1.0
  O  O178  1  0.89516678  0.38836008  0.35709997  1.0
  O  O179  1  0.60483499  0.88836004  0.64289963  1.0
  O  O180  1  0.98593625  0.70130921  0.62700140  1.0
  O  O181  1  0.51406443  0.20130417  0.37299704  1.0
  O  O182  1  0.01406722  0.29869254  0.37299871  1.0
  O  O183  1  0.48593466  0.79869228  0.62700095  1.0
  O  O184  1  0.89617901  0.61532741  0.84960668  1.0
  O  O185  1  0.60382113  0.11532676  0.15039345  1.0
  O  O186  1  0.10382083  0.38467301  0.15039373  1.0
  O  O187  1  0.39618089  0.88467234  0.84960704  1.0
