# generated using pymatgen
data_Zn4H24C42S3O19
_symmetry_space_group_name_H-M   'P 1'
_cell_length_a   24.68955503
_cell_length_b   25.05359043
_cell_length_c   25.15997305
_cell_angle_alpha   90.22081537
_cell_angle_beta   119.30001422
_cell_angle_gamma   119.41369435
_symmetry_Int_Tables_number   1
_chemical_formula_structural   Zn4H24C42S3O19
_chemical_formula_sum   'Zn8 H48 C84 S6 O38'
_cell_volume   11195.04987395
_cell_formula_units_Z   2
loop_
 _symmetry_equiv_pos_site_id
 _symmetry_equiv_pos_as_xyz
  1  'x, y, z'
loop_
 _atom_site_type_symbol
 _atom_site_label
 _atom_site_symmetry_multiplicity
 _atom_site_fract_x
 _atom_site_fract_y
 _atom_site_fract_z
 _atom_site_occupancy
  Zn  Zn0  1  0.92486081  0.88688989  0.93869478  1.0
  Zn  Zn1  1  0.05395396  0.01344614  0.93643453  1.0
  Zn  Zn2  1  0.05174334  0.01355801  0.06271484  1.0
  Zn  Zn3  1  0.92423071  0.01401314  0.93677954  1.0
  Zn  Zn4  1  0.05552282  0.57846291  0.49923158  1.0
  Zn  Zn5  1  0.92427313  0.44911596  0.49747497  1.0
  Zn  Zn6  1  0.05656596  0.45203114  0.49967798  1.0
  Zn  Zn7  1  0.93185266  0.45094547  0.37279753  1.0
  H  H8  1  0.12338694  0.92057291  0.87762523  1.0
  H  H9  1  0.16446553  0.85213094  0.85969979  1.0
  H  H10  1  0.96335882  0.68132497  0.82475900  1.0
  H  H11  1  0.92365527  0.75009380  0.84418555  1.0
  H  H12  1  0.14082659  0.76656006  0.75160665  1.0
  H  H13  1  0.09981834  0.70932127  0.64396391  1.0
  H  H14  1  0.93774241  0.53095395  0.64466739  1.0
  H  H15  1  0.97941729  0.58776498  0.75323580  1.0
  H  H16  1  0.01764215  0.92479636  0.19177517  1.0
  H  H17  1  0.97009931  0.85980242  0.25310828  1.0
  H  H18  1  0.83186562  0.68565475  0.09409462  1.0
  H  H19  1  0.87876038  0.75091814  0.03290213  1.0
  H  H20  1  0.99671079  0.77239659  0.33624883  1.0
  H  H21  1  0.04620834  0.71176541  0.39960338  1.0
  H  H22  1  0.85770493  0.53375408  0.24439535  1.0
  H  H23  1  0.80650884  0.59396925  0.18105733  1.0
  H  H24  1  0.71029828  0.92540027  0.76800870  1.0
  H  H25  1  0.58838805  0.85804306  0.65901768  1.0
  H  H26  1  0.57583133  0.68560482  0.69521658  1.0
  H  H27  1  0.69788760  0.75328426  0.80349379  1.0
  H  H28  1  0.41753100  0.77175647  0.60146748  1.0
  H  H29  1  0.29032924  0.71313814  0.58318203  1.0
  H  H30  1  0.27094796  0.53334028  0.55801846  1.0
  H  H31  1  0.39832173  0.59166780  0.57575519  1.0
  H  H32  1  0.26872186  0.07128425  0.19103312  1.0
  H  H33  1  0.39590670  0.08910083  0.25241094  1.0
  H  H34  1  0.41440551  0.12530228  0.09281476  1.0
  H  H35  1  0.28711021  0.10679061  0.03166196  1.0
  H  H36  1  0.56485991  0.20229073  0.33468422  1.0
  H  H37  1  0.68893657  0.30984435  0.39861856  1.0
  H  H38  1  0.71977160  0.29929750  0.24579005  1.0
  H  H39  1  0.59581214  0.19059306  0.18167727  1.0
  H  H40  1  0.96132021  0.17653477  0.88257773  1.0
  H  H41  1  0.00937597  0.28395759  0.86335971  1.0
  H  H42  1  0.14358301  0.25488626  0.82017473  1.0
  H  H43  1  0.09594674  0.14812324  0.84015460  1.0
  H  H44  1  0.98566648  0.34698313  0.75325721  1.0
  H  H45  1  0.93726009  0.36487077  0.64600440  1.0
  H  H46  1  0.12083288  0.38432288  0.64714185  1.0
  H  H47  1  0.16988793  0.36656277  0.75468947  1.0
  H  H48  1  0.84825049  0.06457189  0.03150408  1.0
  H  H49  1  0.81016672  0.08024551  0.10339374  1.0
  H  H50  1  0.01942440  0.12464155  0.26925815  1.0
  H  H51  1  0.05684091  0.10869137  0.19710036  1.0
  H  H52  1  0.84111474  0.19245741  0.18706916  1.0
  H  H53  1  0.88378673  0.30224872  0.24203405  1.0
  H  H54  1  0.04334511  0.30216442  0.42134739  1.0
  H  H55  1  0.00124431  0.19215483  0.36644811  1.0
  C  C56  1  0.00267494  0.88058119  0.88199103  1.0
  C  C57  1  0.02140055  0.83915647  0.86207997  1.0
  C  C58  1  0.08826379  0.86814287  0.86490127  1.0
  C  C59  1  0.11079671  0.83027266  0.85441094  1.0
  C  C60  1  0.06545702  0.76337117  0.84044687  1.0
  C  C61  1  0.99704680  0.73347267  0.83481967  1.0
  C  C62  1  0.97526305  0.77168802  0.84590974  1.0
  C  C63  1  0.06161144  0.67995391  0.75749123  1.0
  C  C64  1  0.09526987  0.71539002  0.72723556  1.0
  C  C65  1  0.07272019  0.68351996  0.66759841  1.0
  C  C66  1  0.01674399  0.61683679  0.63845875  1.0
  C  C67  1  0.98110618  0.58267318  0.66802864  1.0
  C  C68  1  0.00367102  0.61410894  0.72792695  1.0
  C  C69  1  0.99979119  0.58065535  0.57900732  1.0
  C  C70  1  0.97095972  0.88140146  0.06935137  1.0
  C  C71  1  0.95055195  0.84156692  0.10881560  1.0
  C  C72  1  0.97809583  0.87237462  0.17143476  1.0
  C  C73  1  0.95235896  0.83644094  0.20572304  1.0
  C  C74  1  0.89938171  0.76958446  0.17694086  1.0
  C  C75  1  0.87379671  0.73775147  0.11563257  1.0
  C  C76  1  0.89954285  0.77405425  0.08157829  1.0
  C  C77  1  0.89935820  0.68604554  0.25516282  1.0
  C  C78  1  0.96748282  0.72043810  0.31592432  1.0
  C  C79  1  0.99482031  0.68674401  0.35120836  1.0
  C  C80  1  0.95447140  0.61937446  0.32554486  1.0
  C  C81  1  0.88813275  0.58605279  0.26339469  1.0
  C  C82  1  0.85999180  0.61931487  0.22802830  1.0
  C  C83  1  0.97791547  0.58186544  0.36632863  1.0
  C  C84  1  0.78854013  0.88387294  0.85185421  1.0
  C  C85  1  0.71100792  0.84310526  0.79153111  1.0
  C  C86  1  0.67964688  0.87287293  0.75200555  1.0
  C  C87  1  0.61188511  0.83565860  0.69182863  1.0
  C  C88  1  0.57588548  0.76863136  0.67204325  1.0
  C  C89  1  0.60476023  0.73791577  0.71210194  1.0
  C  C90  1  0.67263037  0.77549461  0.77203605  1.0
  C  C91  1  0.41439396  0.68449183  0.58999431  1.0
  C  C92  1  0.38581054  0.71983146  0.59326438  1.0
  C  C93  1  0.31498569  0.68721461  0.58277051  1.0
  C  C94  1  0.27340217  0.61986713  0.56921745  1.0
  C  C95  1  0.30413905  0.58557770  0.56858398  1.0
  C  C96  1  0.37480907  0.61777767  0.57884550  1.0
  C  C97  1  0.19395982  0.58297171  0.55049591  1.0
  C  C98  1  0.19091064  0.06797441  0.06875791  1.0
  C  C99  1  0.27068710  0.08767043  0.10786020  1.0
  C  C100  1  0.30175876  0.08433205  0.17060545  1.0
  C  C101  1  0.37245539  0.09473446  0.20492497  1.0
  C  C102  1  0.41177833  0.10888245  0.17602947  1.0
  C  C103  1  0.38293357  0.11502262  0.11450766  1.0
  C  C104  1  0.31207731  0.10433512  0.08042657  1.0
  C  C105  1  0.57398423  0.19134549  0.25465410  1.0
  C  C106  1  0.59823783  0.22444311  0.31492591  1.0
  C  C107  1  0.66736857  0.28406775  0.35061172  1.0
  C  C108  1  0.71151361  0.31031943  0.32589349  1.0
  C  C109  1  0.68466728  0.27802965  0.26410425  1.0
  C  C110  1  0.61582583  0.21812481  0.22828401  1.0
  C  C111  1  0.79027119  0.36951157  0.36703566  1.0
  C  C112  1  0.00631901  0.09798053  0.88398504  1.0
  C  C113  1  0.02650704  0.15672786  0.86303461  1.0
  C  C114  1  0.00009733  0.19371144  0.86777679  1.0
  C  C115  1  0.02612451  0.25293646  0.85663665  1.0
  C  C116  1  0.07823385  0.27441776  0.84031952  1.0
  C  C117  1  0.10235410  0.23667710  0.83234097  1.0
  C  C118  1  0.07626576  0.17760794  0.84381491  1.0
  C  C119  1  0.07986039  0.35524777  0.75892270  1.0
  C  C120  1  0.01381712  0.35357404  0.72896048  1.0
  C  C121  1  0.98723900  0.36394841  0.66961349  1.0
  C  C122  1  0.02670610  0.37602247  0.64083270  1.0
  C  C123  1  0.09100893  0.37479951  0.67027149  1.0
  C  C124  1  0.11798463  0.36453166  0.72957834  1.0
  C  C125  1  0.00508977  0.39581760  0.58164997  1.0
  C  C126  1  0.97246265  0.06778675  0.06730749  1.0
  C  C127  1  0.95449977  0.08564683  0.11036707  1.0
  C  C128  1  0.88573470  0.07896141  0.08360646  1.0
  C  C129  1  0.86477250  0.08802961  0.12332033  1.0
  C  C130  1  0.91330006  0.10401817  0.18975004  1.0
  C  C131  1  0.98326418  0.11309984  0.21738102  1.0
  C  C132  1  0.00375612  0.10390100  0.17734608  1.0
  C  C133  1  0.91960202  0.18716833  0.27420801  1.0
  C  C134  1  0.88654700  0.21744632  0.23795553  1.0
  C  C135  1  0.90993818  0.27823677  0.26854578  1.0
  C  C136  1  0.96562884  0.30810123  0.33488430  1.0
  C  C137  1  0.00028054  0.27819225  0.36990992  1.0
  C  C138  1  0.97739238  0.21750676  0.33964283  1.0
  C  C139  1  0.98371593  0.36875125  0.37027516  1.0
  S  S140  1  0.10143997  0.71662077  0.83973217  1.0
  S  S141  1  0.85517876  0.72588694  0.21546760  1.0
  S  S142  1  0.49768532  0.72284983  0.59028672  1.0
  S  S143  1  0.49475312  0.10880982  0.21481646  1.0
  S  S144  1  0.12403855  0.35630185  0.84065575  1.0
  S  S145  1  0.88047621  0.10434216  0.23912983  1.0
  O  O146  1  0.98900031  0.98180413  0.96829381  1.0
  O  O147  1  0.04265847  0.94101975  0.89082921  1.0
  O  O148  1  0.94929949  0.85206849  0.89015927  1.0
  O  O149  1  0.07175809  0.66461872  0.86371291  1.0
  O  O150  1  0.18161633  0.76198423  0.86996386  1.0
  O  O151  1  0.94370251  0.52158161  0.55160226  1.0
  O  O152  1  0.04433484  0.61141176  0.56164798  1.0
  O  O153  1  0.01977688  0.94220558  0.09764598  1.0
  O  O154  1  0.93634785  0.85150046  0.01003641  1.0
  O  O155  1  0.77782881  0.67566871  0.16481343  1.0
  O  O156  1  0.87385462  0.77355445  0.26542150  1.0
  O  O157  1  0.94511834  0.52233168  0.33772247  1.0
  O  O158  1  0.02708556  0.61189418  0.42652948  1.0
  O  O159  1  0.81989754  0.94496789  0.86790332  1.0
  O  O160  1  0.81799647  0.85437809  0.88144130  1.0
  O  O161  1  0.50265138  0.67187165  0.57057955  1.0
  O  O162  1  0.49616506  0.76891409  0.55592173  1.0
  O  O163  1  0.16271742  0.52274584  0.54391224  1.0
  O  O164  1  0.16314941  0.61377031  0.54102504  1.0
  O  O165  1  0.15802183  0.05508773  0.09803298  1.0
  O  O166  1  0.16148123  0.06384138  0.00949724  1.0
  O  O167  1  0.49612982  0.08282009  0.16429512  1.0
  O  O168  1  0.49588108  0.07981930  0.26475457  1.0
  O  O169  1  0.82402106  0.39398407  0.33937456  1.0
  O  O170  1  0.81811233  0.38949752  0.42694902  1.0
  O  O171  1  0.96009295  0.08172563  0.90003102  1.0
  O  O172  1  0.03848775  0.06998359  0.88587863  1.0
  O  O173  1  0.20066962  0.37879202  0.86426815  1.0
  O  O174  1  0.10750571  0.38908117  0.87192695  1.0
  O  O175  1  0.04429945  0.40532230  0.55904366  1.0
  O  O176  1  0.95141268  0.40339140  0.55956033  1.0
  O  O177  1  0.92410603  0.04905707  0.00668876  1.0
  O  O178  1  0.03369143  0.07090175  0.09437920  1.0
  O  O179  1  0.91378536  0.08224368  0.29124860  1.0
  O  O180  1  0.79972892  0.07227231  0.19645893  1.0
  O  O181  1  0.03450618  0.39203061  0.43057002  1.0
  O  O182  1  0.94579074  0.39141817  0.33833299  1.0
  O  O183  1  0.99109843  0.48312714  0.46725603  1.0
