# generated using pymatgen
data_Zn2H18C36BrN8Cl
_symmetry_space_group_name_H-M   'P 1'
_cell_length_a   19.98974146
_cell_length_b   20.55871565
_cell_length_c   20.66061831
_cell_angle_alpha   68.31492018
_cell_angle_beta   74.57872888
_cell_angle_gamma   110.15989598
_symmetry_Int_Tables_number   1
_chemical_formula_structural   Zn2H18C36BrN8Cl
_chemical_formula_sum   'Zn4 H36 C72 Br2 N16 Cl2'
_cell_volume   6611.08930355
_cell_formula_units_Z   2
loop_
 _symmetry_equiv_pos_site_id
 _symmetry_equiv_pos_as_xyz
  1  'x, y, z'
loop_
 _atom_site_type_symbol
 _atom_site_label
 _atom_site_symmetry_multiplicity
 _atom_site_fract_x
 _atom_site_fract_y
 _atom_site_fract_z
 _atom_site_occupancy
  Zn  Zn0  1  0.00648430  0.39946292  0.11278419  1.0
  Zn  Zn1  1  0.01754331  0.59803138  0.89118723  1.0
  Zn  Zn2  1  0.92088026  0.40117973  0.99020023  1.0
  Zn  Zn3  1  0.10984903  0.60843352  0.00889984  1.0
  H  H4  1  0.02541175  0.22379090  0.13508489  1.0
  H  H5  1  0.40380859  0.90502871  0.47293633  1.0
  H  H6  1  0.85939151  0.58160584  0.47298813  1.0
  H  H7  1  0.98995876  0.42992060  0.56612640  1.0
  H  H8  1  0.78774542  0.43993481  0.61962654  1.0
  H  H9  1  0.06241425  0.57273654  0.41800752  1.0
  H  H10  1  0.99757744  0.64324434  0.49366538  1.0
  H  H11  1  0.85127068  0.36884256  0.54495814  1.0
  H  H12  1  0.13468695  0.13165312  0.83945231  1.0
  H  H13  1  0.93525612  0.89655894  0.09827250  1.0
  H  H14  1  0.17805204  0.69627462  0.73477833  1.0
  H  H15  1  0.93506609  0.69534219  0.91825931  1.0
  H  H16  1  0.84858021  0.27808480  0.27356157  1.0
  H  H17  1  0.98581825  0.01189060  0.87222648  1.0
  H  H18  1  0.08479330  0.01738346  0.06479550  1.0
  H  H19  1  0.92768667  0.36863793  0.84909594  1.0
  H  H20  1  0.09332625  0.63755065  0.15895307  1.0
  H  H21  1  0.27259243  0.63468336  0.89255003  1.0
  H  H22  1  0.74521191  0.37027117  0.98515458  1.0
  H  H23  1  0.06040887  0.62884032  0.72230730  1.0
  H  H24  1  0.93322230  0.38109962  0.28151616  1.0
  H  H25  1  0.14674112  0.37410564  0.02650948  1.0
  H  H26  1  0.61343605  0.56009423  0.74999565  1.0
  H  H27  1  0.87307717  0.63042864  0.84399826  1.0
  H  H28  1  0.29048894  0.78303703  0.86034679  1.0
  H  H29  1  0.73835674  0.28546543  0.11882513  1.0
  H  H30  1  0.99420797  0.31202669  0.92613124  1.0
  H  H31  1  0.04674944  0.70475666  0.07009270  1.0
  H  H32  1  0.45923176  0.42290849  0.83018082  1.0
  H  H33  1  0.57639682  0.57902018  0.94068504  1.0
  H  H34  1  0.42163258  0.44155242  0.02109512  1.0
  H  H35  1  0.48755869  0.36157578  0.96156214  1.0
  H  H36  1  0.54786449  0.64017649  0.80908144  1.0
  H  H37  1  0.55734504  0.92590850  0.39918968  1.0
  H  H38  1  0.48550491  0.02699805  0.57302378  1.0
  H  H39  1  0.63958287  0.04801872  0.49851923  1.0
  C  C40  1  0.01245096  0.25308896  0.08813943  1.0
  C  C41  1  0.46523189  0.46784071  0.96103205  1.0
  C  C42  1  0.48555639  0.45752978  0.85487222  1.0
  C  C43  1  0.54935866  0.54441526  0.91631332  1.0
  C  C44  1  0.31334645  0.50427138  0.91537008  1.0
  C  C45  1  0.71347811  0.49787906  0.89655943  1.0
  C  C46  1  0.53503206  0.57831359  0.84318149  1.0
  C  C47  1  0.50018352  0.42343886  0.92792259  1.0
  C  C48  1  0.44852533  0.50204203  0.88816168  1.0
  C  C49  1  0.58652899  0.49971060  0.88363103  1.0
  C  C50  1  0.37624435  0.50337699  0.89700709  1.0
  C  C51  1  0.96475610  0.68682359  0.95518605  1.0
  C  C52  1  0.65609908  0.49833594  0.88647318  1.0
  C  C53  1  0.54114945  0.94875925  0.43746538  1.0
  C  C54  1  0.50237894  0.00540548  0.53378794  1.0
  C  C55  1  0.19232659  0.70973884  0.77703388  1.0
  C  C56  1  0.83436803  0.29264946  0.22466997  1.0
  C  C57  1  0.54769247  0.92623958  0.51572681  1.0
  C  C58  1  0.49479550  0.02697827  0.45636592  1.0
  C  C59  1  0.33851212  0.81064305  0.69720016  1.0
  C  C60  1  0.69628880  0.17625598  0.28576436  1.0
  C  C61  1  0.45646771  0.93699001  0.47836765  1.0
  C  C62  1  0.26687255  0.76170271  0.76703648  1.0
  C  C63  1  0.58651018  0.01637927  0.49347805  1.0
  C  C64  1  0.46109707  0.91335566  0.55863824  1.0
  C  C65  1  0.58174188  0.04089901  0.41332529  1.0
  C  C66  1  0.39718158  0.85311230  0.63356483  1.0
  C  C67  1  0.64351688  0.11077308  0.34217591  1.0
  C  C68  1  0.84892375  0.46928588  0.57450949  1.0
  C  C69  1  0.00180801  0.54310441  0.46410058  1.0
  C  C70  1  0.88886832  0.54807563  0.49343056  1.0
  C  C71  1  0.96148415  0.46376347  0.54388409  1.0
  C  C72  1  0.96329370  0.51078918  0.31886571  1.0
  C  C73  1  0.76296910  0.24979838  0.22338640  1.0
  C  C74  1  0.96117361  0.50113597  0.70054763  1.0
  C  C75  1  0.88440154  0.42974405  0.53398129  1.0
  C  C76  1  0.96572444  0.58241669  0.50401202  1.0
  C  C77  1  0.92539101  0.50871265  0.45136800  1.0
  C  C78  1  0.92657610  0.50348305  0.58602629  1.0
  C  C79  1  0.96378638  0.43194810  0.82900081  1.0
  C  C80  1  0.06024713  0.57448998  0.17684506  1.0
  C  C81  1  0.93688915  0.51066553  0.37959154  1.0
  C  C82  1  0.93783428  0.50175440  0.65143216  1.0
  C  C83  1  0.10331086  0.01268511  0.94900341  1.0
  C  C84  1  0.98481855  0.49961781  0.75916852  1.0
  C  C85  1  0.96605123  0.01539260  0.98880352  1.0
  C  C86  1  0.08989465  0.07959804  0.89700805  1.0
  C  C87  1  0.97973693  0.94927501  0.04111196  1.0
  C  C88  1  0.04097759  0.19534681  0.00037012  1.0
  C  C89  1  0.99282319  0.80374956  0.98083161  1.0
  C  C90  1  0.06193590  0.01531891  0.02269867  1.0
  C  C91  1  0.00780030  0.01299652  0.91509755  1.0
  C  C92  1  0.04856890  0.08405596  0.97114209  1.0
  C  C93  1  0.02036130  0.94387024  0.96755502  1.0
  C  C94  1  0.05430073  0.15023676  0.98051357  1.0
  C  C95  1  0.99706483  0.51009712  0.25007972  1.0
  C  C96  1  0.00517947  0.86992168  0.97099712  1.0
  C  C97  1  0.22984478  0.57110656  0.93205085  1.0
  C  C98  1  0.78803377  0.43421928  0.95323948  1.0
  C  C99  1  0.03190566  0.56491112  0.76415483  1.0
  C  C100  1  0.97848600  0.44346345  0.23934334  1.0
  C  C101  1  0.16536343  0.43764653  0.00087187  1.0
  C  C102  1  0.85353061  0.56728766  0.88078410  1.0
  C  C103  1  0.24994951  0.75413862  0.84115254  1.0
  C  C104  1  0.77784500  0.29533914  0.14569923  1.0
  C  C105  1  0.99646064  0.29827170  0.98123945  1.0
  C  C106  1  0.24116331  0.50440112  0.94458266  1.0
  C  C107  1  0.02123122  0.69084542  0.03350808  1.0
  C  C108  1  0.02040097  0.24596697  0.02140964  1.0
  C  C109  1  0.98955303  0.73099974  0.99073777  1.0
  C  C110  1  0.77974151  0.49935908  0.90897945  1.0
  C  C111  1  0.57037220  0.53378863  0.81031710  1.0
  Br  Br112  1  0.20146342  0.01028471  0.91988167  1.0
  Br  Br113  1  0.86865681  0.01894633  0.01669893  1.0
  N  N114  1  0.98517406  0.30449253  0.08775656  1.0
  N  N115  1  0.02629385  0.46630393  0.16631527  1.0
  N  N116  1  0.11399298  0.46333581  0.02098475  1.0
  N  N117  1  0.90122220  0.54384633  0.90582565  1.0
  N  N118  1  0.17194637  0.70247561  0.89052416  1.0
  N  N119  1  0.85269250  0.35864489  0.10455575  1.0
  N  N120  1  0.97516773  0.33226873  0.02139534  1.0
  N  N121  1  0.01783641  0.62970328  0.02188228  1.0
  N  N122  1  0.98304965  0.62713696  0.97374329  1.0
  N  N123  1  0.13634873  0.67542441  0.85012913  1.0
  N  N124  1  0.88738948  0.35705043  0.15330233  1.0
  N  N125  1  0.99413349  0.45552906  0.87243553  1.0
  N  N126  1  0.07744191  0.54831449  0.12704611  1.0
  N  N127  1  0.15360432  0.54528503  0.97869950  1.0
  N  N128  1  0.86078178  0.46165734  0.95083343  1.0
  N  N129  1  0.03655276  0.53810450  0.83231381  1.0
  Cl  Cl130  1  0.58205127  0.86100704  0.55389056  1.0
  Cl  Cl131  1  0.46092009  0.09213619  0.41723727  1.0
