# generated using pymatgen
data_AlH18C27(NO2)3
_symmetry_space_group_name_H-M   'P 1'
_cell_length_a   3.95535503
_cell_length_b   15.11526678
_cell_length_c   15.52217524
_cell_angle_alpha   62.67252719
_cell_angle_beta   86.39190778
_cell_angle_gamma   87.55859180
_symmetry_Int_Tables_number   1
_chemical_formula_structural   AlH18C27(NO2)3
_chemical_formula_sum   'Al1 H18 C27 N3 O6'
_cell_volume   822.71129456
_cell_formula_units_Z   1
loop_
 _symmetry_equiv_pos_site_id
 _symmetry_equiv_pos_as_xyz
  1  'x, y, z'
loop_
 _atom_site_type_symbol
 _atom_site_label
 _atom_site_symmetry_multiplicity
 _atom_site_fract_x
 _atom_site_fract_y
 _atom_site_fract_z
 _atom_site_occupancy
  Al  Al0  1  0.99580491  0.50009252  0.49469720  1.0
  H  H1  1  0.48895841  0.50698327  0.76933511  1.0
  H  H2  1  0.29129868  0.59561809  0.86665584  1.0
  H  H3  1  0.16220133  0.86455290  0.60241666  1.0
  H  H4  1  0.90691356  0.58971779  0.04784571  1.0
  H  H5  1  0.39682436  0.76796381  0.22557875  1.0
  H  H6  1  0.52044838  0.85994496  0.04612639  1.0
  H  H7  1  0.50720798  0.04744708  0.85848115  1.0
  H  H8  1  0.85085594  0.23122493  0.50944351  1.0
  H  H9  1  0.98631639  0.04892512  0.60233078  1.0
  H  H10  1  0.09431762  0.79262262  0.44472833  1.0
  H  H11  1  0.52995797  0.76584635  0.43840937  1.0
  H  H12  1  0.39409040  0.87380209  0.45067550  1.0
  H  H13  1  0.74460412  0.42732798  0.19686761  1.0
  H  H14  1  0.67397411  0.42709530  0.31155379  1.0
  H  H15  1  0.07972064  0.45383458  0.25207574  1.0
  H  H16  1  0.03606545  0.23764973  0.78313878  1.0
  H  H17  1  0.37867242  0.31872224  0.75482696  1.0
  H  H18  1  0.37798683  0.20148296  0.86176971  1.0
  C  C19  1  0.51749613  0.34774669  0.56889566  1.0
  C  C20  1  0.46105302  0.57615746  0.57681407  1.0
  C  C21  1  0.52608119  0.57653625  0.34478877  1.0
  C  C22  1  0.81684828  0.78478693  0.93192730  1.0
  C  C23  1  0.05487901  0.78738548  0.79338682  1.0
  C  C24  1  0.82919160  0.92958232  0.79093608  1.0
  C  C25  1  0.41346837  0.58544462  0.73342570  1.0
  C  C26  1  0.30500765  0.63431886  0.78760626  1.0
  C  C27  1  0.20478142  0.73487166  0.73965413  1.0
  C  C28  1  0.23122276  0.78567516  0.63796323  1.0
  C  C29  1  0.32818946  0.73740576  0.58229375  1.0
  C  C30  1  0.41125544  0.63492078  0.63171985  1.0
  C  C31  1  0.79203335  0.62760706  0.08784608  1.0
  C  C32  1  0.71976203  0.57405573  0.18775509  1.0
  C  C33  1  0.58120147  0.62689947  0.23670215  1.0
  C  C34  1  0.50849091  0.72922275  0.18597707  1.0
  C  C35  1  0.57701144  0.78062897  0.08648625  1.0
  C  C36  1  0.72593201  0.73009999  0.03677926  1.0
  C  C37  1  0.57389930  0.08833747  0.78101824  1.0
  C  C38  1  0.48771733  0.18956324  0.73040726  1.0
  C  C39  1  0.58594208  0.23997093  0.63056082  1.0
  C  C40  1  0.76889978  0.18920792  0.58566623  1.0
  C  C41  1  0.84516957  0.08857964  0.63672195  1.0
  C  C42  1  0.74665048  0.03698737  0.73566754  1.0
  C  C43  1  0.33902968  0.79540703  0.47320161  1.0
  C  C44  1  0.80676231  0.46459038  0.24009484  1.0
  C  C45  1  0.31253836  0.24006437  0.78530542  1.0
  N  N46  1  0.97716757  0.73398018  0.88882303  1.0
  N  N47  1  0.99282083  0.88569213  0.74190650  1.0
  N  N48  1  0.73286416  0.88233757  0.88566108  1.0
  O  O49  1  0.73552061  0.59731390  0.39202907  1.0
  O  O50  1  0.73707114  0.39533923  0.49984257  1.0
  O  O51  1  0.70448768  0.51306624  0.59496534  1.0
  O  O52  1  0.27946238  0.51723640  0.38259102  1.0
  O  O53  1  0.24131878  0.59292120  0.51386032  1.0
  O  O54  1  0.24879082  0.38782537  0.58582982  1.0
