# generated using pymatgen
data_Zn4H64(C5O)13
_symmetry_space_group_name_H-M   'P 1'
_cell_length_a   19.46362309
_cell_length_b   19.50858361
_cell_length_c   19.55007243
_cell_angle_alpha   90.01585859
_cell_angle_beta   95.19770008
_cell_angle_gamma   95.25339512
_symmetry_Int_Tables_number   1
_chemical_formula_structural   Zn4H64(C5O)13
_chemical_formula_sum   'Zn4 H64 C65 O13'
_cell_volume   7361.46063304
_cell_formula_units_Z   1
loop_
 _symmetry_equiv_pos_site_id
 _symmetry_equiv_pos_as_xyz
  1  'x, y, z'
loop_
 _atom_site_type_symbol
 _atom_site_label
 _atom_site_symmetry_multiplicity
 _atom_site_fract_x
 _atom_site_fract_y
 _atom_site_fract_z
 _atom_site_occupancy
  Zn  Zn0  1  0.55809989  0.44387467  0.55896600  1.0
  Zn  Zn1  1  0.56009804  0.56482254  0.44912625  1.0
  Zn  Zn2  1  0.44778998  0.55384540  0.55527292  1.0
  Zn  Zn3  1  0.43652808  0.44116988  0.43518539  1.0
  H  H4  1  0.53924394  0.23498634  0.59459297  1.0
  H  H5  1  0.77005157  0.41281261  0.55595484  1.0
  H  H6  1  0.77109935  0.61990390  0.48180533  1.0
  H  H7  1  0.01014776  0.57801801  0.51881837  1.0
  H  H8  1  0.89835959  0.41983436  0.55545943  1.0
  H  H9  1  0.23139857  0.38169326  0.49410872  1.0
  H  H10  1  0.99145792  0.42160113  0.49645254  1.0
  H  H11  1  0.10165050  0.58717418  0.48353716  1.0
  H  H12  1  0.49333006  0.75857439  0.62373725  1.0
  H  H13  1  0.52618564  0.00243566  0.58702421  1.0
  H  H14  1  0.45124854  0.10232201  0.38279471  1.0
  H  H15  1  0.61512700  0.54457027  0.25011034  1.0
  H  H16  1  0.54623266  0.90717211  0.42618620  1.0
  H  H17  1  0.44375053  0.22919038  0.38766141  1.0
  H  H18  1  0.48720146  0.99894564  0.43121013  1.0
  H  H19  1  0.54616950  0.10902695  0.59131675  1.0
  H  H20  1  0.41018815  0.95691878  0.61681839  1.0
  H  H21  1  0.37856399  0.87382384  0.64302675  1.0
  H  H22  1  0.40977756  0.93803975  0.70582696  1.0
  H  H23  1  0.49755811  0.85307846  0.69571977  1.0
  H  H24  1  0.52998494  0.93591791  0.67184573  1.0
  H  H25  1  0.64440904  0.66906978  0.66872424  1.0
  H  H26  1  0.41020245  0.44098305  0.21951441  1.0
  H  H27  1  0.66643740  0.71383015  0.74789741  1.0
  H  H28  1  0.72567158  0.66061467  0.71559262  1.0
  H  H29  1  0.66531990  0.59993326  0.81040421  1.0
  H  H30  1  0.64461075  0.55555488  0.73175679  1.0
  H  H31  1  0.53400696  0.61359627  0.71368589  1.0
  H  H32  1  0.55340250  0.65566966  0.79309805  1.0
  H  H33  1  0.36956354  0.41515176  0.67409721  1.0
  H  H34  1  0.35533668  0.32379651  0.67546868  1.0
  H  H35  1  0.33288745  0.37392118  0.74485537  1.0
  H  H36  1  0.48047036  0.35785749  0.70514785  1.0
  H  H37  1  0.58564107  0.50170059  0.01378041  1.0
  H  H38  1  0.44364024  0.31960491  0.77662431  1.0
  H  H39  1  0.53360155  0.70104784  0.02020502  1.0
  H  H40  1  0.55840327  0.74790433  0.94722196  1.0
  H  H41  1  0.47359103  0.75066366  0.97333884  1.0
  H  H42  1  0.46961569  0.67083721  0.87155251  1.0
  H  H43  1  0.44680851  0.62437844  0.94458357  1.0
  H  H44  1  0.56828498  0.59268185  0.96656740  1.0
  H  H45  1  0.59144278  0.63624411  0.89269178  1.0
  H  H46  1  0.15677876  0.66416569  0.40603647  1.0
  H  H47  1  0.15549563  0.68897648  0.49336570  1.0
  H  H48  1  0.44060547  0.38173955  0.88144135  1.0
  H  H49  1  0.22067671  0.72691799  0.44425443  1.0
  H  H50  1  0.26885873  0.63860865  0.52329029  1.0
  H  H51  1  0.27555716  0.61980904  0.43723803  1.0
  H  H52  1  0.06215228  0.20796679  0.46268080  1.0
  H  H53  1  0.98327861  0.24527366  0.46978755  1.0
  H  H54  1  0.00745338  0.22356137  0.38765642  1.0
  H  H55  1  0.02963002  0.35142350  0.40863118  1.0
  H  H56  1  0.10753599  0.31466704  0.39979351  1.0
  H  H57  1  0.13372177  0.31228775  0.52640921  1.0
  H  H58  1  0.05444451  0.34500362  0.53881629  1.0
  H  H59  1  0.62711135  0.53575460  0.12468243  1.0
  H  H60  1  0.95849720  0.69282108  0.38667024  1.0
  H  H61  1  0.88801085  0.62997978  0.36345155  1.0
  H  H62  1  0.96862192  0.60372473  0.39835568  1.0
  H  H63  1  0.87285352  0.68863383  0.47506187  1.0
  H  H64  1  0.95330270  0.66454842  0.51053215  1.0
  H  H65  1  0.42947221  0.46008750  0.98665394  1.0
  H  H66  1  0.54477341  0.77986908  0.41544569  1.0
  H  H67  1  0.42033482  0.43361676  0.09421908  1.0
  C  C68  1  0.50461754  0.50028324  0.31719009  1.0
  C  C69  1  0.50133540  0.02178020  0.48224840  1.0
  C  C70  1  0.51675958  0.97985039  0.53553439  1.0
  C  C71  1  0.50295797  0.49176222  0.68307037  1.0
  C  C72  1  0.51725982  0.76156793  0.51864952  1.0
  C  C73  1  0.50091770  0.48807943  0.75945579  1.0
  C  C74  1  0.52683000  0.54592748  0.79996282  1.0
  C  C75  1  0.52345234  0.54365150  0.87177921  1.0
  C  C76  1  0.49145201  0.48363969  0.90081469  1.0
  C  C77  1  0.46499145  0.42764004  0.85819065  1.0
  C  C78  1  0.47067804  0.42764274  0.78766268  1.0
  C  C79  1  0.49850147  0.09593752  0.48674584  1.0
  C  C80  1  0.57921883  0.51535391  0.14544229  1.0
  C  C81  1  0.57288568  0.52042499  0.21537305  1.0
  C  C82  1  0.45717943  0.46225615  0.19787700  1.0
  C  C83  1  0.68610527  0.51161477  0.51559161  1.0
  C  C84  1  0.46325301  0.45840553  0.12784298  1.0
  C  C85  1  0.52418665  0.48575995  0.09988498  1.0
  C  C86  1  0.48228845  0.47671131  0.97460125  1.0
  C  C87  1  0.53265725  0.48756629  0.02652910  1.0
  C  C88  1  0.51153655  0.49426655  0.24232537  1.0
  C  C89  1  0.23820346  0.49171015  0.48776848  1.0
  C  C90  1  0.47014583  0.13133730  0.42955917  1.0
  C  C91  1  0.20195653  0.55159012  0.48470699  1.0
  C  C92  1  0.13074775  0.54211866  0.48842605  1.0
  C  C93  1  0.09395412  0.47745683  0.49693247  1.0
  C  C94  1  0.13069878  0.41794588  0.49853099  1.0
  C  C95  1  0.31498162  0.49498918  0.48726240  1.0
  C  C96  1  0.20202176  0.42679414  0.49307191  1.0
  C  C97  1  0.87024894  0.46336098  0.53785618  1.0
  C  C98  1  0.79885359  0.45919271  0.53879071  1.0
  C  C99  1  0.79986820  0.57625067  0.49753431  1.0
  C  C100  1  0.87179292  0.58177902  0.49737006  1.0
  C  C101  1  0.46579935  0.20203507  0.43190027  1.0
  C  C102  1  0.90792007  0.52356948  0.51645046  1.0
  C  C103  1  0.01941774  0.47266929  0.50278449  1.0
  C  C104  1  0.98262141  0.52668668  0.51358305  1.0
  C  C105  1  0.76286440  0.51571595  0.51755852  1.0
  C  C106  1  0.51354713  0.68535201  0.51220375  1.0
  C  C107  1  0.48980305  0.31581166  0.49395524  1.0
  C  C108  1  0.49088246  0.23965267  0.49148373  1.0
  C  C109  1  0.51949456  0.20510135  0.54876805  1.0
  C  C110  1  0.52299941  0.13454951  0.54651031  1.0
  C  C111  1  0.49117031  0.89273853  0.65625166  1.0
  C  C112  1  0.53315997  0.87441208  0.46919469  1.0
  C  C113  1  0.41821514  0.91687116  0.65547815  1.0
  C  C114  1  0.56037260  0.60813234  0.76534291  1.0
  C  C115  1  0.63809398  0.60372004  0.75877954  1.0
  C  C116  1  0.67050424  0.66513247  0.72073068  1.0
  C  C117  1  0.44399986  0.36541086  0.74375746  1.0
  C  C118  1  0.37119517  0.36992165  0.70740085  1.0
  C  C119  1  0.54801846  0.60701592  0.91500810  1.0
  C  C120  1  0.49019741  0.65438516  0.92270663  1.0
  C  C121  1  0.51516107  0.71698210  0.96826974  1.0
  C  C122  1  0.23749148  0.62289521  0.47521208  1.0
  C  C123  1  0.53297465  0.80360303  0.46293091  1.0
  C  C124  1  0.18967734  0.67845792  0.45355483  1.0
  C  C125  1  0.09563747  0.34611295  0.50362177  1.0
  C  C126  1  0.06516804  0.31608560  0.43336653  1.0
  C  C127  1  0.02748942  0.24433486  0.43858262  1.0
  C  C128  1  0.90843608  0.64806017  0.47386305  1.0
  C  C129  1  0.93237663  0.64338898  0.40142361  1.0
  C  C130  1  0.50450135  0.79196689  0.58061647  1.0
  C  C131  1  0.50605105  0.86319555  0.58832455  1.0
  C  C132  1  0.51870869  0.90555002  0.53081467  1.0
  O  O133  1  0.50038601  0.49958549  0.49847881  1.0
  O  O134  1  0.53701013  0.66028990  0.45944851  1.0
  O  O135  1  0.45702158  0.34418166  0.44355915  1.0
  O  O136  1  0.48643227  0.65041854  0.56001569  1.0
  O  O137  1  0.52239937  0.34680728  0.54655488  1.0
  O  O138  1  0.65552677  0.45741906  0.54027071  1.0
  O  O139  1  0.33989420  0.44656538  0.45606269  1.0
  O  O140  1  0.55333048  0.53671704  0.35257087  1.0
  O  O141  1  0.45439636  0.52158598  0.65053875  1.0
  O  O142  1  0.45085129  0.46907129  0.34027652  1.0
  O  O143  1  0.55188980  0.46476435  0.65695946  1.0
  O  O144  1  0.65631360  0.56238025  0.48905913  1.0
  O  O145  1  0.35021817  0.54563167  0.51935059  1.0
