# generated using pymatgen
data_Al2H14C26NO10
_symmetry_space_group_name_H-M   'P 1'
_cell_length_a   6.68350215
_cell_length_b   20.77488068
_cell_length_c   23.74353009
_cell_angle_alpha   89.93671144
_cell_angle_beta   90.06641197
_cell_angle_gamma   89.62828734
_symmetry_Int_Tables_number   1
_chemical_formula_structural   Al2H14C26NO10
_chemical_formula_sum   'Al4 H28 C52 N2 O20'
_cell_volume   3296.69082037
_cell_formula_units_Z   2
loop_
 _symmetry_equiv_pos_site_id
 _symmetry_equiv_pos_as_xyz
  1  'x, y, z'
loop_
 _atom_site_type_symbol
 _atom_site_label
 _atom_site_symmetry_multiplicity
 _atom_site_fract_x
 _atom_site_fract_y
 _atom_site_fract_z
 _atom_site_occupancy
  Al  Al0  1  0.25900158  0.24946783  0.74778710  1.0
  Al  Al1  1  0.73467461  0.74889635  0.24821571  1.0
  Al  Al2  1  0.75856064  0.24923476  0.74716177  1.0
  Al  Al3  1  0.23471058  0.74862483  0.24802632  1.0
  H  H4  1  0.76333576  0.41261156  0.47755425  1.0
  H  H5  1  0.23488071  0.58641121  0.51841890  1.0
  H  H6  1  0.09025842  0.44863108  0.40842148  1.0
  H  H7  1  0.90812708  0.55039633  0.58755509  1.0
  H  H8  1  0.65974279  0.54466002  0.49046283  1.0
  H  H9  1  0.33859482  0.45436848  0.50555163  1.0
  H  H10  1  0.66899193  0.53256592  0.03970414  1.0
  H  H11  1  0.32032854  0.46364595  0.95717469  1.0
  H  H12  1  0.67730883  0.45285651  0.96104514  1.0
  H  H13  1  0.31217979  0.54329992  0.03587641  1.0
  H  H14  1  0.74955711  0.07619169  0.51054843  1.0
  H  H15  1  0.17919565  0.92912251  0.48049397  1.0
  H  H16  1  0.82499406  0.03844704  0.96214555  1.0
  H  H17  1  0.16968636  0.95913966  0.03280018  1.0
  H  H18  1  0.81367304  0.95795792  0.04032860  1.0
  H  H19  1  0.18102711  0.03960028  0.95458014  1.0
  H  H20  1  0.77453437  0.96680092  0.38855293  1.0
  H  H21  1  0.03253722  0.03791680  0.37968722  1.0
  H  H22  1  0.03074846  0.05441872  0.45269178  1.0
  H  H23  1  0.85588041  0.09462106  0.40752715  1.0
  H  H24  1  0.01484894  0.97579025  0.55134621  1.0
  H  H25  1  0.90456625  0.04360005  0.61744403  1.0
  H  H26  1  0.05763207  0.10296198  0.58533485  1.0
  H  H27  1  0.15182471  0.05669748  0.64258315  1.0
  H  H28  1  0.50744937  0.33124490  0.73096437  1.0
  H  H29  1  0.48641783  0.66763472  0.26639680  1.0
  H  H30  1  0.01107932  0.16549953  0.73854702  1.0
  H  H31  1  0.98339670  0.83353444  0.24474107  1.0
  C  C32  1  0.51171325  0.17139107  0.67126940  1.0
  C  C33  1  0.48097417  0.82880072  0.32256858  1.0
  C  C34  1  0.50810872  0.17302298  0.82397904  1.0
  C  C35  1  0.48473961  0.82448351  0.17082901  1.0
  C  C36  1  0.00494029  0.32592649  0.82366764  1.0
  C  C37  1  0.98728068  0.67078337  0.17288112  1.0
  C  C38  1  0.00967755  0.32706029  0.67098755  1.0
  C  C39  1  0.98456133  0.67261899  0.32560825  1.0
  C  C40  1  0.05011827  0.47057293  0.44873970  1.0
  C  C41  1  0.94818996  0.52840211  0.54724370  1.0
  C  C42  1  0.86765343  0.45171000  0.48624340  1.0
  C  C43  1  0.13066216  0.54727657  0.50973451  1.0
  C  C44  1  0.00828797  0.37141894  0.62431924  1.0
  C  C45  1  0.98687973  0.62814508  0.37215245  1.0
  C  C46  1  0.18790733  0.47478573  0.50183585  1.0
  C  C47  1  0.81037991  0.52419416  0.49415807  1.0
  C  C48  1  0.00587932  0.45455486  0.54053084  1.0
  C  C49  1  0.99232238  0.54445069  0.45549078  1.0
  C  C50  1  0.00827638  0.40952006  0.58523717  1.0
  C  C51  1  0.98898408  0.58964460  0.41092951  1.0
  C  C52  1  0.81524807  0.47302705  0.97769798  1.0
  C  C53  1  0.17415769  0.52318526  0.01920151  1.0
  C  C54  1  0.99926121  0.45318778  0.95403535  1.0
  C  C55  1  0.99015345  0.54311661  0.04280559  1.0
  C  C56  1  0.17863804  0.47896935  0.97555228  1.0
  C  C57  1  0.81074781  0.51728770  0.02132141  1.0
  C  C58  1  0.00311601  0.40847037  0.90918570  1.0
  C  C59  1  0.98672228  0.58801745  0.08752795  1.0
  C  C60  1  0.98637555  0.62644807  0.12624271  1.0
  C  C61  1  0.00470586  0.37020865  0.87035468  1.0
  C  C62  1  0.63630962  0.99937121  0.45881545  1.0
  C  C63  1  0.29368779  0.00524950  0.53299341  1.0
  C  C64  1  0.46948373  0.95697665  0.45196722  1.0
  C  C65  1  0.46227166  0.04636033  0.54084509  1.0
  C  C66  1  0.30510459  0.96112868  0.48815668  1.0
  C  C67  1  0.62700772  0.04297607  0.50328890  1.0
  C  C68  1  0.47084477  0.91201883  0.40755602  1.0
  C  C69  1  0.47739869  0.09034574  0.58578087  1.0
  C  C70  1  0.50423547  0.12818887  0.62435714  1.0
  C  C71  1  0.47930205  0.87406713  0.36839323  1.0
  C  C72  1  0.67615831  0.97615852  0.02126679  1.0
  C  C73  1  0.31850116  0.02142870  0.97369198  1.0
  C  C74  1  0.49106772  0.95347708  0.04161050  1.0
  C  C75  1  0.50360640  0.04414046  0.95335411  1.0
  C  C76  1  0.31222700  0.97682685  0.01710034  1.0
  C  C77  1  0.68244430  0.02077387  0.97787231  1.0
  C  C78  1  0.48584514  0.90822780  0.08609515  1.0
  C  C79  1  0.50866726  0.08940141  0.90884201  1.0
  C  C80  1  0.51020805  0.12801924  0.87021573  1.0
  C  C81  1  0.48380311  0.86946253  0.12462349  1.0
  C  C82  1  0.93436734  0.04846158  0.41548108  1.0
  C  C83  1  0.05804118  0.05471161  0.60465728  1.0
  N  N84  1  0.79678593  0.99542912  0.42257501  1.0
  N  N85  1  0.12457592  0.00468098  0.56609160  1.0
  O  O86  1  0.67688234  0.18786824  0.80305514  1.0
  O  O87  1  0.31518813  0.80872512  0.19079965  1.0
  O  O88  1  0.34250621  0.18585311  0.69325461  1.0
  O  O89  1  0.65191454  0.81343708  0.30258070  1.0
  O  O90  1  0.18097062  0.30784937  0.68800012  1.0
  O  O91  1  0.81328941  0.69180858  0.30852456  1.0
  O  O92  1  0.33676658  0.19295653  0.80804125  1.0
  O  O93  1  0.65573828  0.80538469  0.18791366  1.0
  O  O94  1  0.17512429  0.31106729  0.80324831  1.0
  O  O95  1  0.81733362  0.68631638  0.19312961  1.0
  O  O96  1  0.68356136  0.19069355  0.68739859  1.0
  O  O97  1  0.31046287  0.80913173  0.30603761  1.0
  O  O98  1  0.50821793  0.28798318  0.74626382  1.0
  O  O99  1  0.48557527  0.71035528  0.24995472  1.0
  O  O100  1  0.83466921  0.30669494  0.80681119  1.0
  O  O101  1  0.15831857  0.68936108  0.18981728  1.0
  O  O102  1  0.83987669  0.31178436  0.69127473  1.0
  O  O103  1  0.15400174  0.68817098  0.30524997  1.0
  O  O104  1  0.00949787  0.21105884  0.74705889  1.0
  O  O105  1  0.98404130  0.78706803  0.24756385  1.0
