# generated using pymatgen
data_ZnH12C20INO5
_symmetry_space_group_name_H-M   'P 1'
_cell_length_a   14.86234620
_cell_length_b   16.12119752
_cell_length_c   16.18475692
_cell_angle_alpha   89.91309604
_cell_angle_beta   89.74922891
_cell_angle_gamma   89.89849486
_symmetry_Int_Tables_number   1
_chemical_formula_structural   ZnH12C20INO5
_chemical_formula_sum   'Zn2 H24 C40 I2 N2 O10'
_cell_volume   3877.80099605
_cell_formula_units_Z   2
loop_
 _symmetry_equiv_pos_site_id
 _symmetry_equiv_pos_as_xyz
  1  'x, y, z'
loop_
 _atom_site_type_symbol
 _atom_site_label
 _atom_site_symmetry_multiplicity
 _atom_site_fract_x
 _atom_site_fract_y
 _atom_site_fract_z
 _atom_site_occupancy
  Zn  Zn0  1  0.59422758  0.49979112  0.49982106  1.0
  Zn  Zn1  1  0.40574932  0.49990994  0.50023453  1.0
  H  H2  1  0.41769582  0.94787133  0.62089774  1.0
  H  H3  1  0.91307591  0.49756277  0.36844854  1.0
  H  H4  1  0.75778490  0.60251488  0.10602548  1.0
  H  H5  1  0.70257716  0.61160202  0.00899522  1.0
  H  H6  1  0.83756090  0.47622671  0.05948970  1.0
  H  H7  1  0.77997160  0.47697940  0.96458206  1.0
  H  H8  1  0.84836047  0.61622514  0.92855319  1.0
  H  H9  1  0.93395887  0.54181174  0.94843991  1.0
  H  H10  1  0.90598385  0.61701338  0.02418652  1.0
  H  H11  1  0.24183382  0.60214804  0.89369181  1.0
  H  H12  1  0.29693377  0.61122834  0.99075843  1.0
  H  H13  1  0.58235662  0.05191287  0.37905960  1.0
  H  H14  1  0.16276185  0.47569979  0.94046836  1.0
  H  H15  1  0.22013159  0.47661703  0.03547262  1.0
  H  H16  1  0.15082307  0.61575261  0.07090797  1.0
  H  H17  1  0.06568730  0.54126408  0.05104648  1.0
  H  H18  1  0.09348997  0.61645116  0.97510258  1.0
  H  H19  1  0.57193997  0.05127192  0.62585937  1.0
  H  H20  1  0.42809374  0.94850049  0.37412160  1.0
  H  H21  1  0.34427618  0.05054088  0.49514511  1.0
  H  H22  1  0.65575551  0.94922471  0.50483403  1.0
  H  H23  1  0.64318100  0.50835043  0.92044274  1.0
  H  H24  1  0.35686850  0.50802309  0.07956633  1.0
  H  H25  1  0.08687989  0.50347208  0.63143062  1.0
  C  C26  1  0.50103598  0.50169412  0.66111752  1.0
  C  C27  1  0.49960194  0.50433674  0.24972608  1.0
  C  C28  1  0.95427665  0.50242963  0.57708644  1.0
  C  C29  1  0.04569670  0.49905246  0.42277060  1.0
  C  C30  1  0.90644891  0.50053580  0.50171213  1.0
  C  C31  1  0.09352293  0.50056356  0.49816006  1.0
  C  C32  1  0.95203567  0.49893350  0.42530030  1.0
  C  C33  1  0.04792319  0.50233210  0.57456938  1.0
  C  C34  1  0.81082901  0.50027097  0.50113910  1.0
  C  C35  1  0.18913906  0.50022355  0.49879233  1.0
  C  C36  1  0.49942540  0.66153459  0.49981041  1.0
  C  C37  1  0.49896217  0.50166983  0.33892375  1.0
  C  C38  1  0.50057005  0.33832094  0.50021712  1.0
  C  C39  1  0.54011897  0.02743423  0.56996205  1.0
  C  C40  1  0.45993757  0.97234810  0.43001194  1.0
  C  C41  1  0.45411132  0.97193047  0.56716871  1.0
  C  C42  1  0.54593306  0.02785126  0.43279116  1.0
  C  C43  1  0.49951455  0.75116512  0.49971484  1.0
  C  C44  1  0.50047387  0.24867000  0.50023305  1.0
  C  C45  1  0.58666722  0.97252852  0.50269378  1.0
  C  C46  1  0.41337790  0.02725754  0.49728524  1.0
  C  C47  1  0.50084323  0.91456592  0.49990403  1.0
  C  C48  1  0.50092575  0.50858395  0.08725875  1.0
  C  C49  1  0.49919709  0.08524310  0.50005586  1.0
  C  C50  1  0.50015681  0.82679188  0.49975842  1.0
  C  C51  1  0.49988955  0.17302954  0.50020326  1.0
  C  C52  1  0.58304044  0.51146492  0.04223562  1.0
  C  C53  1  0.41699692  0.51129648  0.95777317  1.0
  C  C54  1  0.73154064  0.56698805  0.05329286  1.0
  C  C55  1  0.80726703  0.51752379  0.01302049  1.0
  C  C56  1  0.87780899  0.57614400  0.97649199  1.0
  C  C57  1  0.26821636  0.56662407  0.94654119  1.0
  C  C58  1  0.19269610  0.51708180  0.98684801  1.0
  C  C59  1  0.49912148  0.50861581  0.91276015  1.0
  C  C60  1  0.12173918  0.57562907  0.02301092  1.0
  C  C61  1  0.41900336  0.50898133  0.04375988  1.0
  C  C62  1  0.58104610  0.50917432  0.95625203  1.0
  C  C63  1  0.50084163  0.50669158  0.17446460  1.0
  C  C64  1  0.49917905  0.50674235  0.82555763  1.0
  C  C65  1  0.50038118  0.50440028  0.75030589  1.0
  I  I66  1  0.88628123  0.50501598  0.69012006  1.0
  I  I67  1  0.11377986  0.49698770  0.30978533  1.0
  N  N68  1  0.26713792  0.49990937  0.50168844  1.0
  N  N69  1  0.73282644  0.50003117  0.49832874  1.0
  O  O70  1  0.57815212  0.50004867  0.62622866  1.0
  O  O71  1  0.33945513  0.51606636  0.91292403  1.0
  O  O72  1  0.42185520  0.50015047  0.37383927  1.0
  O  O73  1  0.42439874  0.50127157  0.62606110  1.0
  O  O74  1  0.57559378  0.50115882  0.37398532  1.0
  O  O75  1  0.57624816  0.62619798  0.50045205  1.0
  O  O76  1  0.42374277  0.37367667  0.50063699  1.0
  O  O77  1  0.42266014  0.62635146  0.49926034  1.0
  O  O78  1  0.57732852  0.37353641  0.49975513  1.0
  O  O79  1  0.66053798  0.51639659  0.08708443  1.0
