# generated using pymatgen
data_AlH10(C2O)6
_symmetry_space_group_name_H-M   'P 1'
_cell_length_a   6.66017325
_cell_length_b   16.07654730
_cell_length_c   17.02794016
_cell_angle_alpha   78.71850402
_cell_angle_beta   86.48522491
_cell_angle_gamma   86.27486898
_symmetry_Int_Tables_number   1
_chemical_formula_structural   AlH10(C2O)6
_chemical_formula_sum   'Al4 H40 C48 O24'
_cell_volume   1782.01819175
_cell_formula_units_Z   4
loop_
 _symmetry_equiv_pos_site_id
 _symmetry_equiv_pos_as_xyz
  1  'x, y, z'
loop_
 _atom_site_type_symbol
 _atom_site_label
 _atom_site_symmetry_multiplicity
 _atom_site_fract_x
 _atom_site_fract_y
 _atom_site_fract_z
 _atom_site_occupancy
  Al  Al0  1  0.87063688  0.50261517  0.49899612  1.0
  Al  Al1  1  0.37063162  0.50164456  0.49939483  1.0
  Al  Al2  1  0.35775156  0.00111757  0.00282788  1.0
  Al  Al3  1  0.85731178  0.00305914  0.00292819  1.0
  H  H4  1  0.35819954  0.18535336  0.13725070  1.0
  H  H5  1  0.36895295  0.81020194  0.86781373  1.0
  H  H6  1  0.50725875  0.29067731  0.20254850  1.0
  H  H7  1  0.22788939  0.70508600  0.80050864  1.0
  H  H8  1  0.73736271  0.19262733  0.31527575  1.0
  H  H9  1  0.99235920  0.81225762  0.69020970  1.0
  H  H10  1  0.47578747  0.38574005  0.30307018  1.0
  H  H11  1  0.26544488  0.61347594  0.69719457  1.0
  H  H12  1  0.87190415  0.31094352  0.37130291  1.0
  H  H13  1  0.86372512  0.69602356  0.63005353  1.0
  H  H14  1  0.39719040  0.23499222  0.83859730  1.0
  H  H15  1  0.86977652  0.85149483  0.24626474  1.0
  H  H16  1  0.42444199  0.15777574  0.77759176  1.0
  H  H17  1  0.63904063  0.90073604  0.27590896  1.0
  H  H18  1  0.42232620  0.26310763  0.66264088  1.0
  H  H19  1  0.57096104  0.78873261  0.38049106  1.0
  H  H20  1  0.41167481  0.34061141  0.72296547  1.0
  H  H21  1  0.82705647  0.75423016  0.36746747  1.0
  H  H22  1  0.04450786  0.28487338  0.88536806  1.0
  H  H23  1  0.87721145  0.76111850  0.13943910  1.0
  H  H24  1  0.07380047  0.39518812  0.77494455  1.0
  H  H25  1  0.91338763  0.66323727  0.26015788  1.0
  H  H26  1  0.87367367  0.13947720  0.75808929  1.0
  H  H27  1  0.30473664  0.78855705  0.16849081  1.0
  H  H28  1  0.11926877  0.10871598  0.72297362  1.0
  H  H29  1  0.31901558  0.84165612  0.24939877  1.0
  H  H30  1  0.85916820  0.25874396  0.65520598  1.0
  H  H31  1  0.37404572  0.65414068  0.24820308  1.0
  H  H32  1  0.83222982  0.24906469  0.84682852  1.0
  H  H33  1  0.65021302  0.71825036  0.12075043  1.0
  H  H34  1  0.84851056  0.36598111  0.74044033  1.0
  H  H35  1  0.72450199  0.60721763  0.22789246  1.0
  H  H36  1  0.07401113  0.26090093  0.53547729  1.0
  H  H37  1  0.12943791  0.65176006  0.35076768  1.0
  H  H38  1  0.78001522  0.01919432  0.19963014  1.0
  H  H39  1  0.93070178  0.98705453  0.80192928  1.0
  H  H40  1  0.63178813  0.39405514  0.54034962  1.0
  H  H41  1  0.10416715  0.61279721  0.50035159  1.0
  H  H42  1  0.59569599  0.10805315  0.95639122  1.0
  H  H43  1  0.12293935  0.90293263  0.97637878  1.0
  C  C44  1  0.62509974  0.61506600  0.38206159  1.0
  C  C45  1  0.11709206  0.38685931  0.61574795  1.0
  C  C46  1  0.58716213  0.59420754  0.59725059  1.0
  C  C47  1  0.15396591  0.41095686  0.40149478  1.0
  C  C48  1  0.06624513  0.13814147  0.16951878  1.0
  C  C49  1  0.65655994  0.86204198  0.83616097  1.0
  C  C50  1  0.16992128  0.35417622  0.34172294  1.0
  C  C51  1  0.56894459  0.64899945  0.65885542  1.0
  C  C52  1  0.36853045  0.29543699  0.23931216  1.0
  C  C53  1  0.36692301  0.70269851  0.76347311  1.0
  C  C54  1  0.35163121  0.34803033  0.29442941  1.0
  C  C55  1  0.38717447  0.65202031  0.70672314  1.0
  C  C56  1  0.01005003  0.30578618  0.33426607  1.0
  C  C57  1  0.72574758  0.69836485  0.66767814  1.0
  C  C58  1  0.02615481  0.24890032  0.28009814  1.0
  C  C59  1  0.70623068  0.75328016  0.72364278  1.0
  C  C60  1  0.20781335  0.24463253  0.23070517  1.0
  C  C61  1  0.52418255  0.75472567  0.77323481  1.0
  C  C62  1  0.22211980  0.18876791  0.17570557  1.0
  C  C63  1  0.50547496  0.80939404  0.82929255  1.0
  C  C64  1  0.88919000  0.13889405  0.22156728  1.0
  C  C65  1  0.83477334  0.86340511  0.78449068  1.0
  C  C66  1  0.87153096  0.19413496  0.27491597  1.0
  C  C67  1  0.85758266  0.80905560  0.73035055  1.0
  C  C68  1  0.33274136  0.21415885  0.78823488  1.0
  C  C69  1  0.70997473  0.84103577  0.26268972  1.0
  C  C70  1  0.33647586  0.28518131  0.71252022  1.0
  C  C71  1  0.68467525  0.76923224  0.33721267  1.0
  C  C72  1  0.98839338  0.26697789  0.83188322  1.0
  C  C73  1  0.73057665  0.74038526  0.16675697  1.0
  C  C74  1  0.02535819  0.16167150  0.74047345  1.0
  C  C75  1  0.39354728  0.79216329  0.21974682  1.0
  C  C76  1  0.11551996  0.18896084  0.81222735  1.0
  C  C77  1  0.60854140  0.81743382  0.19143511  1.0
  C  C78  1  0.12091770  0.31377542  0.68789607  1.0
  C  C79  1  0.61618199  0.68873120  0.31134417  1.0
  C  C80  1  0.99943115  0.34180543  0.75940103  1.0
  C  C81  1  0.75765265  0.66906511  0.24121799  1.0
  C  C82  1  0.01586502  0.23617981  0.66814452  1.0
  C  C83  1  0.40060393  0.70595941  0.27953978  1.0
  C  C84  1  0.63341771  0.91300482  0.90094678  1.0
  C  C85  1  0.08537080  0.08713463  0.10479964  1.0
  C  C86  1  0.61007985  0.88985899  0.11925113  1.0
  C  C87  1  0.10715055  0.11760417  0.88562540  1.0
  C  C88  1  0.11224064  0.21418875  0.59111879  1.0
  C  C89  1  0.23425973  0.70391363  0.34509032  1.0
  C  C90  1  0.73495339  0.07481196  0.22742381  1.0
  C  C91  1  0.98539883  0.92875952  0.77977275  1.0
  O  O92  1  0.42376471  0.56732067  0.57876035  1.0
  O  O93  1  0.97896271  0.42683496  0.43158445  1.0
  O  O94  1  0.79686639  0.58432460  0.40527763  1.0
  O  O95  1  0.28603017  0.41079837  0.58314546  1.0
  O  O96  1  0.76299475  0.57919829  0.56729570  1.0
  O  O97  1  0.31722459  0.43820228  0.41937460  1.0
  O  O98  1  0.94486555  0.41795905  0.59284844  1.0
  O  O99  1  0.45757899  0.58947360  0.41505783  1.0
  O  O100  1  0.62815940  0.44986691  0.50616090  1.0
  O  O101  1  0.11349160  0.55356297  0.49540780  1.0
  O  O102  1  0.77806563  0.92268423  0.09637059  1.0
  O  O103  1  0.27111621  0.09384961  0.92005783  1.0
  O  O104  1  0.45516614  0.93606434  0.92210375  1.0
  O  O105  1  0.92401460  0.07586254  0.07238398  1.0
  O  O106  1  0.44614874  0.91135991  0.08445259  1.0
  O  O107  1  0.93557366  0.08792157  0.90859001  1.0
  O  O108  1  0.26160188  0.06153413  0.08437022  1.0
  O  O109  1  0.79488406  0.92739861  0.93188418  1.0
  O  O110  1  0.60058872  0.05482883  0.99479108  1.0
  O  O111  1  0.11362604  0.95024499  0.00426361  1.0
  O  O112  1  0.22701229  0.15282164  0.58703407  1.0
  O  O113  1  0.20479318  0.75763367  0.38731803  1.0
  O  O114  1  0.57004640  0.07973304  0.26311464  1.0
  O  O115  1  0.15733995  0.92230121  0.75051228  1.0
