# generated using pymatgen
data_AlH18C27N13O6
_symmetry_space_group_name_H-M   'P 1'
_cell_length_a   3.87291317
_cell_length_b   18.12824311
_cell_length_c   18.22440170
_cell_angle_alpha   60.18010003
_cell_angle_beta   87.67720135
_cell_angle_gamma   89.59403335
_symmetry_Int_Tables_number   1
_chemical_formula_structural   AlH18C27N13O6
_chemical_formula_sum   'Al1 H18 C27 N13 O6'
_cell_volume   1109.06333292
_cell_formula_units_Z   1
loop_
 _symmetry_equiv_pos_site_id
 _symmetry_equiv_pos_as_xyz
  1  'x, y, z'
loop_
 _atom_site_type_symbol
 _atom_site_label
 _atom_site_symmetry_multiplicity
 _atom_site_fract_x
 _atom_site_fract_y
 _atom_site_fract_z
 _atom_site_occupancy
  Al  Al0  1  0.00778626  0.49991086  0.49966760  1.0
  H  H1  1  0.77791469  0.10117054  0.59510092  1.0
  H  H2  1  0.77951716  0.80492046  0.10051562  1.0
  H  H3  1  0.72000422  0.58910382  0.80563522  1.0
  H  H4  1  0.28457559  0.59076079  0.10593066  1.0
  H  H5  1  0.25962959  0.80357023  0.59756756  1.0
  H  H6  1  0.24620913  0.10156768  0.80651157  1.0
  H  H7  1  0.10875834  0.32707607  0.69631264  1.0
  H  H8  1  0.01452389  0.23036204  0.78461003  1.0
  H  H9  1  0.89964847  0.32793233  0.47563935  1.0
  H  H10  1  0.00147339  0.23084387  0.48595076  1.0
  H  H11  1  0.13168079  0.69703025  0.47868105  1.0
  H  H12  1  0.04803400  0.78450107  0.48955831  1.0
  H  H13  1  0.84086638  0.47142939  0.69617058  1.0
  H  H14  1  0.92294005  0.47950042  0.78389458  1.0
  H  H15  1  0.16064129  0.47263165  0.33200143  1.0
  H  H16  1  0.07138562  0.48146011  0.23634203  1.0
  H  H17  1  0.90739857  0.69747347  0.32448573  1.0
  H  H18  1  0.99967922  0.78502414  0.22690753  1.0
  C  C19  1  0.50246207  0.36553601  0.56671444  1.0
  C  C20  1  0.52832868  0.56685839  0.36612654  1.0
  C  C21  1  0.49331639  0.56624917  0.56747165  1.0
  C  C22  1  0.66057165  0.13703823  0.62277963  1.0
  C  C23  1  0.51251217  0.09369216  0.70469446  1.0
  C  C24  1  0.67187652  0.74068531  0.13726771  1.0
  C  C25  1  0.53116849  0.70179839  0.09550236  1.0
  C  C26  1  0.49107732  0.70031927  0.70536784  1.0
  C  C27  1  0.61845768  0.61784243  0.74253067  1.0
  C  C28  1  0.39383154  0.61932230  0.14031262  1.0
  C  C29  1  0.37904960  0.57534337  0.22900113  1.0
  C  C30  1  0.53389209  0.61256488  0.27361081  1.0
  C  C31  1  0.68945979  0.69583578  0.22570626  1.0
  C  C32  1  0.63247155  0.57405203  0.69719553  1.0
  C  C33  1  0.48783686  0.61158385  0.61509412  1.0
  C  C34  1  0.34171089  0.69478294  0.58022567  1.0
  C  C35  1  0.35938882  0.73931849  0.62463481  1.0
  C  C36  1  0.36177785  0.13722836  0.74263081  1.0
  C  C37  1  0.34148399  0.22614501  0.69690525  1.0
  C  C38  1  0.50555315  0.27257469  0.61392360  1.0
  C  C39  1  0.67421829  0.22612980  0.57815194  1.0
  C  C40  1  0.50583317  0.87643213  0.74629400  1.0
  C  C41  1  0.52039842  0.87710936  0.87984473  1.0
  C  C42  1  0.51346985  0.99992066  0.75171476  1.0
  C  C43  1  0.49780220  0.74731679  0.75205911  1.0
  C  C44  1  0.51159855  0.74230927  0.87997961  1.0
  C  C45  1  0.52578973  0.74851715  0.00230450  1.0
  N  N46  1  0.51267254  0.83196629  0.83537906  1.0
  N  N47  1  0.51282698  0.96188040  0.83674706  1.0
  N  N48  1  0.51440412  0.96121880  0.70494753  1.0
  N  N49  1  0.49049966  0.83277125  0.70537801  1.0
  N  N50  1  0.51180871  0.70063206  0.83687369  1.0
  N  N51  1  0.53531130  0.83404639  0.96395273  1.0
  N  N52  1  0.51058964  0.70121281  0.96429850  1.0
  N  N53  1  0.18339151  0.26659203  0.73586510  1.0
  N  N54  1  0.82986954  0.26621105  0.49824815  1.0
  N  N55  1  0.20600340  0.73535813  0.50125543  1.0
  N  N56  1  0.76526330  0.49337349  0.73577508  1.0
  N  N57  1  0.23492924  0.49478342  0.27039246  1.0
  N  N58  1  0.83533445  0.73608411  0.26421536  1.0
  O  O59  1  0.26989936  0.58357450  0.51052911  1.0
  O  O60  1  0.26204110  0.40564265  0.58307217  1.0
  O  O61  1  0.29254849  0.50917385  0.40775147  1.0
  O  O62  1  0.72380772  0.50899246  0.58287036  1.0
  O  O63  1  0.75577306  0.58413275  0.40553059  1.0
  O  O64  1  0.74168697  0.40672523  0.50902701  1.0
