# generated using pymatgen
data_CuH4(C2N)3
_symmetry_space_group_name_H-M   'P 1'
_cell_length_a   27.05114146
_cell_length_b   27.26443676
_cell_length_c   27.50360498
_cell_angle_alpha   90.70245455
_cell_angle_beta   92.04612106
_cell_angle_gamma   95.48104123
_symmetry_Int_Tables_number   1
_chemical_formula_structural   CuH4(C2N)3
_chemical_formula_sum   'Cu12 H48 C72 N36'
_cell_volume   20176.72435901
_cell_formula_units_Z   12
loop_
 _symmetry_equiv_pos_site_id
 _symmetry_equiv_pos_as_xyz
  1  'x, y, z'
loop_
 _atom_site_type_symbol
 _atom_site_label
 _atom_site_symmetry_multiplicity
 _atom_site_fract_x
 _atom_site_fract_y
 _atom_site_fract_z
 _atom_site_occupancy
  Cu  Cu0  1  0.34156369  0.38297880  0.42435463  1.0
  Cu  Cu1  1  0.39639454  0.30935694  0.35875199  1.0
  Cu  Cu2  1  0.36641148  0.40899614  0.31733934  1.0
  Cu  Cu3  1  0.83581881  0.64368328  0.08103333  1.0
  Cu  Cu4  1  0.93474754  0.68863552  0.13510427  1.0
  Cu  Cu5  1  0.88203622  0.58653523  0.16954057  1.0
  Cu  Cu6  1  0.16558565  0.85821044  0.59191523  1.0
  Cu  Cu7  1  0.05323903  0.83886557  0.61206548  1.0
  Cu  Cu8  1  0.12990115  0.89761663  0.68972734  1.0
  Cu  Cu9  1  0.68574229  0.13771186  0.91846198  1.0
  Cu  Cu10  1  0.58866671  0.17575411  0.86982398  1.0
  Cu  Cu11  1  0.62887351  0.07802256  0.82983682  1.0
  H  H12  1  0.35854587  0.33539456  0.52852425  1.0
  H  H13  1  0.40339036  0.22171351  0.43265617  1.0
  H  H14  1  0.28312939  0.48110368  0.29168611  1.0
  H  H15  1  0.25719932  0.45399799  0.44407957  1.0
  H  H16  1  0.45975632  0.27307556  0.27058959  1.0
  H  H17  1  0.44384875  0.42477122  0.23278750  1.0
  H  H18  1  0.81899519  0.72817332  0.00490771  1.0
  H  H19  1  0.96841833  0.77361315  0.06067059  1.0
  H  H20  1  0.80217868  0.49322262  0.17377859  1.0
  H  H21  1  0.74996495  0.56335722  0.04373642  1.0
  H  H22  1  0.01509412  0.71094331  0.22155825  1.0
  H  H23  1  0.95637977  0.56269859  0.25675480  1.0
  H  H24  1  0.17779915  0.77184347  0.51577874  1.0
  H  H25  1  0.01753829  0.76097300  0.52541083  1.0
  H  H26  1  0.22289115  0.97571588  0.72177437  1.0
  H  H27  1  0.26032894  0.93357936  0.57611649  1.0
  H  H28  1  0.95219437  0.85498366  0.66243400  1.0
  H  H29  1  0.05900067  0.90136686  0.77901168  1.0
  H  H30  1  0.71422835  0.22291445  0.99794380  1.0
  H  H31  1  0.57041884  0.26133454  0.94481235  1.0
  H  H32  1  0.69823055  0.99164072  0.81651293  1.0
  H  H33  1  0.76591806  0.06386549  0.94695216  1.0
  H  H34  1  0.50127474  0.18779933  0.79150804  1.0
  H  H35  1  0.54255528  0.04332378  0.75170156  1.0
  H  H36  1  0.93824796  0.81218724  0.96521079  1.0
  H  H37  1  0.82680233  0.82412910  0.97426542  1.0
  H  H38  1  0.39655684  0.24905020  0.57529407  1.0
  H  H39  1  0.36341394  0.16439904  0.50254268  1.0
  H  H40  1  0.68137953  0.31344559  0.03761594  1.0
  H  H41  1  0.56738096  0.29393460  0.03917207  1.0
  H  H42  1  0.05776143  0.70327638  0.44656668  1.0
  H  H43  1  0.16062766  0.68092007  0.48759249  1.0
  H  H44  1  0.79162632  0.96515401  0.92711616  1.0
  H  H45  1  0.79511209  0.95709246  0.81555178  1.0
  H  H46  1  0.19529779  0.51798961  0.32831294  1.0
  H  H47  1  0.21424406  0.53636518  0.43847971  1.0
  H  H48  1  0.31286993  0.02616560  0.68585339  1.0
  H  H49  1  0.30178432  0.02311490  0.57389401  1.0
  H  H50  1  0.70900685  0.45947593  0.06086623  1.0
  H  H51  1  0.69937306  0.46495481  0.17195742  1.0
  H  H52  1  0.91219241  0.89346484  0.75096012  1.0
  H  H53  1  0.98230315  0.86242774  0.83330889  1.0
  H  H54  1  0.50524398  0.31005769  0.17845975  1.0
  H  H55  1  0.53868140  0.41748139  0.20930723  1.0
  H  H56  1  0.04753238  0.67343165  0.31528085  1.0
  H  H57  1  0.05233709  0.56238958  0.29666926  1.0
  H  H58  1  0.45155963  0.06861986  0.70850088  1.0
  H  H59  1  0.45931469  0.18142014  0.69812481  1.0
  C  C60  1  0.36898455  0.31290121  0.49842099  1.0
  C  C61  1  0.38271772  0.26442579  0.49852475  1.0
  C  C62  1  0.39059248  0.25430627  0.44923779  1.0
  C  C63  1  0.28323849  0.46925530  0.32922283  1.0
  C  C64  1  0.25257167  0.48130514  0.36696702  1.0
  C  C65  1  0.27063645  0.45629786  0.40739752  1.0
  C  C66  1  0.44989881  0.31059322  0.26734256  1.0
  C  C67  1  0.46703459  0.34746570  0.23500144  1.0
  C  C68  1  0.44274410  0.38855363  0.24887932  1.0
  C  C69  1  0.85429262  0.73379185  0.02516862  1.0
  C  C70  1  0.89557502  0.76793269  0.01735382  1.0
  C  C71  1  0.93113805  0.75626336  0.05288051  1.0
  C  C72  1  0.79514467  0.51741567  0.14377751  1.0
  C  C73  1  0.75918353  0.51086485  0.10545039  1.0
  C  C74  1  0.76924172  0.55257905  0.07661040  1.0
  C  C75  1  0.99480638  0.67475110  0.22366523  1.0
  C  C76  1  0.00155902  0.63669937  0.25661792  1.0
  C  C77  1  0.96556812  0.59854896  0.24094584  1.0
  C  C78  1  0.13946789  0.77494917  0.52472727  1.0
  C  C79  1  0.09568285  0.74889052  0.50513209  1.0
  C  C80  1  0.05746315  0.77014524  0.52878929  1.0
  C  C81  1  0.22549535  0.95903981  0.68602591  1.0
  C  C82  1  0.25946345  0.97152883  0.64951409  1.0
  C  C83  1  0.24411938  0.93815871  0.61121686  1.0
  C  C84  1  0.98486078  0.86587252  0.68554947  1.0
  C  C85  1  0.98802134  0.87968234  0.73508130  1.0
  C  C86  1  0.03947673  0.88831359  0.74547986  1.0
  C  C87  1  0.67890714  0.22614195  0.97883634  1.0
  C  C88  1  0.64281727  0.25873416  0.98773340  1.0
  C  C89  1  0.60490166  0.24506492  0.95240090  1.0
  C  C90  1  0.70996400  0.01597608  0.84714618  1.0
  C  C91  1  0.74710194  0.01139271  0.88349257  1.0
  C  C92  1  0.74367951  0.05228709  0.91446876  1.0
  C  C93  1  0.51837885  0.15368629  0.78708248  1.0
  C  C94  1  0.50448399  0.11329677  0.75552720  1.0
  C  C95  1  0.53895634  0.07943761  0.76750943  1.0
  C  C96  1  0.86958325  0.85954097  0.91737214  1.0
  C  C97  1  0.83594403  0.91221282  0.86478821  1.0
  C  C98  1  0.90779810  0.88008866  0.84705891  1.0
  C  C99  1  0.37976732  0.14995040  0.57795433  1.0
  C  C100  1  0.40861944  0.13146733  0.65349945  1.0
  C  C101  1  0.35293472  0.07704223  0.61216975  1.0
  C  C102  1  0.60847355  0.34935478  0.08568413  1.0
  C  C103  1  0.65106385  0.41350826  0.12738189  1.0
  C  C104  1  0.57537250  0.38177578  0.15245661  1.0
  C  C105  1  0.12549529  0.63959310  0.42653787  1.0
  C  C106  1  0.09327429  0.60169991  0.35669816  1.0
  C  C107  1  0.15769810  0.57103405  0.39792408  1.0
  C  C108  1  0.90117838  0.80414279  0.97948132  1.0
  C  C109  1  0.86389007  0.82778607  0.95949546  1.0
  C  C110  1  0.38661355  0.23217641  0.53956085  1.0
  C  C111  1  0.37727124  0.18263137  0.53657160  1.0
  C  C112  1  0.64468178  0.29668591  0.02514107  1.0
  C  C113  1  0.60468754  0.31189059  0.04697515  1.0
  C  C114  1  0.09174176  0.70922525  0.46945293  1.0
  C  C115  1  0.12768698  0.67874479  0.46325117  1.0
  C  C116  1  0.78059206  0.97345359  0.88967445  1.0
  C  C117  1  0.80055231  0.94825566  0.85385927  1.0
  C  C118  1  0.21253976  0.51266062  0.36419478  1.0
  C  C119  1  0.19607412  0.53719071  0.40246398  1.0
  C  C120  1  0.29868414  0.01141163  0.65036361  1.0
  C  C121  1  0.31706075  0.03358541  0.61021197  1.0
  C  C122  1  0.71951875  0.47152453  0.09820553  1.0
  C  C123  1  0.69328660  0.45077352  0.13471781  1.0
  C  C124  1  0.94741092  0.88384263  0.76720722  1.0
  C  C125  1  0.94950521  0.87572330  0.81557169  1.0
  C  C126  1  0.50341630  0.34502541  0.19789842  1.0
  C  C127  1  0.53659978  0.38341935  0.18773791  1.0
  C  C128  1  0.03678289  0.63769989  0.29750234  1.0
  C  C129  1  0.05803427  0.59832613  0.31499759  1.0
  C  C130  1  0.46517868  0.10662479  0.71846362  1.0
  C  C131  1  0.44524797  0.14273369  0.69335634  1.0
  N  N132  1  0.38211466  0.29358918  0.42214215  1.0
  N  N133  1  0.36805471  0.32988644  0.45263276  1.0
  N  N134  1  0.30889367  0.43148396  0.39453895  1.0
  N  N135  1  0.31708137  0.43991540  0.34604576  1.0
  N  N136  1  0.41358906  0.37691243  0.28642556  1.0
  N  N137  1  0.41855681  0.32866292  0.29848820  1.0
  N  N138  1  0.91223565  0.71865355  0.07992167  1.0
  N  N139  1  0.86473821  0.70413620  0.06212489  1.0
  N  N140  1  0.80763167  0.58196781  0.09671204  1.0
  N  N141  1  0.82424916  0.55969786  0.13800839  1.0
  N  N142  1  0.93950966  0.61299473  0.20193938  1.0
  N  N143  1  0.95820015  0.66010513  0.19071140  1.0
  N  N144  1  0.07709368  0.80550900  0.56038285  1.0
  N  N145  1  0.12805646  0.80879230  0.55732762  1.0
  N  N146  1  0.20426457  0.90855057  0.62400342  1.0
  N  N147  1  0.19220883  0.92179193  0.67033941  1.0
  N  N148  1  0.06472539  0.88028941  0.70529849  1.0
  N  N149  1  0.03073033  0.86563448  0.66811193  1.0
  N  N150  1  0.61759152  0.20743273  0.92485720  1.0
  N  N151  1  0.66329029  0.19510417  0.94175426  1.0
  N  N152  1  0.70778482  0.07927230  0.89756498  1.0
  N  N153  1  0.68632402  0.05624127  0.85611361  1.0
  N  N154  1  0.57113592  0.09848561  0.80280079  1.0
  N  N155  1  0.55786346  0.14436446  0.81547649  1.0
  N  N156  1  0.83297835  0.88857248  0.90763416  1.0
  N  N157  1  0.87024828  0.90608490  0.83151347  1.0
  N  N158  1  0.90978233  0.85702418  0.89000711  1.0
  N  N159  1  0.40641844  0.16564593  0.61859339  1.0
  N  N160  1  0.38112864  0.08748839  0.65297743  1.0
  N  N161  1  0.35399469  0.10523810  0.57209921  1.0
  N  N162  1  0.64953193  0.38176180  0.08936841  1.0
  N  N163  1  0.61527595  0.41494018  0.16016118  1.0
  N  N164  1  0.57004005  0.34816413  0.11578909  1.0
  N  N165  1  0.09210345  0.63918507  0.38895533  1.0
  N  N166  1  0.12534175  0.56673956  0.35926653  1.0
  N  N167  1  0.15857948  0.60596506  0.43319657  1.0
