# generated using pymatgen
data_Zn4H5C24S4NO15F2
_symmetry_space_group_name_H-M   'P 1'
_cell_length_a   19.62589190
_cell_length_b   19.68700978
_cell_length_c   33.33807195
_cell_angle_alpha   79.17442331
_cell_angle_beta   79.35905284
_cell_angle_gamma   64.05188650
_symmetry_Int_Tables_number   1
_chemical_formula_structural   Zn4H5C24S4NO15F2
_chemical_formula_sum   'Zn16 H20 C96 S16 N4 O60 F8'
_cell_volume   11299.51651091
_cell_formula_units_Z   4
loop_
 _symmetry_equiv_pos_site_id
 _symmetry_equiv_pos_as_xyz
  1  'x, y, z'
loop_
 _atom_site_type_symbol
 _atom_site_label
 _atom_site_symmetry_multiplicity
 _atom_site_fract_x
 _atom_site_fract_y
 _atom_site_fract_z
 _atom_site_occupancy
  Zn  Zn0  1  0.05655858  0.40127678  0.47799176  1.0
  Zn  Zn1  1  0.98327559  0.48370337  0.56027485  1.0
  Zn  Zn2  1  0.06083783  0.55967742  0.48209957  1.0
  Zn  Zn3  1  0.89939516  0.55506239  0.47981493  1.0
  Zn  Zn4  1  0.69504300  0.34941639  0.27106332  1.0
  Zn  Zn5  1  0.69100798  0.18881186  0.26703100  1.0
  Zn  Zn6  1  0.76807823  0.26786585  0.18981512  1.0
  Zn  Zn7  1  0.84887997  0.19406057  0.27285651  1.0
  Zn  Zn8  1  0.26598285  0.76775768  0.68956246  1.0
  Zn  Zn9  1  0.34792489  0.69559774  0.77200592  1.0
  Zn  Zn10  1  0.19281616  0.84971248  0.77092939  1.0
  Zn  Zn11  1  0.18999935  0.68877828  0.76660315  1.0
  Zn  Zn12  1  0.56073320  0.06032480  0.98307542  1.0
  Zn  Zn13  1  0.40064208  0.05556008  0.97842799  1.0
  Zn  Zn14  1  0.55508438  0.90201915  0.97804363  1.0
  Zn  Zn15  1  0.48311008  0.98393652  0.06036243  1.0
  H  H16  1  0.95283497  0.24832786  0.35253651  1.0
  H  H17  1  0.74759660  0.45566115  0.34988801  1.0
  H  H18  1  0.99956504  0.29772905  0.40103592  1.0
  H  H19  1  0.09938019  0.59554070  0.69938649  1.0
  H  H20  1  0.20007400  0.70309676  0.59697279  1.0
  H  H21  1  0.05188585  0.54838911  0.65014587  1.0
  H  H22  1  0.46521161  0.23791344  0.34148318  1.0
  H  H23  1  0.47865540  0.70443126  0.60183337  1.0
  H  H24  1  0.20209932  0.97973900  0.60066157  1.0
  H  H25  1  0.94909767  0.96948555  0.34982541  1.0
  H  H26  1  0.54881271  0.05183552  0.15266592  1.0
  H  H27  1  0.65494498  0.15117699  0.04885354  1.0
  H  H28  1  0.59771260  0.10099477  0.20015767  1.0
  H  H29  1  0.54563366  0.77163450  0.14846780  1.0
  H  H30  1  0.16186843  0.13965983  0.04047052  1.0
  H  H31  1  0.50132109  0.79748479  0.89808552  1.0
  H  H32  1  0.29414146  0.00292720  0.89977392  1.0
  H  H33  1  0.45145790  0.75125296  0.84961922  1.0
  H  H34  1  0.30027158  0.27949587  0.90218727  1.0
  H  H35  1  0.78799603  0.00974024  0.90960782  1.0
  C  C36  1  0.06270918  0.31694703  0.56124745  1.0
  C  C37  1  0.06995535  0.56882668  0.56842700  1.0
  C  C38  1  0.18448929  0.43846520  0.43781092  1.0
  C  C39  1  0.93721130  0.68257151  0.43908877  1.0
  C  C40  1  0.93069149  0.42987235  0.43193543  1.0
  C  C41  1  0.81610572  0.56079809  0.56282731  1.0
  C  C42  1  0.56644750  0.31045503  0.31051654  1.0
  C  C43  1  0.68050138  0.18184925  0.18122413  1.0
  C  C44  1  0.69159789  0.43471954  0.18840044  1.0
  C  C45  1  0.93440295  0.18573462  0.18970322  1.0
  C  C46  1  0.81892269  0.32006015  0.31965009  1.0
  C  C47  1  0.81190131  0.06558716  0.31271457  1.0
  C  C48  1  0.43295786  0.69102561  0.68875774  1.0
  C  C49  1  0.31874074  0.82014930  0.81850643  1.0
  C  C50  1  0.18611470  0.93412134  0.68752721  1.0
  C  C51  1  0.06707913  0.80969069  0.81202255  1.0
  C  C52  1  0.18095416  0.68070072  0.68004130  1.0
  C  C53  1  0.31224937  0.56523798  0.81056237  1.0
  C  C54  1  0.43803079  0.18397069  0.93863769  1.0
  C  C55  1  0.42982715  0.93137099  0.93053934  1.0
  C  C56  1  0.68403826  0.93951823  0.93836651  1.0
  C  C57  1  0.56041312  0.81720679  0.06155383  1.0
  C  C58  1  0.57004657  0.06968037  0.06932334  1.0
  C  C59  1  0.31541837  0.06246157  0.06131784  1.0
  C  C60  1  0.90122904  0.40396605  0.40212135  1.0
  C  C61  1  0.84763413  0.34898104  0.34835657  1.0
  C  C62  1  0.83041014  0.44778278  0.38716091  1.0
  C  C63  1  0.91882432  0.30431422  0.36258107  1.0
  C  C64  1  0.80297575  0.42108732  0.36089186  1.0
  C  C65  1  0.94479497  0.33172244  0.38925844  1.0
  C  C66  1  0.09771880  0.60006991  0.59641850  1.0
  C  C67  1  0.15229928  0.65214678  0.65113985  1.0
  C  C68  1  0.13933382  0.64415268  0.58205708  1.0
  C  C69  1  0.11041737  0.60869346  0.66629643  1.0
  C  C70  1  0.16726902  0.66956396  0.60871373  1.0
  C  C71  1  0.08391744  0.58286391  0.63909098  1.0
  C  C72  1  0.30474039  0.45298895  0.39945631  1.0
  C  C73  1  0.44767113  0.29513248  0.34886993  1.0
  C  C74  1  0.25925667  0.41361619  0.41316936  1.0
  C  C75  1  0.49184889  0.33566501  0.33561914  1.0
  C  C76  1  0.37956257  0.33813248  0.37238748  1.0
  C  C77  1  0.37359611  0.41071919  0.37626343  1.0
  C  C78  1  0.72478784  0.57621745  0.63017962  1.0
  C  C79  1  0.52337806  0.67519913  0.62194706  1.0
  C  C80  1  0.74162997  0.58589923  0.58775515  1.0
  C  C81  1  0.50815141  0.66525140  0.66432378  1.0
  C  C82  1  0.60267519  0.64281419  0.60967105  1.0
  C  C83  1  0.64584980  0.60850515  0.64322551  1.0
  C  C84  1  0.07701884  0.22537746  0.62852533  1.0
  C  C85  1  0.17280548  0.02441754  0.62059629  1.0
  C  C86  1  0.08690028  0.24241011  0.58610424  1.0
  C  C87  1  0.16170629  0.00920060  0.66294066  1.0
  C  C88  1  0.14134710  0.10355579  0.60819881  1.0
  C  C89  1  0.10743706  0.14653601  0.64165293  1.0
  C  C90  1  0.84429904  0.79966860  0.39722565  1.0
  C  C91  1  0.90465965  0.94911375  0.35386235  1.0
  C  C92  1  0.91224714  0.75727148  0.41435280  1.0
  C  C93  1  0.83628917  0.99048586  0.33731861  1.0
  C  C94  1  0.90721582  0.87949720  0.37578135  1.0
  C  C95  1  0.84046296  0.86955358  0.37518761  1.0
  C  C96  1  0.65448746  0.15200378  0.15162577  1.0
  C  C97  1  0.59906041  0.09836582  0.09801898  1.0
  C  C98  1  0.67033583  0.16511568  0.10878469  1.0
  C  C99  1  0.58295662  0.08391849  0.14066013  1.0
  C  C100  1  0.64270253  0.13966075  0.08198967  1.0
  C  C101  1  0.61019869  0.11087694  0.16693660  1.0
  C  C102  1  0.67522601  0.52598931  0.12095391  1.0
  C  C103  1  0.57526278  0.72695051  0.12855804  1.0
  C  C104  1  0.66580818  0.50914404  0.16341976  1.0
  C  C105  1  0.58564391  0.74212526  0.08617838  1.0
  C  C106  1  0.60790458  0.64785329  0.14106845  1.0
  C  C107  1  0.64251499  0.60476310  0.10770072  1.0
  C  C108  1  0.08123240  0.12378947  0.17759357  1.0
  C  C109  1  0.16963056  0.12388464  0.07289856  1.0
  C  C110  1  0.00895550  0.16095542  0.16478252  1.0
  C  C111  1  0.24094940  0.08677014  0.08655682  1.0
  C  C112  1  0.11142659  0.13721303  0.10631663  1.0
  C  C113  1  0.14027904  0.10978635  0.14470743  1.0
  C  C114  1  0.34506787  0.84953979  0.84817481  1.0
  C  C115  1  0.40077680  0.90279396  0.90181576  1.0
  C  C116  1  0.30144450  0.92024831  0.86290971  1.0
  C  C117  1  0.44522592  0.83167320  0.88787949  1.0
  C  C118  1  0.32855486  0.94757285  0.88902172  1.0
  C  C119  1  0.41754010  0.80593019  0.86121585  1.0
  C  C120  1  0.40557031  0.44819893  0.85215333  1.0
  C  C121  1  0.34480839  0.29985110  0.89753230  1.0
  C  C122  1  0.33718242  0.49074890  0.83551307  1.0
  C  C123  1  0.41357737  0.25870341  0.91367834  1.0
  C  C124  1  0.34218104  0.36912895  0.87509767  1.0
  C  C125  1  0.40938730  0.37878365  0.87479908  1.0
  C  C126  1  0.94551119  0.79656265  0.84933956  1.0
  C  C127  1  0.80450421  0.95321751  0.90147280  1.0
  C  C128  1  0.99249409  0.83457736  0.83688649  1.0
  C  C129  1  0.75887743  0.91397738  0.91350675  1.0
  C  C130  1  0.87270914  0.90996737  0.87805513  1.0
  C  C131  1  0.87704932  0.83864233  0.87284252  1.0
  S  S132  1  0.30135925  0.32309862  0.39751610  1.0
  S  S133  1  0.45150581  0.42590592  0.35148421  1.0
  S  S134  1  0.65951529  0.63534937  0.56317846  1.0
  S  S135  1  0.58942599  0.61650916  0.68964489  1.0
  S  S136  1  0.13440779  0.16046326  0.56165822  1.0
  S  S137  1  0.11352584  0.09014985  0.68810922  1.0
  S  S138  1  0.97267518  0.80360035  0.40346225  1.0
  S  S139  1  0.77474124  0.94542272  0.34801932  1.0
  S  S140  1  0.61576947  0.59111770  0.18769706  1.0
  S  S141  1  0.63477167  0.66102893  0.06114992  1.0
  S  S142  1  0.01304218  0.17904152  0.11141008  1.0
  S  S143  1  0.23826115  0.06775743  0.13984331  1.0
  S  S144  1  0.27612520  0.44510893  0.84777506  1.0
  S  S145  1  0.47548252  0.30330320  0.90194568  1.0
  S  S146  1  0.95239840  0.92359561  0.85430975  1.0
  S  S147  1  0.79793626  0.82463494  0.89660316  1.0
  N  N148  1  0.78134895  0.52625647  0.39719040  1.0
  N  N149  1  0.15405102  0.66884337  0.53775758  1.0
  N  N150  1  0.71936178  0.20481406  0.08918883  1.0
  N  N151  1  0.22272933  0.96937493  0.85283966  1.0
  O  O152  1  0.00020041  0.49952176  0.49991923  1.0
  O  O153  1  0.07396718  0.31596010  0.52218017  1.0
  O  O154  1  0.02317718  0.54006810  0.58524113  1.0
  O  O155  1  0.15397748  0.50661535  0.44657246  1.0
  O  O156  1  0.03312114  0.37537400  0.58048334  1.0
  O  O157  1  0.15670745  0.38873886  0.44812249  1.0
  O  O158  1  0.09626052  0.57263256  0.53063372  1.0
  O  O159  1  0.00193664  0.65844930  0.45259196  1.0
  O  O160  1  0.88333197  0.48777213  0.44920665  1.0
  O  O161  1  0.89308464  0.64871758  0.44481478  1.0
  O  O162  1  0.00044077  0.39066801  0.43778769  1.0
  O  O163  1  0.87488048  0.52092763  0.58157736  1.0
  O  O164  1  0.81472920  0.58161930  0.52408202  1.0
  O  O165  1  0.75053511  0.24989646  0.25024786  1.0
  O  O166  1  0.59811425  0.35686922  0.30328589  1.0
  O  O167  1  0.67103248  0.15741233  0.21911535  1.0
  O  O168  1  0.73081476  0.37641220  0.16953962  1.0
  O  O169  1  0.59265586  0.24498791  0.29823265  1.0
  O  O170  1  0.67214142  0.43553794  0.22727700  1.0
  O  O171  1  0.70858983  0.22963675  0.16607886  1.0
  O  O172  1  0.87633451  0.21801105  0.16954932  1.0
  O  O173  1  0.86192210  0.25365569  0.30972583  1.0
  O  O174  1  0.93403492  0.17333278  0.22868677  1.0
  O  O175  1  0.75408884  0.36436469  0.30764929  1.0
  O  O176  1  0.74523494  0.09325380  0.30113072  1.0
  O  O177  1  0.85888641  0.09650371  0.30512133  1.0
  O  O178  1  0.24920172  0.75040468  0.74984290  1.0
  O  O179  1  0.37481537  0.72367950  0.66890860  1.0
  O  O180  1  0.35917620  0.75117947  0.81199536  1.0
  O  O181  1  0.16705043  0.93404804  0.72636301  1.0
  O  O182  1  0.43290522  0.67822102  0.72789540  1.0
  O  O183  1  0.22386677  0.87617010  0.66807116  1.0
  O  O184  1  0.25922938  0.86666896  0.80201379  1.0
  O  O185  1  0.09880988  0.85609901  0.80571044  1.0
  O  O186  1  0.16596524  0.66271973  0.71833151  1.0
  O  O187  1  0.09330006  0.74502645  0.79895640  1.0
  O  O188  1  0.21769075  0.72069769  0.66377555  1.0
  O  O189  1  0.35887761  0.59644423  0.80218083  1.0
  O  O190  1  0.24521539  0.59200286  0.79951208  1.0
  O  O191  1  0.49987267  0.00046013  0.00001418  1.0
  O  O192  1  0.50452001  0.15685646  0.95035131  1.0
  O  O193  1  0.38598875  0.99663744  0.94180292  1.0
  O  O194  1  0.65215982  0.89321000  0.94563989  1.0
  O  O195  1  0.39109866  0.15302169  0.94631035  1.0
  O  O196  1  0.65765144  0.00510126  0.95048011  1.0
  O  O197  1  0.49582344  0.88788685  0.94126264  1.0
  O  O198  1  0.57558589  0.81726056  0.02249735  1.0
  O  O199  1  0.53126988  0.03180763  0.08579277  1.0
  O  O200  1  0.52599017  0.87523747  0.08118967  1.0
  O  O201  1  0.58673436  0.08552546  0.03094923  1.0
  O  O202  1  0.31495850  0.07722031  0.02236096  1.0
  O  O203  1  0.37413371  0.02843715  0.08090980  1.0
  O  O204  1  0.80156448  0.57661420  0.37959146  1.0
  O  O205  1  0.72213827  0.53533971  0.42058587  1.0
  O  O206  1  0.09966177  0.72015242  0.52129430  1.0
  O  O207  1  0.22050478  0.63905001  0.52155894  1.0
  O  O208  1  0.78878301  0.16832636  0.09023517  1.0
  O  O209  1  0.68703301  0.26958771  0.07145664  1.0
  O  O210  1  0.17215552  0.94958392  0.87072775  1.0
  O  O211  1  0.21363413  0.02824480  0.82914893  1.0
  F  F212  1  0.28661143  0.52378327  0.40710658  1.0
  F  F213  1  0.77714878  0.54043171  0.65676007  1.0
  F  F214  1  0.04184426  0.27747259  0.65502184  1.0
  F  F215  1  0.78717694  0.77798948  0.40099053  1.0
  F  F216  1  0.71127602  0.47388529  0.09456232  1.0
  F  F217  1  0.09518529  0.10258199  0.21706089  1.0
  F  F218  1  0.46311024  0.46957261  0.84768831  1.0
  F  F219  1  0.96220271  0.72681052  0.84038917  1.0
