# generated using pymatgen
data_Zn4H12C25I4O13
_symmetry_space_group_name_H-M   'P 1'
_cell_length_a   18.31595739
_cell_length_b   18.31608477
_cell_length_c   18.34581306
_cell_angle_alpha   60.26682075
_cell_angle_beta   60.40312622
_cell_angle_gamma   90.48927714
_symmetry_Int_Tables_number   1
_chemical_formula_structural   Zn4H12C25I4O13
_chemical_formula_sum   'Zn8 H24 C50 I8 O26'
_cell_volume   4377.26894676
_cell_formula_units_Z   2
loop_
 _symmetry_equiv_pos_site_id
 _symmetry_equiv_pos_as_xyz
  1  'x, y, z'
loop_
 _atom_site_type_symbol
 _atom_site_label
 _atom_site_symmetry_multiplicity
 _atom_site_fract_x
 _atom_site_fract_y
 _atom_site_fract_z
 _atom_site_occupancy
  Zn  Zn0  1  0.70656011  0.61739842  0.08714833  1.0
  Zn  Zn1  1  0.29576314  0.20833116  0.91125579  1.0
  Zn  Zn2  1  0.88042142  0.79298609  0.91124938  1.0
  Zn  Zn3  1  0.70518695  0.79112472  0.08734889  1.0
  Zn  Zn4  1  0.12152211  0.20746295  0.08735097  1.0
  Zn  Zn5  1  0.70737304  0.79371414  0.91007031  1.0
  Zn  Zn6  1  0.29621548  0.38255654  0.91006821  1.0
  Zn  Zn7  1  0.29545511  0.20628943  0.08714577  1.0
  H  H8  1  0.52951317  0.65890081  0.89823702  1.0
  H  H9  1  0.63826561  0.49676441  0.95544559  1.0
  H  H10  1  0.54779030  0.40629163  0.95544136  1.0
  H  H11  1  0.54787349  0.50246311  0.85920259  1.0
  H  H12  1  0.63833800  0.59292246  0.85920489  1.0
  H  H13  1  0.55188226  0.66518577  0.40024270  1.0
  H  H14  1  0.55727028  0.95890708  0.10772012  1.0
  H  H15  1  0.93336536  0.33500496  0.10777323  1.0
  H  H16  1  0.52893611  0.42803397  0.12966672  1.0
  H  H17  1  0.93457063  0.04787010  0.40024414  1.0
  H  H18  1  0.45781700  0.57072673  0.59264766  1.0
  H  H19  1  0.45898257  0.05382649  0.10967536  1.0
  H  H20  1  0.83649225  0.43134119  0.10972853  1.0
  H  H21  1  0.83662519  0.94953583  0.59264879  1.0
  H  H22  1  0.44230811  0.34140092  0.12966103  1.0
  H  H23  1  0.44708797  0.33393670  0.59730476  1.0
  H  H24  1  0.44166495  0.03748253  0.89274077  1.0
  H  H25  1  0.06977832  0.66559807  0.89268557  1.0
  H  H26  1  0.06876280  0.95561572  0.59729974  1.0
  H  H27  1  0.44285589  0.57224995  0.89824174  1.0
  H  H28  1  0.54069894  0.42841088  0.40484401  1.0
  H  H29  1  0.53945000  0.94204145  0.89132566  1.0
  H  H30  1  0.16663492  0.56922758  0.89126904  1.0
  H  H31  1  0.16674831  0.05446297  0.40483752  1.0
  C  C32  1  0.88910814  0.88749301  0.72026946  1.0
  C  C33  1  0.44508559  0.05127548  0.00103075  1.0
  C  C34  1  0.90893489  0.97274652  0.55074263  1.0
  C  C35  1  0.94769360  0.55388430  0.00103010  1.0
  C  C36  1  0.94720663  0.94665231  0.60582993  1.0
  C  C37  1  0.44752058  0.44696278  0.60583227  1.0
  C  C38  1  0.47055001  0.40648898  0.55331305  1.0
  C  C39  1  0.46738574  0.01987730  0.93942353  1.0
  C  C40  1  0.04070057  0.59319246  0.93938997  1.0
  C  C41  1  0.88985222  0.61096324  0.00141300  1.0
  C  C42  1  0.04019833  0.97614168  0.55331283  1.0
  C  C43  1  0.52245465  0.45879825  0.44674348  1.0
  C  C44  1  0.52169523  0.96723786  0.93843449  1.0
  C  C45  1  0.09432942  0.53987402  0.93839514  1.0
  C  C46  1  0.09446059  0.03080592  0.44673882  1.0
  C  C47  1  0.38762241  0.10873086  0.00141429  1.0
  C  C48  1  0.55188074  0.55212955  0.39172727  1.0
  C  C49  1  0.55436090  0.94570164  0.99886693  1.0
  C  C50  1  0.05542522  0.44676874  0.99886545  1.0
  C  C51  1  0.05614476  0.05639044  0.39172911  1.0
  C  C52  1  0.39224440  0.39062436  0.72027030  1.0
  C  C53  1  0.94910764  0.03461971  0.96182976  1.0
  C  C54  1  0.00354864  0.08906207  0.96183116  1.0
  C  C55  1  0.05421270  0.05409228  0.00007762  1.0
  C  C56  1  0.94583269  0.94570886  0.00007650  1.0
  C  C57  1  0.05100838  0.96522423  0.03821592  1.0
  C  C58  1  0.99656230  0.91077595  0.03821443  1.0
  C  C59  1  0.60851983  0.60877545  0.27723225  1.0
  C  C60  1  0.61325914  0.88969677  0.99727648  1.0
  C  C61  1  0.11302509  0.38946613  0.99727305  1.0
  C  C62  1  0.11398910  0.11424563  0.27723091  1.0
  C  C63  1  0.88738829  0.88716861  0.99992285  1.0
  C  C64  1  0.11290642  0.11268974  0.99992388  1.0
  C  C65  1  0.60635998  0.60999489  0.00350902  1.0
  C  C66  1  0.38649393  0.39013474  0.00350830  1.0
  C  C67  1  0.48176180  0.60130256  0.97732733  1.0
  C  C68  1  0.48141770  0.45975986  0.11921108  1.0
  C  C69  1  0.42103122  0.39937056  0.11921038  1.0
  C  C70  1  0.42136786  0.54091090  0.97733098  1.0
  C  C71  1  0.59493515  0.52951007  0.93513521  1.0
  C  C72  1  0.53535429  0.46993112  0.93513447  1.0
  C  C73  1  0.53638453  0.55106176  0.01439751  1.0
  C  C74  1  0.43454033  0.44921680  0.01439840  1.0
  C  C75  1  0.52849798  0.59262719  0.44424015  1.0
  C  C76  1  0.53167605  0.97668713  0.06091097  1.0
  C  C77  1  0.96239628  0.40741332  0.06093803  1.0
  C  C78  1  0.96313285  0.02726169  0.44423804  1.0
  C  C79  1  0.47651216  0.54032321  0.55074233  1.0
  C  C80  1  0.47727694  0.02915963  0.06201458  1.0
  C  C81  1  0.90882148  0.46070709  0.06204355  1.0
  I  I82  1  0.42164502  0.67430745  0.04370256  1.0
  I  I83  1  0.01301174  0.22331596  0.90434922  1.0
  I  I84  1  0.87233814  0.08263722  0.90434326  1.0
  I  I85  1  0.12825374  0.91724539  0.09499728  1.0
  I  I86  1  0.98776753  0.77675213  0.09498904  1.0
  I  I87  1  0.42115438  0.46699727  0.25145469  1.0
  I  I88  1  0.28155224  0.32738032  0.25145935  1.0
  I  I89  1  0.28198765  0.53465465  0.04371627  1.0
  O  O90  1  0.74942909  0.74845595  0.99905769  1.0
  O  O91  1  0.80588175  0.57065038  0.05864209  1.0
  O  O92  1  0.37071539  0.13548137  0.05863501  1.0
  O  O93  1  0.36815650  0.43122427  0.76383605  1.0
  O  O94  1  0.63482848  0.56868064  0.23327480  1.0
  O  O95  1  0.63239221  0.86470827  0.93817439  1.0
  O  O96  1  0.19711622  0.42943536  0.93816024  1.0
  O  O97  1  0.19804726  0.13189792  0.23327017  1.0
  O  O98  1  0.25248385  0.25151375  0.99906052  1.0
  O  O99  1  0.92902007  0.69534011  0.94432534  1.0
  O  O100  1  0.92825730  0.86086022  0.76540149  1.0
  O  O101  1  0.37373858  0.30634247  0.76540589  1.0
  O  O102  1  0.36032160  0.12664322  0.94433850  1.0
  O  O103  1  0.63980536  0.87173845  0.05503094  1.0
  O  O104  1  0.62620502  0.69293793  0.23266793  1.0
  O  O105  1  0.07439228  0.14112084  0.23266936  1.0
  O  O106  1  0.07322702  0.30516197  0.05503838  1.0
  O  O107  1  0.92646431  0.87934330  0.92591600  1.0
  O  O108  1  0.19473942  0.14762253  0.92591938  1.0
  O  O109  1  0.63510897  0.69311445  0.93449824  1.0
  O  O110  1  0.63441786  0.56962350  0.05868163  1.0
  O  O111  1  0.37170052  0.30690146  0.05867407  1.0
  O  O112  1  0.37237410  0.43039495  0.93451078  1.0
  O  O113  1  0.80547999  0.85205062  0.07370974  1.0
  O  O114  1  0.80494256  0.86801973  0.76383797  1.0
  O  O115  1  0.07423272  0.12081146  0.07371221  1.0
