# generated using pymatgen
data_ZnH20C20BrN9O4
_symmetry_space_group_name_H-M   'P 1'
_cell_length_a   11.03023721
_cell_length_b   16.61444156
_cell_length_c   17.67555066
_cell_angle_alpha   95.19580865
_cell_angle_beta   90.81765959
_cell_angle_gamma   92.04748759
_symmetry_Int_Tables_number   1
_chemical_formula_structural   ZnH20C20BrN9O4
_chemical_formula_sum   'Zn2 H40 C40 Br2 N18 O8'
_cell_volume   3223.37489956
_cell_formula_units_Z   2
loop_
 _symmetry_equiv_pos_site_id
 _symmetry_equiv_pos_as_xyz
  1  'x, y, z'
loop_
 _atom_site_type_symbol
 _atom_site_label
 _atom_site_symmetry_multiplicity
 _atom_site_fract_x
 _atom_site_fract_y
 _atom_site_fract_z
 _atom_site_occupancy
  Zn  Zn0  1  0.49553541  0.41815979  0.49685901  1.0
  Zn  Zn1  1  0.50366037  0.59996998  0.50619827  1.0
  H  H2  1  0.53452193  0.00887408  0.59308717  1.0
  H  H3  1  0.45722665  0.00861754  0.42534248  1.0
  H  H4  1  0.41091790  0.42627912  0.00398386  1.0
  H  H5  1  0.59958038  0.56622689  0.00220196  1.0
  H  H6  1  0.77172899  0.52239336  0.36366255  1.0
  H  H7  1  0.88292441  0.52477741  0.24398410  1.0
  H  H8  1  0.22298159  0.50713334  0.36322591  1.0
  H  H9  1  0.10915126  0.51518781  0.24366009  1.0
  H  H10  1  0.69574230  0.67314750  0.57224354  1.0
  H  H11  1  0.75362035  0.76610676  0.60771449  1.0
  H  H12  1  0.69844821  0.87424856  0.66093252  1.0
  H  H13  1  0.75253271  0.92132058  0.58824002  1.0
  H  H14  1  0.31222031  0.66236180  0.44823283  1.0
  H  H15  1  0.25991969  0.74962117  0.41750099  1.0
  H  H16  1  0.32130909  0.86252700  0.37874567  1.0
  H  H17  1  0.24633278  0.88740158  0.45752051  1.0
  H  H18  1  0.67621502  0.07809764  0.56503974  1.0
  H  H19  1  0.75218728  0.16784807  0.56854196  1.0
  H  H20  1  0.68741382  0.27683220  0.62711688  1.0
  H  H21  1  0.65402827  0.36151184  0.58669120  1.0
  H  H22  1  0.29843090  0.06121576  0.41574685  1.0
  H  H23  1  0.29133825  0.13504542  0.35750685  1.0
  H  H24  1  0.29952928  0.34502970  0.43631580  1.0
  H  H25  1  0.23568205  0.25241426  0.40989505  1.0
  H  H26  1  0.49431983  0.35303444  0.31792720  1.0
  H  H27  1  0.57234393  0.31244552  0.24279836  1.0
  H  H28  1  0.53998229  0.32887909  0.06359421  1.0
  H  H29  1  0.47330328  0.29204882  0.13956551  1.0
  H  H30  1  0.49055767  0.64606785  0.32464111  1.0
  H  H31  1  0.41694528  0.67792124  0.24941502  1.0
  H  H32  1  0.45683246  0.63063339  0.06161891  1.0
  H  H33  1  0.49041890  0.68463119  0.14661260  1.0
  H  H34  1  0.51963757  0.36868798  0.93030860  1.0
  H  H35  1  0.52305164  0.32391040  0.84080222  1.0
  H  H36  1  0.45649843  0.37241660  0.67012364  1.0
  H  H37  1  0.39720193  0.33655672  0.74964772  1.0
  H  H38  1  0.60132195  0.66722224  0.95197507  1.0
  H  H39  1  0.55516067  0.71314567  0.87516742  1.0
  H  H40  1  0.53977937  0.66357676  0.69409187  1.0
  H  H41  1  0.63292139  0.69431850  0.76774960  1.0
  C  C42  1  0.49495401  0.50308167  0.35398862  1.0
  C  C43  1  0.26179669  0.50505512  0.50440066  1.0
  C  C44  1  0.50412591  0.51847752  0.64953690  1.0
  C  C45  1  0.73537820  0.51002087  0.50230002  1.0
  C  C46  1  0.41951982  0.76528976  0.47492684  1.0
  C  C47  1  0.41979444  0.85043266  0.47606013  1.0
  C  C48  1  0.50550533  0.89666592  0.52329393  1.0
  C  C49  1  0.59055888  0.85613965  0.56453468  1.0
  C  C50  1  0.59115407  0.77077503  0.55520569  1.0
  C  C51  1  0.50898785  0.98514886  0.53514099  1.0
  C  C52  1  0.48438472  0.03584858  0.48184784  1.0
  C  C53  1  0.39811404  0.16383712  0.45244879  1.0
  C  C54  1  0.48686655  0.12398134  0.49166809  1.0
  C  C55  1  0.57644688  0.17120462  0.53482685  1.0
  C  C56  1  0.57433740  0.25623945  0.53662773  1.0
  C  C57  1  0.40146453  0.24880348  0.45677069  1.0
  C  C58  1  0.49423357  0.49688091  0.26992703  1.0
  C  C59  1  0.49225875  0.56806691  0.23007297  1.0
  C  C60  1  0.49470699  0.56189898  0.14991686  1.0
  C  C61  1  0.48944107  0.48496126  0.10825021  1.0
  C  C62  1  0.48908927  0.41478533  0.14761167  1.0
  C  C63  1  0.49542207  0.41948338  0.22752868  1.0
  C  C64  1  0.47647770  0.47433314  0.02539988  1.0
  C  C65  1  0.53493721  0.51994547  0.97633161  1.0
  C  C66  1  0.53656398  0.59037756  0.85985994  1.0
  C  C67  1  0.52234166  0.51661822  0.89395916  1.0
  C  C68  1  0.50015667  0.44407576  0.84705146  1.0
  C  C69  1  0.48944900  0.44466056  0.76748070  1.0
  C  C70  1  0.50753945  0.51845480  0.73312957  1.0
  C  C71  1  0.53233072  0.59171291  0.78039922  1.0
  C  C72  1  0.87168819  0.51076520  0.50394680  1.0
  C  C73  1  0.93344753  0.51341461  0.43394424  1.0
  C  C74  1  0.93513449  0.50801548  0.57157919  1.0
  C  C75  1  0.87030318  0.51891586  0.36405521  1.0
  C  C76  1  0.93272852  0.52030496  0.29708914  1.0
  C  C77  1  0.12586242  0.50742003  0.50482647  1.0
  C  C78  1  0.06381007  0.50688883  0.57224935  1.0
  C  C79  1  0.06302504  0.51070588  0.43421737  1.0
  C  C80  1  0.12450834  0.51095010  0.36402619  1.0
  C  C81  1  0.06055427  0.51550394  0.29699381  1.0
  Br  Br82  1  0.15301711  0.50732205  0.66498842  1.0
  Br  Br83  1  0.84692368  0.50463315  0.66314614  1.0
  N  N84  1  0.50525281  0.72604195  0.51235773  1.0
  N  N85  1  0.48975468  0.29387746  0.49723838  1.0
  N  N86  1  0.67825060  0.73156429  0.59203691  1.0
  N  N87  1  0.67612917  0.90162815  0.61372975  1.0
  N  N88  1  0.33314560  0.71913372  0.43251584  1.0
  N  N89  1  0.32989400  0.88832262  0.43325907  1.0
  N  N90  1  0.67043727  0.13903801  0.57593262  1.0
  N  N91  1  0.66482421  0.30078948  0.57804817  1.0
  N  N92  1  0.29942620  0.12211409  0.41265008  1.0
  N  N93  1  0.31427789  0.28638172  0.41734069  1.0
  N  N94  1  0.50007730  0.34552417  0.26019181  1.0
  N  N95  1  0.47982850  0.33852258  0.10607345  1.0
  N  N96  1  0.48867472  0.64669236  0.26689470  1.0
  N  N97  1  0.50040137  0.63281420  0.11288431  1.0
  N  N98  1  0.48691507  0.36846769  0.87620487  1.0
  N  N99  1  0.46567076  0.36903399  0.72712691  1.0
  N  N100  1  0.54602051  0.66423389  0.90534988  1.0
  N  N101  1  0.55064144  0.66762005  0.75179980  1.0
  O  O102  1  0.46632899  0.43942295  0.38719828  1.0
  O  O103  1  0.52309532  0.57132321  0.39160424  1.0
  O  O104  1  0.31871496  0.57100777  0.49409043  1.0
  O  O105  1  0.30839084  0.43786119  0.51230926  1.0
  O  O106  1  0.48663533  0.58447063  0.61928307  1.0
  O  O107  1  0.52005295  0.45102320  0.60948931  1.0
  O  O108  1  0.68102880  0.44292662  0.48350018  1.0
  O  O109  1  0.68700206  0.57777842  0.51810580  1.0
