# generated using pymatgen
data_ZnH15C23N2O5
_symmetry_space_group_name_H-M   'P 1'
_cell_length_a   14.31669923
_cell_length_b   14.31670879
_cell_length_c   16.26342709
_cell_angle_alpha   101.86763902
_cell_angle_beta   101.86763978
_cell_angle_gamma   117.13505511
_symmetry_Int_Tables_number   1
_chemical_formula_structural   ZnH15C23N2O5
_chemical_formula_sum   'Zn4 H60 C92 N8 O20'
_cell_volume   2726.16693382
_cell_formula_units_Z   4
loop_
 _symmetry_equiv_pos_site_id
 _symmetry_equiv_pos_as_xyz
  1  'x, y, z'
loop_
 _atom_site_type_symbol
 _atom_site_label
 _atom_site_symmetry_multiplicity
 _atom_site_fract_x
 _atom_site_fract_y
 _atom_site_fract_z
 _atom_site_occupancy
  Zn  Zn0  1  0.56476213  0.59545362  0.36166760  1.0
  Zn  Zn1  1  0.40454583  0.43523864  0.13833212  1.0
  Zn  Zn2  1  0.43523893  0.40454632  0.63833267  1.0
  Zn  Zn3  1  0.59545495  0.56476213  0.86166764  1.0
  H  H4  1  0.61865402  0.30988914  0.37950822  1.0
  H  H5  1  0.72160385  0.20806597  0.38720126  1.0
  H  H6  1  0.98996284  0.46977024  0.34107915  1.0
  H  H7  1  0.88724295  0.57077984  0.33536988  1.0
  H  H8  1  0.92611371  0.22143329  0.20936773  1.0
  H  H9  1  0.10501151  0.30221021  0.17446879  1.0
  H  H10  1  0.29177231  0.49167497  0.45378406  1.0
  H  H11  1  0.11390806  0.41131160  0.48811154  1.0
  H  H12  1  0.49142134  0.61581309  0.51827753  1.0
  H  H13  1  0.57853287  0.71342604  0.68342579  1.0
  H  H14  1  0.89499872  0.89390224  0.64625517  1.0
  H  H15  1  0.79484688  0.78664450  0.48091012  1.0
  H  H16  1  0.73965570  0.84074059  0.81319236  1.0
  H  H17  1  0.07912534  0.92244796  0.90266856  1.0
  H  H18  1  0.83398285  0.00993701  0.93156212  1.0
  H  H19  1  0.69010937  0.38134572  0.12049174  1.0
  H  H20  1  0.79193189  0.27839566  0.11279854  1.0
  H  H21  1  0.53022797  0.01003762  0.15892149  1.0
  H  H22  1  0.42921862  0.11275654  0.16463065  1.0
  H  H23  1  0.77856711  0.07388642  0.29063139  1.0
  H  H24  1  0.69778996  0.89498900  0.32553164  1.0
  H  H25  1  0.50832417  0.70822780  0.04621673  1.0
  H  H26  1  0.58868622  0.88609134  0.01188828  1.0
  H  H27  1  0.38418736  0.50857891  0.98172250  1.0
  H  H28  1  0.28657437  0.42146731  0.81657422  1.0
  H  H29  1  0.10609840  0.10500187  0.85374434  1.0
  H  H30  1  0.21335546  0.20515316  0.01909018  1.0
  H  H31  1  0.15925863  0.26034403  0.68680735  1.0
  H  H32  1  0.07755301  0.92087660  0.59733129  1.0
  H  H33  1  0.99006316  0.16601746  0.56843720  1.0
  H  H34  1  0.38134574  0.69010829  0.62049259  1.0
  H  H35  1  0.27839749  0.79193313  0.61279953  1.0
  H  H36  1  0.01003592  0.53022802  0.65892040  1.0
  H  H37  1  0.11275438  0.42921842  0.66463004  1.0
  H  H38  1  0.07388707  0.77856748  0.79063203  1.0
  H  H39  1  0.89498883  0.69778972  0.82553136  1.0
  H  H40  1  0.70822832  0.50832412  0.54621599  1.0
  H  H41  1  0.88609213  0.58868666  0.51188828  1.0
  H  H42  1  0.50857857  0.38418601  0.48172301  1.0
  H  H43  1  0.42146677  0.28657390  0.31657484  1.0
  H  H44  1  0.10500134  0.10609853  0.35374447  1.0
  H  H45  1  0.20515204  0.21335543  0.51909038  1.0
  H  H46  1  0.26034393  0.15925935  0.18680827  1.0
  H  H47  1  0.92087544  0.07755281  0.09733182  1.0
  H  H48  1  0.16601721  0.99006376  0.06843812  1.0
  H  H49  1  0.30989141  0.61865505  0.87950802  1.0
  H  H50  1  0.20806731  0.72160343  0.88720125  1.0
  H  H51  1  0.46977138  0.98996314  0.84107863  1.0
  H  H52  1  0.57078116  0.88724506  0.83537032  1.0
  H  H53  1  0.22143367  0.92611435  0.70936837  1.0
  H  H54  1  0.30221082  0.10501177  0.67446874  1.0
  H  H55  1  0.49167589  0.29177296  0.95378352  1.0
  H  H56  1  0.41131412  0.11390859  0.98811187  1.0
  H  H57  1  0.61581270  0.49142185  0.01827713  1.0
  H  H58  1  0.71342713  0.57853346  0.18342568  1.0
  H  H59  1  0.89390166  0.89499890  0.14625591  1.0
  H  H60  1  0.78664504  0.79484844  0.98091030  1.0
  H  H61  1  0.84074128  0.73965507  0.31319195  1.0
  H  H62  1  0.92244749  0.07912501  0.40266796  1.0
  H  H63  1  0.00993690  0.83398330  0.43156243  1.0
  C  C64  1  0.74686245  0.44722225  0.35722317  1.0
  C  C65  1  0.70033214  0.34465751  0.37173622  1.0
  C  C66  1  0.75711394  0.28786066  0.37617167  1.0
  C  C67  1  0.86145901  0.33310307  0.36504345  1.0
  C  C68  1  0.90906896  0.43505484  0.35001041  1.0
  C  C69  1  0.85143649  0.49106171  0.34648759  1.0
  C  C70  1  0.69014904  0.51207083  0.35596745  1.0
  C  C71  1  0.01240989  0.31324005  0.35017699  1.0
  C  C72  1  0.00714969  0.28027877  0.26170512  1.0
  C  C73  1  0.10593411  0.32552470  0.24286563  1.0
  C  C74  1  0.20861245  0.40263681  0.31172741  1.0
  C  C75  1  0.21179151  0.43250452  0.40042331  1.0
  C  C76  1  0.11348277  0.38750907  0.41997892  1.0
  C  C77  1  0.31404151  0.45086427  0.29032909  1.0
  C  C78  1  0.58011114  0.67921319  0.54896727  1.0
  C  C79  1  0.62904613  0.73483882  0.64084377  1.0
  C  C80  1  0.74438739  0.81266353  0.67764939  1.0
  C  C81  1  0.80530854  0.83401972  0.61931536  1.0
  C  C82  1  0.75028765  0.77540595  0.52832919  1.0
  C  C83  1  0.79715869  0.86202757  0.77507231  1.0
  C  C84  1  0.94973782  0.95954990  0.90617301  1.0
  C  C85  1  0.04505032  0.95658458  0.94588278  1.0
  C  C86  1  0.90612760  0.00481865  0.96172264  1.0
  C  C87  1  0.55277678  0.25313713  0.14277624  1.0
  C  C88  1  0.65534012  0.29966719  0.12826351  1.0
  C  C89  1  0.71213732  0.24288601  0.12382761  1.0
  C  C90  1  0.66689539  0.13854070  0.13495648  1.0
  C  C91  1  0.56494405  0.09093139  0.14998910  1.0
  C  C92  1  0.50893637  0.14856346  0.15351295  1.0
  C  C93  1  0.48792588  0.30985043  0.14403215  1.0
  C  C94  1  0.68675757  0.98758991  0.14982286  1.0
  C  C95  1  0.71972105  0.99285135  0.23829535  1.0
  C  C96  1  0.67447504  0.89406653  0.25713475  1.0
  C  C97  1  0.59736251  0.79138822  0.18827351  1.0
  C  C98  1  0.56749379  0.78820819  0.09957726  1.0
  C  C99  1  0.61248937  0.88651807  0.08002187  1.0
  C  C100  1  0.54913543  0.68595954  0.20967135  1.0
  C  C101  1  0.32078718  0.41988882  0.95103208  1.0
  C  C102  1  0.26516124  0.37095367  0.85915611  1.0
  C  C103  1  0.18733648  0.25561285  0.82235055  1.0
  C  C104  1  0.16598122  0.19469285  0.88068557  1.0
  C  C105  1  0.22459532  0.24971355  0.97167054  1.0
  C  C106  1  0.13797243  0.20284182  0.72492768  1.0
  C  C107  1  0.04044945  0.05026192  0.59382611  1.0
  C  C108  1  0.04341591  0.95494987  0.55411667  1.0
  C  C109  1  0.99518091  0.09387232  0.53827650  1.0
  C  C110  1  0.25313559  0.55277601  0.64277626  1.0
  C  C111  1  0.29966690  0.65533992  0.62826385  1.0
  C  C112  1  0.24288553  0.71213760  0.62382801  1.0
  C  C113  1  0.13854090  0.66689602  0.63495646  1.0
  C  C114  1  0.09093024  0.56494426  0.64998937  1.0
  C  C115  1  0.14856112  0.50893571  0.65351161  1.0
  C  C116  1  0.30984885  0.48792576  0.64403227  1.0
  C  C117  1  0.98759117  0.68675988  0.64982329  1.0
  C  C118  1  0.99284951  0.71972032  0.73829405  1.0
  C  C119  1  0.89406580  0.67447440  0.75713429  1.0
  C  C120  1  0.79138818  0.59736228  0.68827264  1.0
  C  C121  1  0.78820911  0.56749458  0.59957674  1.0
  C  C122  1  0.88651857  0.61249003  0.58002125  1.0
  C  C123  1  0.68595883  0.54913567  0.70967044  1.0
  C  C124  1  0.41988877  0.32078591  0.45103265  1.0
  C  C125  1  0.37095307  0.26516028  0.35915664  1.0
  C  C126  1  0.25561224  0.18733640  0.32235124  1.0
  C  C127  1  0.19469224  0.16598105  0.38068563  1.0
  C  C128  1  0.24971313  0.22459482  0.47167057  1.0
  C  C129  1  0.20284094  0.13797236  0.22492771  1.0
  C  C130  1  0.05026066  0.04044919  0.09382665  1.0
  C  C131  1  0.95494816  0.04341451  0.05411688  1.0
  C  C132  1  0.09387231  0.99518044  0.03827666  1.0
  C  C133  1  0.44722400  0.74686364  0.85722352  1.0
  C  C134  1  0.34465994  0.70033358  0.87173612  1.0
  C  C135  1  0.28786274  0.75711476  0.87617141  1.0
  C  C136  1  0.33310381  0.86145840  0.86504269  1.0
  C  C137  1  0.43505602  0.90906938  0.85000991  1.0
  C  C138  1  0.49106342  0.85143815  0.84648679  1.0
  C  C139  1  0.51207462  0.69015117  0.85596771  1.0
  C  C140  1  0.31324206  0.01241002  0.85017716  1.0
  C  C141  1  0.28028016  0.00715025  0.76170526  1.0
  C  C142  1  0.32552617  0.10593507  0.74286586  1.0
  C  C143  1  0.40263756  0.20861255  0.81172735  1.0
  C  C144  1  0.43250584  0.21179175  0.90042337  1.0
  C  C145  1  0.38751069  0.11348270  0.91997837  1.0
  C  C146  1  0.45086507  0.31404206  0.79032974  1.0
  C  C147  1  0.67921388  0.58011112  0.04896758  1.0
  C  C148  1  0.73484053  0.62904626  0.14084368  1.0
  C  C149  1  0.81266486  0.74438625  0.17764901  1.0
  C  C150  1  0.83401956  0.80530792  0.11931481  1.0
  C  C151  1  0.77540546  0.75028722  0.02832984  1.0
  C  C152  1  0.86202820  0.79715728  0.27507236  1.0
  C  C153  1  0.95954946  0.94973801  0.40617255  1.0
  C  C154  1  0.95658344  0.04505090  0.44588160  1.0
  C  C155  1  0.00481900  0.90612678  0.46172280  1.0
  N  N156  1  0.63940796  0.69820460  0.49334006  1.0
  N  N157  1  0.90424698  0.91828800  0.81279185  1.0
  N  N158  1  0.30179603  0.36059220  0.00666039  1.0
  N  N159  1  0.08171061  0.09575189  0.68720759  1.0
  N  N160  1  0.36059167  0.30179533  0.50666058  1.0
  N  N161  1  0.09575150  0.08171109  0.18720780  1.0
  N  N162  1  0.69820474  0.63940856  0.99333999  1.0
  N  N163  1  0.91828930  0.90424721  0.31279233  1.0
  O  O164  1  0.91297416  0.27194034  0.36925488  1.0
  O  O165  1  0.58883365  0.46567164  0.35717530  1.0
  O  O166  1  0.74099520  0.61096495  0.35571514  1.0
  O  O167  1  0.40437025  0.52404451  0.35475836  1.0
  O  O168  1  0.30434694  0.41370558  0.20882324  1.0
  O  O169  1  0.72805739  0.08702575  0.13074434  1.0
  O  O170  1  0.53432669  0.41116617  0.14282527  1.0
  O  O171  1  0.38903211  0.25900464  0.14428275  1.0
  O  O172  1  0.47595556  0.59563003  0.14524139  1.0
  O  O173  1  0.58629510  0.69565370  0.29117730  1.0
  O  O174  1  0.08702690  0.72805959  0.63074478  1.0
  O  O175  1  0.41116539  0.53432578  0.64282723  1.0
  O  O176  1  0.25900083  0.38903080  0.64428162  1.0
  O  O177  1  0.59563052  0.47595626  0.64524079  1.0
  O  O178  1  0.69565383  0.58629519  0.79117652  1.0
  O  O179  1  0.27194152  0.91297418  0.86925493  1.0
  O  O180  1  0.46567452  0.58883544  0.85717472  1.0
  O  O181  1  0.61096910  0.74099696  0.85571663  1.0
  O  O182  1  0.52404521  0.40437074  0.85475898  1.0
  O  O183  1  0.41370425  0.30434707  0.70882404  1.0
