# generated using pymatgen
data_ZnH7C26N6ClO14
_symmetry_space_group_name_H-M   'P 1'
_cell_length_a   14.76807250
_cell_length_b   16.03632939
_cell_length_c   23.75578503
_cell_angle_alpha   89.90932288
_cell_angle_beta   90.16470571
_cell_angle_gamma   89.90963177
_symmetry_Int_Tables_number   1
_chemical_formula_structural   ZnH7C26N6ClO14
_chemical_formula_sum   'Zn2 H14 C52 N12 Cl2 O28'
_cell_volume   5625.94249716
_cell_formula_units_Z   2
loop_
 _symmetry_equiv_pos_site_id
 _symmetry_equiv_pos_as_xyz
  1  'x, y, z'
loop_
 _atom_site_type_symbol
 _atom_site_label
 _atom_site_symmetry_multiplicity
 _atom_site_fract_x
 _atom_site_fract_y
 _atom_site_fract_z
 _atom_site_occupancy
  Zn  Zn0  1  0.40621909  0.49985560  0.49989756  1.0
  Zn  Zn1  1  0.59424915  0.50023624  0.50029315  1.0
  H  H2  1  0.62667064  0.45143998  0.78899513  1.0
  H  H3  1  0.62224644  0.55927656  0.21160945  1.0
  H  H4  1  0.35948239  0.53368420  0.67538045  1.0
  H  H5  1  0.36560787  0.45284749  0.32427405  1.0
  H  H6  1  0.58163175  0.94811479  0.41707641  1.0
  H  H7  1  0.41906059  0.05217122  0.58241444  1.0
  H  H8  1  0.42748824  0.05351523  0.41413977  1.0
  H  H9  1  0.57282059  0.94626283  0.58538031  1.0
  H  H10  1  0.65760247  0.04903582  0.50340198  1.0
  H  H11  1  0.34295633  0.95101678  0.49629087  1.0
  H  H12  1  0.05597993  0.61210649  0.43924376  1.0
  H  H13  1  0.94471926  0.38783623  0.56129119  1.0
  H  H14  1  0.05727625  0.36649870  0.46458145  1.0
  H  H15  1  0.94340459  0.63355377  0.53596016  1.0
  C  C16  1  0.50191504  0.66052485  0.49951349  1.0
  C  C17  1  0.50184768  0.33955041  0.50078483  1.0
  C  C18  1  0.49807305  0.49782158  0.60906763  1.0
  C  C19  1  0.49902234  0.50216709  0.39106554  1.0
  C  C20  1  0.49665802  0.42480310  0.12326384  1.0
  C  C21  1  0.48680281  0.57295621  0.87685056  1.0
  C  C22  1  0.47461807  0.57950063  0.12116649  1.0
  C  C23  1  0.48203306  0.41703409  0.87893575  1.0
  C  C24  1  0.47926981  0.57691082  0.05874142  1.0
  C  C25  1  0.48703092  0.42001073  0.94136075  1.0
  C  C26  1  0.48362951  0.49935014  0.03006901  1.0
  C  C27  1  0.48330568  0.49758587  0.97002923  1.0
  C  C28  1  0.48896338  0.42360256  0.06097242  1.0
  C  C29  1  0.47995170  0.57345277  0.93914310  1.0
  C  C30  1  0.47609460  0.65007178  0.02748399  1.0
  C  C31  1  0.49209938  0.34691555  0.97263202  1.0
  C  C32  1  0.47464814  0.64832157  0.96824488  1.0
  C  C33  1  0.49129713  0.34858216  0.03187375  1.0
  C  C34  1  0.56799798  0.46977775  0.76399316  1.0
  C  C35  1  0.56597394  0.53554492  0.23642861  1.0
  C  C36  1  0.57350684  0.46970667  0.70521560  1.0
  C  C37  1  0.57127913  0.53641400  0.29525185  1.0
  C  C38  1  0.49838922  0.49397612  0.67244652  1.0
  C  C39  1  0.49920026  0.50539356  0.32768406  1.0
  C  C40  1  0.41864027  0.51617631  0.70019152  1.0
  C  C41  1  0.42255191  0.47565652  0.29972372  1.0
  C  C42  1  0.41283310  0.51573629  0.75855094  1.0
  C  C43  1  0.41686742  0.47503467  0.24132639  1.0
  C  C44  1  0.48860716  0.49284004  0.79092116  1.0
  C  C45  1  0.48976580  0.50480865  0.20922853  1.0
  C  C46  1  0.45964033  0.02886768  0.45219142  1.0
  C  C47  1  0.54086875  0.97120016  0.54734813  1.0
  C  C48  1  0.54571779  0.97210395  0.45383432  1.0
  C  C49  1  0.45489147  0.02797006  0.54569146  1.0
  C  C50  1  0.50094097  0.75029632  0.49944871  1.0
  C  C51  1  0.50208248  0.24976445  0.50093804  1.0
  C  C52  1  0.41276723  0.97357418  0.49781414  1.0
  C  C53  1  0.58781372  0.02644740  0.50175793  1.0
  C  C54  1  0.49863744  0.91439334  0.49933863  1.0
  C  C55  1  0.50201966  0.08566214  0.50004029  1.0
  C  C56  1  0.49922631  0.82628405  0.49939645  1.0
  C  C57  1  0.50218218  0.17376676  0.50061010  1.0
  C  C58  1  0.03100854  0.56283298  0.46685684  1.0
  C  C59  1  0.96959923  0.43717214  0.53369819  1.0
  C  C60  1  0.97115860  0.48807545  0.44745905  1.0
  C  C61  1  0.02943497  0.51194587  0.55311784  1.0
  C  C62  1  0.96884547  0.57448666  0.51954798  1.0
  C  C63  1  0.03176570  0.42553154  0.48102094  1.0
  C  C64  1  0.90698526  0.49962405  0.49967452  1.0
  C  C65  1  0.09356564  0.50040666  0.50090064  1.0
  C  C66  1  0.81102776  0.49937184  0.49939273  1.0
  C  C67  1  0.18951021  0.50065520  0.50114200  1.0
  N  N68  1  0.49053321  0.50352492  0.14872959  1.0
  N  N69  1  0.48920620  0.49410770  0.85140898  1.0
  N  N70  1  0.73261978  0.49963944  0.50093719  1.0
  N  N71  1  0.26790257  0.50036770  0.49956891  1.0
  N  N72  1  0.47703970  0.73336591  0.05520278  1.0
  N  N73  1  0.50165699  0.26409488  0.94489850  1.0
  N  N74  1  0.94375289  0.47485673  0.38832877  1.0
  N  N75  1  0.05684560  0.52501050  0.61228775  1.0
  N  N76  1  0.46711105  0.72977964  0.93832481  1.0
  N  N77  1  0.49304360  0.26691424  0.06184520  1.0
  N  N78  1  0.32537969  0.53871079  0.78396941  1.0
  N  N79  1  0.33239816  0.44388231  0.21583276  1.0
  Cl  Cl80  1  0.67379575  0.43625376  0.67634244  1.0
  Cl  Cl81  1  0.66676934  0.57873250  0.32498215  1.0
  O  O82  1  0.42743961  0.62428532  0.51139933  1.0
  O  O83  1  0.57632860  0.37556086  0.51318246  1.0
  O  O84  1  0.57695479  0.62509220  0.48765846  1.0
  O  O85  1  0.42713530  0.37528503  0.48822539  1.0
  O  O86  1  0.42288864  0.48126932  0.58549474  1.0
  O  O87  1  0.57268417  0.48248521  0.41515083  1.0
  O  O88  1  0.57133146  0.51863006  0.58524530  1.0
  O  O89  1  0.42344400  0.51784865  0.41423938  1.0
  O  O90  1  0.50892105  0.36196064  0.15161472  1.0
  O  O91  1  0.49157864  0.63660042  0.84848064  1.0
  O  O92  1  0.45824357  0.64318975  0.14761263  1.0
  O  O93  1  0.47260865  0.35223498  0.85242757  1.0
  O  O94  1  0.55124404  0.75736809  0.07226004  1.0
  O  O95  1  0.40461293  0.77145389  0.05557107  1.0
  O  O96  1  0.57787231  0.24671450  0.92774350  1.0
  O  O97  1  0.43363860  0.21983846  0.94458739  1.0
  O  O98  1  0.00743520  0.46720669  0.35504779  1.0
  O  O99  1  0.86197975  0.47273536  0.37757280  1.0
  O  O100  1  0.99301597  0.53291027  0.64545314  1.0
  O  O101  1  0.13853941  0.52663664  0.62315117  1.0
  O  O102  1  0.53720161  0.77125336  0.93601970  1.0
  O  O103  1  0.39114353  0.74923517  0.92173210  1.0
  O  O104  1  0.56730011  0.23182425  0.06394495  1.0
  O  O105  1  0.41980240  0.24090927  0.07869187  1.0
  O  O106  1  0.31153814  0.51780687  0.83363570  1.0
  O  O107  1  0.27040910  0.57646092  0.75391136  1.0
  O  O108  1  0.31732930  0.46063838  0.16555580  1.0
  O  O109  1  0.28056182  0.40377364  0.24643982  1.0
