# generated using pymatgen
data_La2H40C52O19
_symmetry_space_group_name_H-M   'P 1'
_cell_length_a   7.39752120
_cell_length_b   14.46486926
_cell_length_c   16.97721374
_cell_angle_alpha   104.03838264
_cell_angle_beta   102.59812728
_cell_angle_gamma   89.99637392
_symmetry_Int_Tables_number   1
_chemical_formula_structural   La2H40C52O19
_chemical_formula_sum   'La2 H40 C52 O19'
_cell_volume   1717.26387855
_cell_formula_units_Z   1
loop_
 _symmetry_equiv_pos_site_id
 _symmetry_equiv_pos_as_xyz
  1  'x, y, z'
loop_
 _atom_site_type_symbol
 _atom_site_label
 _atom_site_symmetry_multiplicity
 _atom_site_fract_x
 _atom_site_fract_y
 _atom_site_fract_z
 _atom_site_occupancy
  La  La0  1  0.50584795  0.96408174  0.50044689  1.0
  La  La1  1  0.00535929  0.03578108  0.49951893  1.0
  H  H2  1  0.29378900  0.53326884  0.10530434  1.0
  H  H3  1  0.18823483  0.46681809  0.89477032  1.0
  H  H4  1  0.31544504  0.42697505  0.02783894  1.0
  H  H5  1  0.28746119  0.57316042  0.97213070  1.0
  H  H6  1  0.88869708  0.49517157  0.10526905  1.0
  H  H7  1  0.78311806  0.50502527  0.89461091  1.0
  H  H8  1  0.91552085  0.42015468  0.17694696  1.0
  H  H9  1  0.73841834  0.57995866  0.82285085  1.0
  H  H10  1  0.37932032  0.33597069  0.12707362  1.0
  H  H11  1  0.25234956  0.66406128  0.87310210  1.0
  H  H12  1  0.36243625  0.43921759  0.20843195  1.0
  H  H13  1  0.15393234  0.56095142  0.79162331  1.0
  H  H14  1  0.96701869  0.27380087  0.07264741  1.0
  H  H15  1  0.89391175  0.72624538  0.92728660  1.0
  H  H16  1  0.88813383  0.35056996  0.00477988  1.0
  H  H17  1  0.88313162  0.64945702  0.99516752  1.0
  H  H18  1  0.58653228  0.35178401  0.24793291  1.0
  H  H19  1  0.33892830  0.64831577  0.75227709  1.0
  H  H20  1  0.80026607  0.27371522  0.34256381  1.0
  H  H21  1  0.45833097  0.72629320  0.65769697  1.0
  H  H22  1  0.33973097  0.11692531  0.37464702  1.0
  H  H23  1  0.96562595  0.88305099  0.62522735  1.0
  H  H24  1  0.12075808  0.19577420  0.28070222  1.0
  H  H25  1  0.84049900  0.80441051  0.71921195  1.0
  H  H26  1  0.27260496  0.21536170  0.86045257  1.0
  H  H27  1  0.41194375  0.78473737  0.13949985  1.0
  H  H28  1  0.11347798  0.11698312  0.72027591  1.0
  H  H29  1  0.39299041  0.88297391  0.27968276  1.0
  H  H30  1  0.60728659  0.10903436  0.80405417  1.0
  H  H31  1  0.80288204  0.89073996  0.19590360  1.0
  H  H32  1  0.76241691  0.20749001  0.94394741  1.0
  H  H33  1  0.81810925  0.79240921  0.05595099  1.0
  H  H34  1  0.71379582  0.54882164  0.19015280  1.0
  H  H35  1  0.52356672  0.45107758  0.80985970  1.0
  H  H36  1  0.55549703  0.67199078  0.27586076  1.0
  H  H37  1  0.27976815  0.32776427  0.72409331  1.0
  H  H38  1  0.08280588  0.79756731  0.42627652  1.0
  H  H39  1  0.65671083  0.20239115  0.57371734  1.0
  H  H40  1  0.24554067  0.67799607  0.33942000  1.0
  H  H41  1  0.90619808  0.32208872  0.66064311  1.0
  C  C42  1  0.12618820  0.40904197  0.10386353  1.0
  C  C43  1  0.02209715  0.59107066  0.89610104  1.0
  C  C44  1  0.21696996  0.47019830  0.05954315  1.0
  C  C45  1  0.15721814  0.52994359  0.94049255  1.0
  C  C46  1  0.98989061  0.46636487  0.14993833  1.0
  C  C47  1  0.83975510  0.53377344  0.84994312  1.0
  C  C48  1  0.28487434  0.37645609  0.16311790  1.0
  C  C49  1  0.12177003  0.62370935  0.83696057  1.0
  C  C50  1  0.01143556  0.32419992  0.04031009  1.0
  C  C51  1  0.97076880  0.67587059  0.95962124  1.0
  C  C52  1  0.33938413  0.27750868  0.25771934  1.0
  C  C53  1  0.08206390  0.72267960  0.74238033  1.0
  C  C54  1  0.53086011  0.30025870  0.27490228  1.0
  C  C55  1  0.25640189  0.69986463  0.72526321  1.0
  C  C56  1  0.65133799  0.25665503  0.32798483  1.0
  C  C57  1  0.32393637  0.74341977  0.67219267  1.0
  C  C58  1  0.58396119  0.18974892  0.36335866  1.0
  C  C59  1  0.22126185  0.81026592  0.63670671  1.0
  C  C60  1  0.39205383  0.16801311  0.34615769  1.0
  C  C61  1  0.04646851  0.83201387  0.65378734  1.0
  C  C62  1  0.26991700  0.21184874  0.29411429  1.0
  C  C63  1  0.97628554  0.78830029  0.70586527  1.0
  C  C64  1  0.02714611  0.21930789  0.91019115  1.0
  C  C65  1  0.11666367  0.78067270  0.08973909  1.0
  C  C66  1  0.12704102  0.19128486  0.84764407  1.0
  C  C67  1  0.27911701  0.80871642  0.15230144  1.0
  C  C68  1  0.03834121  0.13585333  0.76983560  1.0
  C  C69  1  0.26821778  0.86405446  0.23013523  1.0
  C  C70  1  0.84971731  0.10706947  0.75344710  1.0
  C  C71  1  0.09595369  0.89275124  0.24651699  1.0
  C  C72  1  0.75301363  0.13276289  0.81715003  1.0
  C  C73  1  0.93546601  0.86700357  0.18279693  1.0
  C  C74  1  0.83996942  0.18857698  0.89526700  1.0
  C  C75  1  0.94434019  0.81130296  0.10465909  1.0
  C  C76  1  0.74723729  0.05381480  0.66970936  1.0
  C  C77  1  0.07740074  0.94603731  0.33025385  1.0
  C  C78  1  0.99076481  0.60590760  0.25936247  1.0
  C  C79  1  0.73132520  0.39408940  0.74063626  1.0
  C  C80  1  0.79588452  0.60339457  0.24139187  1.0
  C  C81  1  0.55446398  0.39654248  0.75863443  1.0
  C  C82  1  0.70652126  0.67227912  0.28959023  1.0
  C  C83  1  0.41707928  0.32757228  0.71040419  1.0
  C  C84  1  0.80853984  0.74303364  0.35618393  1.0
  C  C85  1  0.45256136  0.25686772  0.64379523  1.0
  C  C86  1  0.00313173  0.74332270  0.37411098  1.0
  C  C87  1  0.62916739  0.25663576  0.62586747  1.0
  C  C88  1  0.09444470  0.67623673  0.32611708  1.0
  C  C89  1  0.76838078  0.32378025  0.67389596  1.0
  C  C90  1  0.71087667  0.81692641  0.40515322  1.0
  C  C91  1  0.30597661  0.18290572  0.59483004  1.0
  C  C92  1  0.71732010  0.14318258  0.41728504  1.0
  C  C93  1  0.30082516  0.85674662  0.58279717  1.0
  O  O94  1  0.82742601  0.03937898  0.60701009  1.0
  O  O95  1  0.22034869  0.96038678  0.39291868  1.0
  O  O96  1  0.58023584  0.02425655  0.65853271  1.0
  O  O97  1  0.92167291  0.97575187  0.34144505  1.0
  O  O98  1  0.88697602  0.17220696  0.44030163  1.0
  O  O99  1  0.44773786  0.82782715  0.56002814  1.0
  O  O100  1  0.65987263  0.07106556  0.44049709  1.0
  O  O101  1  0.21987196  0.92868663  0.55932922  1.0
  O  O102  1  0.80643958  0.88383038  0.46558261  1.0
  O  O103  1  0.34101510  0.11604814  0.53436230  1.0
  O  O104  1  0.53477754  0.81553179  0.38837921  1.0
  O  O105  1  0.14672891  0.18423539  0.61166521  1.0
  O  O106  1  0.21141021  0.31662372  0.20573663  1.0
  O  O107  1  0.00600051  0.68367590  0.79438234  1.0
  O  O108  1  0.09104758  0.54255370  0.21478360  1.0
  O  O109  1  0.87615129  0.45750468  0.78519177  1.0
  O  O110  1  0.12135667  0.27767283  0.98405049  1.0
  O  O111  1  0.13699623  0.72242337  0.01584839  1.0
  O  O112  1  0.07791013  0.50012483  0.00006752  1.0
