# generated using pymatgen
data_FeH24C27S2(N3O2)2
_symmetry_space_group_name_H-M   'P 1'
_cell_length_a   8.90883592
_cell_length_b   12.37524591
_cell_length_c   24.21244643
_cell_angle_alpha   89.99985857
_cell_angle_beta   89.99995553
_cell_angle_gamma   111.09184667
_symmetry_Int_Tables_number   1
_chemical_formula_structural   FeH24C27S2(N3O2)2
_chemical_formula_sum   'Fe2 H48 C54 S4 N12 O8'
_cell_volume   2490.56182685
_cell_formula_units_Z   2
loop_
 _symmetry_equiv_pos_site_id
 _symmetry_equiv_pos_as_xyz
  1  'x, y, z'
loop_
 _atom_site_type_symbol
 _atom_site_label
 _atom_site_symmetry_multiplicity
 _atom_site_fract_x
 _atom_site_fract_y
 _atom_site_fract_z
 _atom_site_occupancy
  Fe  Fe0  1  0.50000011  0.50000079  0.50000031  1.0
  Fe  Fe1  1  0.00000450  0.50000209  0.99999983  1.0
  H  H2  1  0.85249802  0.59064008  0.54573783  1.0
  H  H3  1  0.02480002  0.73291040  0.61290456  1.0
  H  H4  1  0.59900593  0.79897566  0.66374894  1.0
  H  H5  1  0.44749363  0.65645748  0.59315767  1.0
  H  H6  1  0.81594805  0.97691982  0.68707936  1.0
  H  H7  1  0.76310901  0.86704846  0.73995514  1.0
  H  H8  1  0.14751387  0.40936035  0.54573805  1.0
  H  H9  1  0.97520773  0.26708875  0.61290389  1.0
  H  H10  1  0.40100104  0.20102664  0.66374852  1.0
  H  H11  1  0.55251750  0.34354612  0.59315868  1.0
  H  H12  1  0.18405413  0.02307974  0.68708047  1.0
  H  H13  1  0.23689109  0.13295164  0.73995609  1.0
  H  H14  1  0.73819888  0.59077062  0.95430788  1.0
  H  H15  1  0.70839959  0.73317285  0.88713284  1.0
  H  H16  1  0.20003566  0.79870195  0.83622021  1.0
  H  H17  1  0.20886243  0.65607952  0.90682035  1.0
  H  H18  1  0.16115342  0.97708221  0.81293415  1.0
  H  H19  1  0.10419574  0.86715848  0.76008124  1.0
  H  H20  1  0.26180098  0.40922989  0.95430476  1.0
  H  H21  1  0.29159776  0.26682461  0.88713071  1.0
  H  H22  1  0.79996144  0.20129929  0.83621802  1.0
  H  H23  1  0.79113699  0.34392215  0.90681799  1.0
  H  H24  1  0.83884362  0.02291657  0.81293341  1.0
  H  H25  1  0.89580226  0.13283977  0.76007994  1.0
  H  H26  1  0.14750806  0.40935977  0.45426319  1.0
  H  H27  1  0.97520157  0.26708945  0.38709729  1.0
  H  H28  1  0.40099142  0.20102246  0.33625126  1.0
  H  H29  1  0.55251158  0.34354063  0.40684087  1.0
  H  H30  1  0.18404931  0.02307830  0.31292084  1.0
  H  H31  1  0.23688835  0.13294965  0.26004548  1.0
  H  H32  1  0.85248971  0.59064123  0.45426215  1.0
  H  H33  1  0.02479119  0.73291023  0.38709466  1.0
  H  H34  1  0.59899606  0.79897320  0.33625209  1.0
  H  H35  1  0.44748073  0.65645372  0.40684234  1.0
  H  H36  1  0.81594228  0.97692097  0.31292014  1.0
  H  H37  1  0.76310550  0.86705167  0.26004452  1.0
  H  H38  1  0.26180358  0.40923096  0.04569273  1.0
  H  H39  1  0.29159777  0.26682527  0.11286736  1.0
  H  H40  1  0.79996411  0.20129877  0.16377957  1.0
  H  H41  1  0.79113684  0.34392466  0.09318108  1.0
  H  H42  1  0.83884567  0.02291937  0.18706605  1.0
  H  H43  1  0.89580404  0.13284224  0.23991978  1.0
  H  H44  1  0.73820043  0.59076736  0.04569420  1.0
  H  H45  1  0.70839855  0.73316917  0.11286866  1.0
  H  H46  1  0.20003385  0.79870142  0.16378176  1.0
  H  H47  1  0.20886521  0.65608116  0.09318180  1.0
  H  H48  1  0.16114864  0.97707808  0.18706679  1.0
  H  H49  1  0.10419242  0.86715748  0.23992026  1.0
  C  C50  1  0.80075701  0.63875275  0.57255583  1.0
  C  C51  1  0.89649732  0.71696210  0.61055276  1.0
  C  C52  1  0.82603099  0.77743462  0.64432833  1.0
  C  C53  1  0.66121655  0.75529103  0.63868458  1.0
  C  C54  1  0.57560469  0.67505035  0.59914919  1.0
  C  C55  1  0.86117701  0.92330311  0.71376649  1.0
  C  C56  1  0.19925137  0.36124751  0.57255610  1.0
  C  C57  1  0.10351130  0.28303880  0.61055273  1.0
  C  C58  1  0.17398013  0.22256693  0.64432795  1.0
  C  C59  1  0.33879168  0.24471143  0.63868495  1.0
  C  C60  1  0.42440555  0.32495148  0.59914902  1.0
  C  C61  1  0.13882728  0.07669628  0.71376630  1.0
  C  C62  1  0.83806615  0.63879638  0.92748527  1.0
  C  C63  1  0.82064110  0.71705458  0.88948451  1.0
  C  C64  1  0.95157015  0.77739189  0.85568325  1.0
  C  C65  1  0.09413252  0.75504934  0.86128629  1.0
  C  C66  1  0.09942415  0.67477609  0.90082592  1.0
  C  C67  1  0.06231467  0.92339228  0.78626857  1.0
  C  C68  1  0.16193272  0.36120430  0.92748265  1.0
  C  C69  1  0.17935581  0.28294199  0.88948323  1.0
  C  C70  1  0.04842936  0.22260750  0.85568125  1.0
  C  C71  1  0.90586376  0.24495261  0.86128443  1.0
  C  C72  1  0.90057530  0.32522561  0.90082437  1.0
  C  C73  1  0.93768364  0.07660667  0.78626774  1.0
  C  C74  1  0.19924751  0.36124623  0.42744478  1.0
  C  C75  1  0.10350583  0.28303861  0.38944785  1.0
  C  C76  1  0.17397017  0.22256436  0.35567269  1.0
  C  C77  1  0.33878392  0.24470882  0.36131521  1.0
  C  C78  1  0.42439958  0.32495036  0.40084936  1.0
  C  C79  1  0.13882104  0.07669414  0.28623412  1.0
  C  C80  1  0.80074797  0.63875233  0.42744369  1.0
  C  C81  1  0.89648718  0.71695932  0.38944623  1.0
  C  C82  1  0.82601921  0.77743292  0.35567142  1.0
  C  C83  1  0.66120810  0.75528929  0.36131484  1.0
  C  C84  1  0.57559268  0.67504837  0.40085118  1.0
  C  C85  1  0.86117025  0.92330443  0.28623348  1.0
  C  C86  1  0.16193518  0.36120520  0.07251535  1.0
  C  C87  1  0.17935670  0.28294440  0.11051610  1.0
  C  C88  1  0.04842946  0.22260623  0.14431695  1.0
  C  C89  1  0.90586769  0.24495224  0.13871432  1.0
  C  C90  1  0.90057848  0.32522809  0.09917510  1.0
  C  C91  1  0.93768511  0.07660843  0.21373204  1.0
  C  C92  1  0.83806576  0.63879382  0.07251631  1.0
  C  C93  1  0.82064293  0.71705439  0.11051656  1.0
  C  C94  1  0.95156999  0.77739235  0.14431647  1.0
  C  C95  1  0.09413533  0.75504897  0.13871577  1.0
  C  C96  1  0.09942535  0.67477683  0.09917500  1.0
  C  C97  1  0.06230949  0.92338972  0.21373246  1.0
  C  C98  1  0.72028536  0.34484285  0.49999996  1.0
  C  C99  1  0.27971572  0.65516046  0.49999941  1.0
  C  C100  1  0.62458022  0.34471577  0.00000052  1.0
  C  C101  1  0.37542586  0.65528407  0.99999927  1.0
  C  C102  1  0.99999937  0.00000028  0.75001508  1.0
  C  C103  1  0.99999549  0.99999956  0.24998512  1.0
  S  S104  1  0.79814065  0.24605709  0.50000042  1.0
  S  S105  1  0.20185160  0.75393756  0.49999647  1.0
  S  S106  1  0.44803512  0.24590949  0.00000102  1.0
  S  S107  1  0.55197295  0.75409209  0.99999959  1.0
  N  N108  1  0.64208556  0.61743696  0.56596504  1.0
  N  N109  1  0.35792329  0.38256422  0.56596565  1.0
  N  N110  1  0.97531716  0.61733346  0.93404057  1.0
  N  N111  1  0.02468436  0.38266804  0.93403879  1.0
  N  N112  1  0.35791853  0.38256116  0.43403557  1.0
  N  N113  1  0.64207580  0.61743736  0.43403414  1.0
  N  N114  1  0.02468685  0.38266899  0.06596005  1.0
  N  N115  1  0.97531922  0.61733354  0.06596059  1.0
  N  N116  1  0.66238510  0.41816457  0.49999951  1.0
  N  N117  1  0.33762098  0.58183528  0.50000152  1.0
  N  N118  1  0.75576347  0.41807655  0.00000004  1.0
  N  N119  1  0.24424391  0.58192590  0.99999851  1.0
  O  O120  1  0.92549359  0.85442959  0.68046795  1.0
  O  O121  1  0.07451355  0.14557088  0.68046728  1.0
  O  O122  1  0.92920431  0.85451478  0.81958978  1.0
  O  O123  1  0.07079201  0.14548482  0.81958870  1.0
  O  O124  1  0.07450644  0.14556939  0.31953349  1.0
  O  O125  1  0.92548511  0.85442983  0.31953209  1.0
  O  O126  1  0.07079503  0.14548506  0.18041124  1.0
  O  O127  1  0.92920043  0.85451243  0.18041150  1.0
