# generated using pymatgen
data_Cd3H60(C11O3)8
_symmetry_space_group_name_H-M   'P 1'
_cell_length_a   15.32615291
_cell_length_b   15.52948996
_cell_length_c   17.24657687
_cell_angle_alpha   67.20142697
_cell_angle_beta   83.23849867
_cell_angle_gamma   64.22323795
_symmetry_Int_Tables_number   1
_chemical_formula_structural   Cd3H60(C11O3)8
_chemical_formula_sum   'Cd3 H60 C88 O24'
_cell_volume   3401.19807622
_cell_formula_units_Z   1
loop_
 _symmetry_equiv_pos_site_id
 _symmetry_equiv_pos_as_xyz
  1  'x, y, z'
loop_
 _atom_site_type_symbol
 _atom_site_label
 _atom_site_symmetry_multiplicity
 _atom_site_fract_x
 _atom_site_fract_y
 _atom_site_fract_z
 _atom_site_occupancy
  Cd  Cd0  1  0.99999291  0.00000192  0.00000899  1.0
  Cd  Cd1  1  0.85078399  0.19036220  0.09464182  1.0
  Cd  Cd2  1  0.14923309  0.80963770  0.90537636  1.0
  H  H3  1  0.59652610  0.28695941  0.95795675  1.0
  H  H4  1  0.40343399  0.71309835  0.04204677  1.0
  H  H5  1  0.44525112  0.34252499  0.87515530  1.0
  H  H6  1  0.55473020  0.65752071  0.12483326  1.0
  H  H7  1  0.61871718  0.21366484  0.69807677  1.0
  H  H8  1  0.38129608  0.78632102  0.30196018  1.0
  H  H9  1  0.76853513  0.15174064  0.78514559  1.0
  H  H10  1  0.23146637  0.84825985  0.21490664  1.0
  H  H11  1  0.36877625  0.25149694  0.85218944  1.0
  H  H12  1  0.63123531  0.74849488  0.14780615  1.0
  H  H13  1  0.08775190  0.44093691  0.75720495  1.0
  H  H14  1  0.91224446  0.55905599  0.24276997  1.0
  H  H15  1  0.97193330  0.40777642  0.86788207  1.0
  H  H16  1  0.02805955  0.59222653  0.13209198  1.0
  H  H17  1  0.17278743  0.08816883  0.97486471  1.0
  H  H18  1  0.82721507  0.91183774  0.02515508  1.0
  H  H19  1  0.29150809  0.12212514  0.86876489  1.0
  H  H20  1  0.70849066  0.87787426  0.13124570  1.0
  H  H21  1  0.28754006  0.55639203  0.27165875  1.0
  H  H22  1  0.71246805  0.44360367  0.72834629  1.0
  H  H23  1  0.47040918  0.21514720  0.38600092  1.0
  H  H24  1  0.52954219  0.78486169  0.61395839  1.0
  H  H25  1  0.60349743  0.15004056  0.29782779  1.0
  H  H26  1  0.39648110  0.84995583  0.70215200  1.0
  H  H27  1  0.57009639  0.45928699  0.15217078  1.0
  H  H28  1  0.42996408  0.54068117  0.84784850  1.0
  H  H29  1  0.43396117  0.52636032  0.23592495  1.0
  H  H30  1  0.56608007  0.47362681  0.76407818  1.0
  H  H31  1  0.51479351  0.44365237  0.66978900  1.0
  H  H32  1  0.48522622  0.55631713  0.33022752  1.0
  H  H33  1  0.43908964  0.53518389  0.57579991  1.0
  H  H34  1  0.56091181  0.46480319  0.42422869  1.0
  H  H35  1  0.56546942  0.45940240  0.56906989  1.0
  H  H36  1  0.43453487  0.54059481  0.43094201  1.0
  H  H37  1  0.09871428  0.30031499  0.59005653  1.0
  H  H38  1  0.90127431  0.69968491  0.40994752  1.0
  H  H39  1  0.11244205  0.26969848  0.70036594  1.0
  H  H40  1  0.88761772  0.73024071  0.29964170  1.0
  H  H41  1  0.21215935  0.20555836  0.64744791  1.0
  H  H42  1  0.78786376  0.79443115  0.35250369  1.0
  H  H43  1  0.05358766  0.59595661  0.58387017  1.0
  H  H44  1  0.94641346  0.40407476  0.41612296  1.0
  H  H45  1  0.06144394  0.54685762  0.50367941  1.0
  H  H46  1  0.93858244  0.45312143  0.49634164  1.0
  H  H47  1  0.04636187  0.67743664  0.47498550  1.0
  H  H48  1  0.95363192  0.32255621  0.52499321  1.0
  H  H49  1  0.49055549  0.11934385  0.55799968  1.0
  H  H50  1  0.50941608  0.88064844  0.44197367  1.0
  H  H51  1  0.36962416  0.20064785  0.57484163  1.0
  H  H52  1  0.63033491  0.79935806  0.42510974  1.0
  H  H53  1  0.47234749  0.18710671  0.62654381  1.0
  H  H54  1  0.52759687  0.81284302  0.37347625  1.0
  H  H55  1  0.06292227  0.91977278  0.33671757  1.0
  H  H56  1  0.93708638  0.08022598  0.66327472  1.0
  H  H57  1  0.18045210  0.73997283  0.42210393  1.0
  H  H58  1  0.81953760  0.26001612  0.57789114  1.0
  H  H59  1  0.11345567  0.62984077  0.25268096  1.0
  H  H60  1  0.88654188  0.37015305  0.74731321  1.0
  H  H61  1  0.99574627  0.80856406  0.17016940  1.0
  H  H62  1  0.00427467  0.19144738  0.82980478  1.0
  C  C63  1  0.69136227  0.21553973  0.87668140  1.0
  C  C64  1  0.30861844  0.78451470  0.12333427  1.0
  C  C65  1  0.60010525  0.27037080  0.90144965  1.0
  C  C66  1  0.39987071  0.72968342  0.09854867  1.0
  C  C67  1  0.51620482  0.30118025  0.85507113  1.0
  C  C68  1  0.48377945  0.69885698  0.14492533  1.0
  C  C69  1  0.52141848  0.28116922  0.78124992  1.0
  C  C70  1  0.47858602  0.71885608  0.21875890  1.0
  C  C71  1  0.61357435  0.22932293  0.75524550  1.0
  C  C72  1  0.38642857  0.77068759  0.24477979  1.0
  C  C73  1  0.69735643  0.19530799  0.80327531  1.0
  C  C74  1  0.30263198  0.80472480  0.19674603  1.0
  C  C75  1  0.43112151  0.30859269  0.73640664  1.0
  C  C76  1  0.56887562  0.69141679  0.26359649  1.0
  C  C77  1  0.41402293  0.35505534  0.64772976  1.0
  C  C78  1  0.58598001  0.64494336  0.35227655  1.0
  C  C79  1  0.32937579  0.37170979  0.60906833  1.0
  C  C80  1  0.67062346  0.62829266  0.39092547  1.0
  C  C81  1  0.25860805  0.34494972  0.65925707  1.0
  C  C82  1  0.74140487  0.65503750  0.34074812  1.0
  C  C83  1  0.27105663  0.30443022  0.74789926  1.0
  C  C84  1  0.72893993  0.69556590  0.25209188  1.0
  C  C85  1  0.35790085  0.28574202  0.78365285  1.0
  C  C86  1  0.64210002  0.71425813  0.21634274  1.0
  C  C87  1  0.19734527  0.28361996  0.80633477  1.0
  C  C88  1  0.80265476  0.71636920  0.19365208  1.0
  C  C89  1  0.10621254  0.36381075  0.80509133  1.0
  C  C90  1  0.89378475  0.63617049  0.19488880  1.0
  C  C91  1  0.04167306  0.34574250  0.86635599  1.0
  C  C92  1  0.95831327  0.65425719  0.13361999  1.0
  C  C93  1  0.06578634  0.24646760  0.92777284  1.0
  C  C94  1  0.93419979  0.75352981  0.07221614  1.0
  C  C95  1  0.15558306  0.16551286  0.92793162  1.0
  C  C96  1  0.84440322  0.83449552  0.07206272  1.0
  C  C97  1  0.22122634  0.18458783  0.86845955  1.0
  C  C98  1  0.77876925  0.81540594  0.13153428  1.0
  C  C99  1  0.31586603  0.41704836  0.51567782  1.0
  C  C100  1  0.68413687  0.58296431  0.48431423  1.0
  C  C101  1  0.37913004  0.36726385  0.46468435  1.0
  C  C102  1  0.62088185  0.63273499  0.53530697  1.0
  C  C103  1  0.37122074  0.41809017  0.37479364  1.0
  C  C104  1  0.62878794  0.58189150  0.62521517  1.0
  C  C105  1  0.29482910  0.51603375  0.33988196  1.0
  C  C106  1  0.70516600  0.48396631  0.66012186  1.0
  C  C107  1  0.22863724  0.56702364  0.38785472  1.0
  C  C108  1  0.77136520  0.43296797  0.61214142  1.0
  C  C109  1  0.24010753  0.51589682  0.47696815  1.0
  C  C110  1  0.75989675  0.48410038  0.52304260  1.0
  C  C111  1  0.44415240  0.37539634  0.32024310  1.0
  C  C112  1  0.55585265  0.62460154  0.67974818  1.0
  C  C113  1  0.49225476  0.26886109  0.33539647  1.0
  C  C114  1  0.50771856  0.73113829  0.66458169  1.0
  C  C115  1  0.56653224  0.23214086  0.28621815  1.0
  C  C116  1  0.43344922  0.76785328  0.71376442  1.0
  C  C117  1  0.59693619  0.30010601  0.22135150  1.0
  C  C118  1  0.40309028  0.69987059  0.77864954  1.0
  C  C119  1  0.54674676  0.40664408  0.20284597  1.0
  C  C120  1  0.45329614  0.59333610  0.79716582  1.0
  C  C121  1  0.47067311  0.44353908  0.25047936  1.0
  C  C122  1  0.52936073  0.55645491  0.74952681  1.0
  C  C123  1  0.50092123  0.45949646  0.60371873  1.0
  C  C124  1  0.49908302  0.54049606  0.39629368  1.0
  C  C125  1  0.14928175  0.27876779  0.64127685  1.0
  C  C126  1  0.85074176  0.72121728  0.35871456  1.0
  C  C127  1  0.07956345  0.59811045  0.52143624  1.0
  C  C128  1  0.92045011  0.40188611  0.47856033  1.0
  C  C129  1  0.44519935  0.19069933  0.56872554  1.0
  C  C130  1  0.55476282  0.80929198  0.43125214  1.0
  C  C131  1  0.78102607  0.17787025  0.93008714  1.0
  C  C132  1  0.21896052  0.82217966  0.06993237  1.0
  C  C133  1  0.99587033  0.22519768  0.99190454  1.0
  C  C134  1  0.00411569  0.77482083  0.00808737  1.0
  C  C135  1  0.02262395  0.87466733  0.24833508  1.0
  C  C136  1  0.97736910  0.12533574  0.75165747  1.0
  C  C137  1  0.07406705  0.85499020  0.31997435  1.0
  C  C138  1  0.92593274  0.14500131  0.68001748  1.0
  C  C139  1  0.13929318  0.75493053  0.36723072  1.0
  C  C140  1  0.86070242  0.24506323  0.63276311  1.0
  C  C141  1  0.15499235  0.67249429  0.34325681  1.0
  C  C142  1  0.84500348  0.32749244  0.65673486  1.0
  C  C143  1  0.10275497  0.69303538  0.27152098  1.0
  C  C144  1  0.89724621  0.30696087  0.72847481  1.0
  C  C145  1  0.03682833  0.79266513  0.22524468  1.0
  C  C146  1  0.96317960  0.20733512  0.77473963  1.0
  C  C147  1  0.68305419  0.25889162  0.17442389  1.0
  C  C148  1  0.31697175  0.74106171  0.82560638  1.0
  C  C149  1  0.95583177  0.98218423  0.19428570  1.0
  C  C150  1  0.04416677  0.01781351  0.80570696  1.0
  O  O151  1  0.48159566  0.38027386  0.59575562  1.0
  O  O152  1  0.51841409  0.61972888  0.40424499  1.0
  O  O153  1  0.17920550  0.36143595  0.61653505  1.0
  O  O154  1  0.82080372  0.63854879  0.38346102  1.0
  O  O155  1  0.18354271  0.56022975  0.53044309  1.0
  O  O156  1  0.81646644  0.43978854  0.46955030  1.0
  O  O157  1  0.45350035  0.27189031  0.49570635  1.0
  O  O158  1  0.54650428  0.72810458  0.50430866  1.0
  O  O159  1  0.85332389  0.09727189  0.92776690  1.0
  O  O160  1  0.14666692  0.90279755  0.07223705  1.0
  O  O161  1  0.77516592  0.23121259  0.97229116  1.0
  O  O162  1  0.22481121  0.76882076  0.02774113  1.0
  O  O163  1  0.70054679  0.17775188  0.16193171  1.0
  O  O164  1  0.29945186  0.82221948  0.83809121  1.0
  O  O165  1  0.73750111  0.30669092  0.14933531  1.0
  O  O166  1  0.26254641  0.69324121  0.85071917  1.0
  O  O167  1  0.91806599  0.99631649  0.12518450  1.0
  O  O168  1  0.08191935  0.00368489  0.87481939  1.0
  O  O169  1  0.00614268  0.13157387  0.02829917  1.0
  O  O170  1  0.99384034  0.86844782  0.97171458  1.0
  O  O171  1  0.92886091  0.29790563  0.00950659  1.0
  O  O172  1  0.07112478  0.70212764  0.99047372  1.0
  O  O173  1  0.93899105  0.05549842  0.21802189  1.0
  O  O174  1  0.06101889  0.94449259  0.78197533  1.0
