# generated using pymatgen
data_ZnH12C19NO4
_symmetry_space_group_name_H-M   'P 1'
_cell_length_a   11.87316354
_cell_length_b   12.54340936
_cell_length_c   13.35866454
_cell_angle_alpha   82.25139872
_cell_angle_beta   87.47559047
_cell_angle_gamma   76.26759248
_symmetry_Int_Tables_number   1
_chemical_formula_structural   ZnH12C19NO4
_chemical_formula_sum   'Zn2 H24 C38 N2 O8'
_cell_volume   1914.83893762
_cell_formula_units_Z   2
loop_
 _symmetry_equiv_pos_site_id
 _symmetry_equiv_pos_as_xyz
  1  'x, y, z'
loop_
 _atom_site_type_symbol
 _atom_site_label
 _atom_site_symmetry_multiplicity
 _atom_site_fract_x
 _atom_site_fract_y
 _atom_site_fract_z
 _atom_site_occupancy
  Zn  Zn0  1  0.46894143  0.61838664  0.51586486  1.0
  Zn  Zn1  1  0.53047100  0.38099349  0.47646677  1.0
  H  H2  1  0.42337414  0.26294732  0.78870758  1.0
  H  H3  1  0.51363719  0.56649659  0.82127959  1.0
  H  H4  1  0.52708126  0.76264335  0.20903138  1.0
  H  H5  1  0.52099314  0.67999792  0.90752073  1.0
  H  H6  1  0.55252691  0.80763129  0.02191213  1.0
  H  H7  1  0.37160923  0.43986378  0.24859288  1.0
  H  H8  1  0.72044366  0.20029457  0.16652390  1.0
  H  H9  1  0.59768716  0.30939130  0.18441593  1.0
  H  H10  1  0.73580040  0.33857690  0.15889838  1.0
  H  H11  1  0.68940987  0.34429001  0.34079787  1.0
  H  H12  1  0.80817194  0.23259513  0.32605688  1.0
  H  H13  1  0.30106028  0.13585691  0.67332052  1.0
  H  H14  1  0.16596099  0.73862797  0.56450852  1.0
  H  H15  1  0.11222469  0.69468663  0.68486167  1.0
  H  H16  1  0.10946996  0.83745477  0.64943102  1.0
  H  H17  1  0.32855088  0.64702800  0.68553460  1.0
  H  H18  1  0.27383039  0.74615728  0.76849873  1.0
  H  H19  1  0.26563404  0.94639613  0.71191151  1.0
  H  H20  1  0.55179503  0.80699719  0.45595051  1.0
  H  H21  1  0.65316790  0.90954800  0.38708224  1.0
  H  H22  1  0.75180724  0.04813896  0.29750788  1.0
  H  H23  1  0.40603224  0.26278081  0.57807354  1.0
  H  H24  1  0.33429405  0.31355004  0.13554600  1.0
  H  H25  1  0.36237500  0.24297172  0.97059677  1.0
  C  C26  1  0.47719254  0.58259979  0.30903381  1.0
  C  C27  1  0.37406177  0.38160019  0.10581964  1.0
  C  C28  1  0.39431827  0.45221359  0.16868369  1.0
  C  C29  1  0.71641827  0.50461704  0.49099379  1.0
  C  C30  1  0.48074557  0.49647941  0.85681102  1.0
  C  C31  1  0.42959589  0.32452471  0.83725389  1.0
  C  C32  1  0.47321488  0.61393593  0.19683775  1.0
  C  C33  1  0.32987690  0.91832547  0.65431922  1.0
  C  C34  1  0.65304511  0.18341146  0.37212456  1.0
  C  C35  1  0.68320362  0.07204511  0.35265882  1.0
  C  C36  1  0.62774193  0.99527010  0.40236657  1.0
  C  C37  1  0.47112218  0.41780669  0.79578242  1.0
  C  C38  1  0.53910658  0.02840229  0.47326093  1.0
  C  C39  1  0.51345255  0.14096426  0.49155627  1.0
  C  C40  1  0.47449733  0.95399476  0.52786133  1.0
  C  C41  1  0.49968932  0.43839069  0.68586547  1.0
  C  C42  1  0.38964391  0.99301230  0.60137176  1.0
  C  C43  1  0.36731716  0.10605880  0.61790060  1.0
  C  C44  1  0.42567079  0.17705660  0.56462813  1.0
  C  C45  1  0.48917736  0.84322186  0.51137900  1.0
  C  C46  1  0.34967050  0.81003186  0.63389152  1.0
  C  C47  1  0.28330857  0.48992926  0.49331322  1.0
  C  C48  1  0.50855589  0.70905075  0.15721430  1.0
  C  C49  1  0.83872314  0.50280613  0.49203139  1.0
  C  C50  1  0.94230262  0.50079977  0.49237876  1.0
  C  C51  1  0.05664211  0.49787954  0.49294698  1.0
  C  C52  1  0.16053883  0.49462386  0.49325532  1.0
  C  C53  1  0.39647697  0.31371675  0.93789412  1.0
  C  C54  1  0.71437916  0.26387008  0.31291003  1.0
  C  C55  1  0.69062108  0.27826145  0.19907565  1.0
  C  C56  1  0.28135019  0.73291307  0.68837228  1.0
  C  C57  1  0.15973618  0.75267267  0.64401320  1.0
  C  C58  1  0.52358402  0.73334976  0.05250960  1.0
  C  C59  1  0.50524548  0.66141228  0.98824160  1.0
  C  C60  1  0.46677761  0.56493721  0.02559269  1.0
  C  C61  1  0.44556371  0.54297951  0.13156791  1.0
  C  C62  1  0.45100516  0.48604644  0.96009096  1.0
  C  C63  1  0.40643827  0.39293464  0.00125647  1.0
  N  N64  1  0.42895475  0.77447677  0.56087053  1.0
  N  N65  1  0.57072486  0.21637436  0.44113261  1.0
  O  O66  1  0.44127442  0.65900788  0.36466549  1.0
  O  O67  1  0.52182387  0.48126905  0.33976206  1.0
  O  O68  1  0.64689382  0.59951155  0.48290285  1.0
  O  O69  1  0.69185461  0.41030574  0.49802960  1.0
  O  O70  1  0.51622687  0.53385808  0.65360263  1.0
  O  O71  1  0.50250931  0.36180195  0.63127815  1.0
  O  O72  1  0.31311558  0.56748347  0.52982791  1.0
  O  O73  1  0.34978369  0.40799147  0.45760585  1.0
