# generated using pymatgen
data_Zn4C38N8O29F8
_symmetry_space_group_name_H-M   'P 1'
_cell_length_a   18.45246357
_cell_length_b   18.45269300
_cell_length_c   19.00735825
_cell_angle_alpha   119.02315802
_cell_angle_beta   119.02451987
_cell_angle_gamma   90.00850111
_symmetry_Int_Tables_number   1
_chemical_formula_structural   Zn4C38N8O29F8
_chemical_formula_sum   'Zn8 C76 N16 O58 F16'
_cell_volume   4707.84995116
_cell_formula_units_Z   2
loop_
 _symmetry_equiv_pos_site_id
 _symmetry_equiv_pos_as_xyz
  1  'x, y, z'
loop_
 _atom_site_type_symbol
 _atom_site_label
 _atom_site_symmetry_multiplicity
 _atom_site_fract_x
 _atom_site_fract_y
 _atom_site_fract_z
 _atom_site_occupancy
  Zn  Zn0  1  0.70102075  0.29441163  0.41671083  1.0
  Zn  Zn1  1  0.28434588  0.70560932  0.58333453  1.0
  Zn  Zn2  1  0.29443246  0.71565999  0.41668596  1.0
  Zn  Zn3  1  0.70562460  0.29900130  0.58330898  1.0
  Zn  Zn4  1  0.71570582  0.12230331  0.41664742  1.0
  Zn  Zn5  1  0.29904673  0.87769476  0.58336606  1.0
  Zn  Zn6  1  0.12234764  0.70098063  0.41664887  1.0
  Zn  Zn7  1  0.87773101  0.28431750  0.58335262  1.0
  C  C8  1  0.56869419  0.06868327  0.13707897  1.0
  C  C9  1  0.43133989  0.93142739  0.86296608  1.0
  C  C10  1  0.06860481  0.56866357  0.13705176  1.0
  C  C11  1  0.93135440  0.43126623  0.86293572  1.0
  C  C12  1  0.52442224  0.02445460  0.04870256  1.0
  C  C13  1  0.47560460  0.97567141  0.95136114  1.0
  C  C14  1  0.02438190  0.52438699  0.04865451  1.0
  C  C15  1  0.97560414  0.47555315  0.95131383  1.0
  C  C16  1  0.87962022  0.37958161  0.75926463  1.0
  C  C17  1  0.12041148  0.62039278  0.24070994  1.0
  C  C18  1  0.37961090  0.87961147  0.75930862  1.0
  C  C19  1  0.62042509  0.12041733  0.24075069  1.0
  C  C20  1  0.88334899  0.38341060  0.49997166  1.0
  C  C21  1  0.10727785  0.60726459  0.49998988  1.0
  C  C22  1  0.38339788  0.61656242  0.49999185  1.0
  C  C23  1  0.60724256  0.39271201  0.49999016  1.0
  C  C24  1  0.61660697  0.11667255  0.50002074  1.0
  C  C25  1  0.39275511  0.89273233  0.49998687  1.0
  C  C26  1  0.11665391  0.88336301  0.50001600  1.0
  C  C27  1  0.89275323  0.10722788  0.49999980  1.0
  C  C28  1  0.49714236  0.41096058  0.58186145  1.0
  C  C29  1  0.42199271  0.52385763  0.34355857  1.0
  C  C30  1  0.41121744  0.08466231  0.58209837  1.0
  C  C31  1  0.52383887  0.92175670  0.34351333  1.0
  C  C32  1  0.08463254  0.17081219  0.58189459  1.0
  C  C33  1  0.92163856  0.81964753  0.34363292  1.0
  C  C34  1  0.17078978  0.49709218  0.58167679  1.0
  C  C35  1  0.81960769  0.42214565  0.34366925  1.0
  C  C36  1  0.50262321  0.82912201  0.41786508  1.0
  C  C37  1  0.57816346  0.18032179  0.65651550  1.0
  C  C38  1  0.58896337  0.50279121  0.41811792  1.0
  C  C39  1  0.47601882  0.57791168  0.65638388  1.0
  C  C40  1  0.91543790  0.58907418  0.41820087  1.0
  C  C41  1  0.07835226  0.47588541  0.65623773  1.0
  C  C42  1  0.82916198  0.91533095  0.41806499  1.0
  C  C43  1  0.18031730  0.07838262  0.65639563  1.0
  C  C44  1  0.48567079  0.44687833  0.65699321  1.0
  C  C45  1  0.46512108  0.51569962  0.29933156  1.0
  C  C46  1  0.44716983  0.17121914  0.65722973  1.0
  C  C47  1  0.51562187  0.83440075  0.29920390  1.0
  C  C48  1  0.17115518  0.21007732  0.65710285  1.0
  C  C49  1  0.83427448  0.78363575  0.29937642  1.0
  C  C50  1  0.20998608  0.48557227  0.65677563  1.0
  C  C51  1  0.78359392  0.46539505  0.29958953  1.0
  C  C52  1  0.51402705  0.78998276  0.34268402  1.0
  C  C53  1  0.53503242  0.21636860  0.70073312  1.0
  C  C54  1  0.55302652  0.51420383  0.34294621  1.0
  C  C55  1  0.48413665  0.53475814  0.70058138  1.0
  C  C56  1  0.82884821  0.55322883  0.34313237  1.0
  C  C57  1  0.16567837  0.48395520  0.70034630  1.0
  C  C58  1  0.78992375  0.82879826  0.34289181  1.0
  C  C59  1  0.21630335  0.16574982  0.70066782  1.0
  C  C60  1  0.47392112  0.53617068  0.56851984  1.0
  C  C61  1  0.53674244  0.49275239  0.45180080  1.0
  C  C62  1  0.53636585  0.09456980  0.56865349  1.0
  C  C63  1  0.49272955  0.91505224  0.45170105  1.0
  C  C64  1  0.09458259  0.03224318  0.56851619  1.0
  C  C65  1  0.91509345  0.95899201  0.45180647  1.0
  C  C66  1  0.03226172  0.47388537  0.56843555  1.0
  C  C67  1  0.95905380  0.53678295  0.45180466  1.0
  C  C68  1  0.52599453  0.96777220  0.43141251  1.0
  C  C69  1  0.46337029  0.04096781  0.54831524  1.0
  C  C70  1  0.46375518  0.52599943  0.43145247  1.0
  C  C71  1  0.50715207  0.46316436  0.54815972  1.0
  C  C72  1  0.90541453  0.46380814  0.43145155  1.0
  C  C73  1  0.08492301  0.50713265  0.54807400  1.0
  C  C74  1  0.96775677  0.90539644  0.43148666  1.0
  C  C75  1  0.04097817  0.08488986  0.54818669  1.0
  C  C76  1  0.44106911  0.55886186  0.49998833  1.0
  C  C77  1  0.54950152  0.45041141  0.49998202  1.0
  C  C78  1  0.55894254  0.05895569  0.50003073  1.0
  C  C79  1  0.45048085  0.95045305  0.49999046  1.0
  C  C80  1  0.05895533  0.94104363  0.50000290  1.0
  C  C81  1  0.95047667  0.04949292  0.49999611  1.0
  C  C82  1  0.94105065  0.44109054  0.49995432  1.0
  C  C83  1  0.04954695  0.54953009  0.49996908  1.0
  N  N84  1  0.48161318  0.31637980  0.52509563  1.0
  N  N85  1  0.32882360  0.51610475  0.29066244  1.0
  N  N86  1  0.31660807  0.04350968  0.52529075  1.0
  N  N87  1  0.51610020  0.96213259  0.29070764  1.0
  N  N88  1  0.04335611  0.20852016  0.52499578  1.0
  N  N89  1  0.96193019  0.77449991  0.29075259  1.0
  N  N90  1  0.20857380  0.48162128  0.52486986  1.0
  N  N91  1  0.77437549  0.32899368  0.29071071  1.0
  N  N92  1  0.51814247  0.79121522  0.47457090  1.0
  N  N93  1  0.67130850  0.22547306  0.70935505  1.0
  N  N94  1  0.68356217  0.51842972  0.47498161  1.0
  N  N95  1  0.48376269  0.67107072  0.70929388  1.0
  N  N96  1  0.95671002  0.68367092  0.47511336  1.0
  N  N97  1  0.03814462  0.48365265  0.70921120  1.0
  N  N98  1  0.79137138  0.95659624  0.47487041  1.0
  N  N99  1  0.22545542  0.03808573  0.70928157  1.0
  O  O100  1  0.75003670  0.24999371  0.50000596  1.0
  O  O101  1  0.25003926  0.75000643  0.50001113  1.0
  O  O102  1  0.80063057  0.37944258  0.71833250  1.0
  O  O103  1  0.19945654  0.66101271  0.28163226  1.0
  O  O104  1  0.37942564  0.91778090  0.71844999  1.0
  O  O105  1  0.66104809  0.08222243  0.28157756  1.0
  O  O106  1  0.91780741  0.33897771  0.71842684  1.0
  O  O107  1  0.08223479  0.62058502  0.28156349  1.0
  O  O108  1  0.33899699  0.80057250  0.71839211  1.0
  O  O109  1  0.62059476  0.19940999  0.28169466  1.0
  O  O110  1  0.92026860  0.34671226  0.54390660  1.0
  O  O111  1  0.07099045  0.61964647  0.43205970  1.0
  O  O112  1  0.34673908  0.62361862  0.54398545  1.0
  O  O113  1  0.61969837  0.36118809  0.43212619  1.0
  O  O114  1  0.62364158  0.19729676  0.54401197  1.0
  O  O115  1  0.36111104  0.81244888  0.43204380  1.0
  O  O116  1  0.19728638  0.92030043  0.54398506  1.0
  O  O117  1  0.81245918  0.07093428  0.43202466  1.0
  O  O118  1  0.07973403  0.80273080  0.45605675  1.0
  O  O119  1  0.92902661  0.18750504  0.56795281  1.0
  O  O120  1  0.65324565  0.07974259  0.45601217  1.0
  O  O121  1  0.38040084  0.92902221  0.56793729  1.0
  O  O122  1  0.37636952  0.65321311  0.45599539  1.0
  O  O123  1  0.63878719  0.38026470  0.56787300  1.0
  O  O124  1  0.80272867  0.37643496  0.45606020  1.0
  O  O125  1  0.18756220  0.63888918  0.56793879  1.0
  O  O126  1  0.45693589  0.28173400  0.43947480  1.0
  O  O127  1  0.48972370  0.27700805  0.56450901  1.0
  O  O128  1  0.28098421  0.47255022  0.29414794  1.0
  O  O129  1  0.30490332  0.55030795  0.24461870  1.0
  O  O130  1  0.28192679  0.98266818  0.43963315  1.0
  O  O131  1  0.27725576  0.07480807  0.56471975  1.0
  O  O132  1  0.47267259  0.01355541  0.29439219  1.0
  O  O133  1  0.55018573  0.94002770  0.24454375  1.0
  O  O134  1  0.98235799  0.15751399  0.43942113  1.0
  O  O135  1  0.07465538  0.28725270  0.56425073  1.0
  O  O136  1  0.01323329  0.82155414  0.29423116  1.0
  O  O137  1  0.93986590  0.69427273  0.24473559  1.0
  O  O138  1  0.15761688  0.45713305  0.43930849  1.0
  O  O139  1  0.28731476  0.48959949  0.56418270  1.0
  O  O140  1  0.82133895  0.28108691  0.29411242  1.0
  O  O141  1  0.69414063  0.30512031  0.24470002  1.0
  O  O142  1  0.54293968  0.84211850  0.56023839  1.0
  O  O143  1  0.50989032  0.71242084  0.43504442  1.0
  O  O144  1  0.71913599  0.17844232  0.70578670  1.0
  O  O145  1  0.69524276  0.30570619  0.75542469  1.0
  O  O146  1  0.71815177  0.54303985  0.56057473  1.0
  O  O147  1  0.72300933  0.51047916  0.43567489  1.0
  O  O148  1  0.52738488  0.71894157  0.70590030  1.0
  O  O149  1  0.44948978  0.69496130  0.75526393  1.0
  O  O150  1  0.01771541  0.71819891  0.56067789  1.0
  O  O151  1  0.92535291  0.72317293  0.43589000  1.0
  O  O152  1  0.98683138  0.52719952  0.70577057  1.0
  O  O153  1  0.06028347  0.44946302  0.75527214  1.0
  O  O154  1  0.84235537  0.01749452  0.56049662  1.0
  O  O155  1  0.71259027  0.92537807  0.43547442  1.0
  O  O156  1  0.17837851  0.98673219  0.70572846  1.0
  O  O157  1  0.30568744  0.06018525  0.75536585  1.0
  F  F158  1  0.59541367  0.52571032  0.30705014  1.0
  F  F159  1  0.48937271  0.57014542  0.78365326  1.0
  F  F160  1  0.52541668  0.71167570  0.30667675  1.0
  F  F161  1  0.57041015  0.29419942  0.78378098  1.0
  F  F162  1  0.71162933  0.78144437  0.30700722  1.0
  F  F163  1  0.29410168  0.21343316  0.78377543  1.0
  F  F164  1  0.78151171  0.59566946  0.30729365  1.0
  F  F165  1  0.21337390  0.48910162  0.78336706  1.0
  F  F166  1  0.40480921  0.21861630  0.69315089  1.0
  F  F167  1  0.51033179  0.78679548  0.21609092  1.0
  F  F168  1  0.47417805  0.40448563  0.69289117  1.0
  F  F169  1  0.42971728  0.51039016  0.21621636  1.0
  F  F170  1  0.28826505  0.47409642  0.69263864  1.0
  F  F171  1  0.70571680  0.43013455  0.21661135  1.0
  F  F172  1  0.21850035  0.28837163  0.69298858  1.0
  F  F173  1  0.78662039  0.70580993  0.21631710  1.0
