# generated using pymatgen
data_ZnH13C19I2NO4
_symmetry_space_group_name_H-M   'P 1'
_cell_length_a   10.85179353
_cell_length_b   14.71293220
_cell_length_c   16.17175392
_cell_angle_alpha   89.40465954
_cell_angle_beta   89.60795205
_cell_angle_gamma   88.31248117
_symmetry_Int_Tables_number   1
_chemical_formula_structural   ZnH13C19I2NO4
_chemical_formula_sum   'Zn2 H26 C38 I4 N2 O8'
_cell_volume   2580.69543283
_cell_formula_units_Z   2
loop_
 _symmetry_equiv_pos_site_id
 _symmetry_equiv_pos_as_xyz
  1  'x, y, z'
loop_
 _atom_site_type_symbol
 _atom_site_label
 _atom_site_symmetry_multiplicity
 _atom_site_fract_x
 _atom_site_fract_y
 _atom_site_fract_z
 _atom_site_occupancy
  Zn  Zn0  1  0.49733831  0.40290157  0.50308751  1.0
  Zn  Zn1  1  0.50025371  0.59590800  0.49628167  1.0
  H  H2  1  0.90855628  0.58750202  0.38485616  1.0
  H  H3  1  0.44485976  0.94075047  0.29508286  1.0
  H  H4  1  0.48455642  0.83835382  0.34653736  1.0
  H  H5  1  0.77278993  0.05865183  0.65207305  1.0
  H  H6  1  0.74043898  0.16059556  0.59520291  1.0
  H  H7  1  0.73417825  0.16125577  0.70466820  1.0
  H  H8  1  0.52146891  0.16215730  0.65010946  1.0
  H  H9  1  0.55230989  0.06053024  0.70495691  1.0
  H  H10  1  0.74271498  0.81457656  0.56927751  1.0
  H  H11  1  0.76757617  0.81400166  0.67694905  1.0
  H  H12  1  0.79785804  0.91323420  0.61723291  1.0
  H  H13  1  0.08927835  0.41214698  0.61535733  1.0
  H  H14  1  0.59719056  0.92896148  0.69846956  1.0
  H  H15  1  0.54277745  0.83185398  0.64950473  1.0
  H  H16  1  0.58792967  0.17684054  0.33470634  1.0
  H  H17  1  0.57495169  0.07611769  0.27598855  1.0
  H  H18  1  0.48912553  0.17678796  0.24793270  1.0
  H  H19  1  0.34954437  0.06837184  0.31957962  1.0
  H  H20  1  0.36493023  0.16726147  0.37812842  1.0
  H  H21  1  0.48298952  0.35021248  0.07310850  1.0
  H  H22  1  0.51861938  0.64761548  0.92628289  1.0
  H  H23  1  0.49135552  0.35621532  0.91892395  1.0
  H  H24  1  0.51036381  0.64158908  0.08047092  1.0
  H  H25  1  0.27260566  0.83294107  0.41062553  1.0
  H  H26  1  0.23070938  0.93750627  0.36084884  1.0
  H  H27  1  0.26502724  0.83867495  0.30134525  1.0
  C  C28  1  0.49020660  0.49475703  0.33892633  1.0
  C  C29  1  0.49579463  0.49558237  0.08682637  1.0
  C  C30  1  0.26055129  0.51505960  0.50589393  1.0
  C  C31  1  0.73729952  0.48461742  0.49385124  1.0
  C  C32  1  0.48888919  0.49258573  0.24962756  1.0
  C  C33  1  0.51014309  0.50530259  0.74972596  1.0
  C  C34  1  0.45899068  0.04913894  0.42858224  1.0
  C  C35  1  0.55084962  0.94939305  0.57068319  1.0
  C  C36  1  0.54112482  0.04466769  0.57371810  1.0
  C  C37  1  0.46766462  0.95393085  0.42583787  1.0
  C  C38  1  0.49610008  0.09114349  0.50232644  1.0
  C  C39  1  0.50792265  0.50324148  0.66042762  1.0
  C  C40  1  0.51215925  0.90744184  0.49714596  1.0
  C  C41  1  0.05173244  0.47212667  0.42856162  1.0
  C  C42  1  0.94611016  0.52750969  0.57159007  1.0
  C  C43  1  0.97720466  0.41000560  0.49007557  1.0
  C  C44  1  0.02067765  0.58959714  0.51010647  1.0
  C  C45  1  0.95024791  0.54881426  0.43595460  1.0
  C  C46  1  0.04763380  0.45083396  0.56424143  1.0
  C  C47  1  0.87480494  0.48712207  0.49605587  1.0
  C  C48  1  0.12306130  0.51249224  0.50413730  1.0
  C  C49  1  0.48862702  0.18753534  0.50467965  1.0
  C  C50  1  0.50880284  0.50496402  0.82507420  1.0
  C  C51  1  0.51545002  0.81102395  0.49519705  1.0
  C  C52  1  0.42758697  0.90113760  0.35168385  1.0
  C  C53  1  0.29096062  0.87634922  0.35653019  1.0
  C  C54  1  0.57668589  0.09830539  0.64849227  1.0
  C  C55  1  0.71411879  0.12072405  0.65001556  1.0
  C  C56  1  0.60160517  0.89092459  0.64050663  1.0
  C  C57  1  0.73505400  0.85652944  0.62490134  1.0
  C  C58  1  0.41553203  0.10632661  0.35588562  1.0
  C  C59  1  0.52335187  0.13553620  0.30034585  1.0
  C  C60  1  0.49146848  0.49288222  0.17426756  1.0
  C  C61  1  0.49549078  0.41831029  0.95482421  1.0
  C  C62  1  0.50615080  0.57950605  0.04455415  1.0
  C  C63  1  0.49068062  0.41499999  0.04049836  1.0
  C  C64  1  0.51091187  0.58282331  0.95888506  1.0
  C  C65  1  0.50547681  0.50225381  0.91253760  1.0
  I  I66  1  0.13562310  0.43149265  0.31634706  1.0
  I  I67  1  0.86205831  0.56805157  0.68386315  1.0
  I  I68  1  0.95050677  0.26943745  0.47503715  1.0
  I  I69  1  0.04770203  0.73010294  0.52512503  1.0
  N  N70  1  0.51583564  0.73219284  0.49340783  1.0
  N  N71  1  0.48372375  0.26643068  0.50618303  1.0
  O  O72  1  0.49206342  0.41822218  0.37658735  1.0
  O  O73  1  0.50351281  0.57978028  0.62284893  1.0
  O  O74  1  0.50985559  0.42453255  0.62824180  1.0
  O  O75  1  0.49023958  0.57343496  0.37104420  1.0
  O  O76  1  0.31288222  0.43678080  0.51091669  1.0
  O  O77  1  0.68513682  0.56303172  0.49021174  1.0
  O  O78  1  0.68698665  0.40817088  0.49762840  1.0
  O  O79  1  0.31072209  0.59146126  0.50024876  1.0
