# generated using pymatgen
data_Zn4H2C24S4Cl2O13F4
_symmetry_space_group_name_H-M   'P 1'
_cell_length_a   19.70090173
_cell_length_b   19.74912954
_cell_length_c   33.42340846
_cell_angle_alpha   79.01588254
_cell_angle_beta   79.15375010
_cell_angle_gamma   63.90848575
_symmetry_Int_Tables_number   1
_chemical_formula_structural   Zn4H2C24S4Cl2O13F4
_chemical_formula_sum   'Zn16 H8 C96 S16 Cl8 O52 F16'
_cell_volume   11384.42167087
_cell_formula_units_Z   4
loop_
 _symmetry_equiv_pos_site_id
 _symmetry_equiv_pos_as_xyz
  1  'x, y, z'
loop_
 _atom_site_type_symbol
 _atom_site_label
 _atom_site_symmetry_multiplicity
 _atom_site_fract_x
 _atom_site_fract_y
 _atom_site_fract_z
 _atom_site_occupancy
  Zn  Zn0  1  0.05450732  0.40095051  0.47788900  1.0
  Zn  Zn1  1  0.98497160  0.48378919  0.56059084  1.0
  Zn  Zn2  1  0.05935932  0.56031043  0.48213005  1.0
  Zn  Zn3  1  0.90074901  0.55571214  0.47955049  1.0
  Zn  Zn4  1  0.69505218  0.34876971  0.27233212  1.0
  Zn  Zn5  1  0.68989774  0.18907087  0.26600703  1.0
  Zn  Zn6  1  0.76833145  0.26724156  0.19014362  1.0
  Zn  Zn7  1  0.84834588  0.19391044  0.27145881  1.0
  Zn  Zn8  1  0.26560959  0.76567244  0.68943691  1.0
  Zn  Zn9  1  0.34926013  0.69666981  0.77180849  1.0
  Zn  Zn10  1  0.19292327  0.84890470  0.77087900  1.0
  Zn  Zn11  1  0.19112451  0.68917369  0.76793091  1.0
  Zn  Zn12  1  0.55941393  0.06164161  0.98409239  1.0
  Zn  Zn13  1  0.40169181  0.05366335  0.97715140  1.0
  Zn  Zn14  1  0.55720122  0.90133071  0.97906990  1.0
  Zn  Zn15  1  0.48134105  0.98313913  0.05989555  1.0
  H  H16  1  0.74998866  0.44854801  0.34903492  1.0
  H  H17  1  0.99926960  0.30232227  0.40090889  1.0
  H  H18  1  0.20053877  0.69999365  0.60186212  1.0
  H  H19  1  0.04934629  0.55019371  0.64817315  1.0
  H  H20  1  0.64795733  0.14868634  0.04969814  1.0
  H  H21  1  0.60232270  0.10111264  0.20036451  1.0
  H  H22  1  0.30340273  0.99866700  0.90111192  1.0
  H  H23  1  0.44739625  0.75046552  0.84887720  1.0
  C  C24  1  0.06162852  0.31670933  0.56142512  1.0
  C  C25  1  0.07006199  0.57069510  0.56795921  1.0
  C  C26  1  0.18328983  0.43889487  0.43835649  1.0
  C  C27  1  0.93708017  0.68380825  0.43866152  1.0
  C  C28  1  0.92919186  0.43224941  0.43105466  1.0
  C  C29  1  0.81723758  0.56120647  0.56245587  1.0
  C  C30  1  0.56649637  0.31027921  0.31112871  1.0
  C  C31  1  0.68261035  0.18114158  0.17991825  1.0
  C  C32  1  0.68951457  0.43354837  0.18885954  1.0
  C  C33  1  0.93469359  0.18838583  0.18917561  1.0
  C  C34  1  0.81994759  0.31829672  0.31917833  1.0
  C  C35  1  0.81144328  0.06585232  0.31098503  1.0
  C  C36  1  0.43291154  0.68931738  0.68824882  1.0
  C  C37  1  0.31682338  0.82159328  0.81899400  1.0
  C  C38  1  0.18816568  0.93299305  0.68791098  1.0
  C  C39  1  0.06575139  0.81040270  0.81119532  1.0
  C  C40  1  0.17995814  0.67938152  0.68204569  1.0
  C  C41  1  0.31371374  0.56676514  0.81173293  1.0
  C  C42  1  0.43773678  0.18350246  0.93861917  1.0
  C  C43  1  0.43399862  0.92773677  0.93083399  1.0
  C  C44  1  0.68396201  0.94079166  0.93934470  1.0
  C  C45  1  0.56110492  0.81652717  0.06185256  1.0
  C  C46  1  0.56746006  0.06889349  0.07012877  1.0
  C  C47  1  0.31511264  0.06123608  0.05996447  1.0
  C  C48  1  0.89828487  0.40601861  0.40220306  1.0
  C  C49  1  0.85092422  0.34481519  0.34782786  1.0
  C  C50  1  0.82685618  0.44769500  0.38716551  1.0
  C  C51  1  0.92243559  0.30317456  0.36279090  1.0
  C  C52  1  0.80496324  0.41648156  0.36058569  1.0
  C  C53  1  0.94428012  0.33439827  0.38938651  1.0
  C  C54  1  0.09971901  0.60017314  0.59579375  1.0
  C  C55  1  0.15016322  0.65002425  0.65423235  1.0
  C  C56  1  0.14312005  0.64314453  0.58270965  1.0
  C  C57  1  0.10676561  0.60704319  0.66731594  1.0
  C  C58  1  0.16714156  0.66691740  0.61192030  1.0
  C  C59  1  0.08271391  0.58329784  0.63810765  1.0
  C  C60  1  0.30441472  0.45216685  0.40062139  1.0
  C  C61  1  0.44565940  0.29668376  0.34925840  1.0
  C  C62  1  0.25817649  0.41375118  0.41376028  1.0
  C  C63  1  0.49188037  0.33506931  0.33603610  1.0
  C  C64  1  0.37726897  0.33873516  0.37286606  1.0
  C  C65  1  0.37293221  0.40999823  0.37714649  1.0
  C  C66  1  0.72499702  0.57641851  0.62949470  1.0
  C  C67  1  0.52520298  0.67298975  0.62120407  1.0
  C  C68  1  0.74254909  0.58556844  0.58718666  1.0
  C  C69  1  0.50766959  0.66413672  0.66354644  1.0
  C  C70  1  0.60423423  0.64124254  0.60843063  1.0
  C  C71  1  0.64596040  0.60805078  0.64223850  1.0
  C  C72  1  0.07738449  0.22453891  0.62857189  1.0
  C  C73  1  0.17343375  0.02507713  0.62078498  1.0
  C  C74  1  0.08658589  0.24201155  0.58622405  1.0
  C  C75  1  0.16400045  0.00760471  0.66310888  1.0
  C  C76  1  0.14207074  0.10395310  0.60784774  1.0
  C  C77  1  0.10877990  0.14565810  0.64151631  1.0
  C  C78  1  0.84403589  0.80134712  0.39742048  1.0
  C  C79  1  0.90398021  0.94874506  0.35268954  1.0
  C  C80  1  0.91224470  0.75835709  0.41387672  1.0
  C  C81  1  0.83585816  0.99157779  0.33607235  1.0
  C  C82  1  0.90765389  0.87921333  0.37504715  1.0
  C  C83  1  0.84044968  0.87078280  0.37498430  1.0
  C  C84  1  0.65463214  0.15362285  0.15024373  1.0
  C  C85  1  0.59559945  0.09623397  0.09981876  1.0
  C  C86  1  0.66749757  0.16705945  0.10699504  1.0
  C  C87  1  0.58273745  0.08278407  0.14306912  1.0
  C  C88  1  0.63802415  0.13835256  0.08297635  1.0
  C  C89  1  0.61225813  0.11146197  0.16708616  1.0
  C  C90  1  0.67331562  0.52526365  0.12162778  1.0
  C  C91  1  0.57631702  0.72477430  0.12902526  1.0
  C  C92  1  0.66404305  0.50811365  0.16400341  1.0
  C  C93  1  0.58585209  0.74196424  0.08668768  1.0
  C  C94  1  0.60800577  0.64597686  0.14209838  1.0
  C  C95  1  0.64160312  0.60405896  0.10852305  1.0
  C  C96  1  0.08119319  0.12455944  0.17662084  1.0
  C  C97  1  0.16855878  0.12571996  0.07258695  1.0
  C  C98  1  0.00900503  0.16369467  0.16417073  1.0
  C  C99  1  0.24076719  0.08653781  0.08496399  1.0
  C  C100  1  0.10997201  0.13998112  0.10573204  1.0
  C  C101  1  0.13983018  0.11048637  0.14348894  1.0
  C  C102  1  0.34395475  0.85178987  0.84777290  1.0
  C  C103  1  0.40687225  0.89738150  0.90215597  1.0
  C  C104  1  0.30296920  0.92290376  0.86288769  1.0
  C  C105  1  0.44783213  0.82625488  0.88706959  1.0
  C  C106  1  0.33496190  0.94394358  0.88947800  1.0
  C  C107  1  0.41583431  0.80520789  0.86048272  1.0
  C  C108  1  0.40652033  0.44837698  0.85291968  1.0
  C  C109  1  0.34542170  0.30144642  0.89698843  1.0
  C  C110  1  0.33856653  0.49189582  0.83630226  1.0
  C  C111  1  0.41331047  0.25809005  0.91373277  1.0
  C  C112  1  0.34230381  0.37092116  0.87474221  1.0
  C  C113  1  0.40968241  0.37885007  0.87508214  1.0
  C  C114  1  0.94470147  0.79752652  0.84950258  1.0
  C  C115  1  0.80468778  0.95393078  0.90061634  1.0
  C  C116  1  0.99113967  0.83559652  0.83597736  1.0
  C  C117  1  0.75822196  0.91592692  0.91419477  1.0
  C  C118  1  0.87274089  0.91137396  0.87697427  1.0
  C  C119  1  0.87650414  0.84015215  0.87305644  1.0
  S  S120  1  0.29883200  0.32412195  0.39727528  1.0
  S  S121  1  0.45135347  0.42460665  0.35268624  1.0
  S  S122  1  0.66114027  0.63364220  0.56210759  1.0
  S  S123  1  0.58909407  0.61599196  0.68857772  1.0
  S  S124  1  0.13465379  0.16069099  0.56141389  1.0
  S  S125  1  0.11594439  0.08892625  0.68794607  1.0
  S  S126  1  0.97372517  0.80317889  0.40194054  1.0
  S  S127  1  0.77454778  0.94658739  0.34791964  1.0
  S  S128  1  0.61543654  0.58957956  0.18862694  1.0
  S  S129  1  0.63447184  0.66052115  0.06200966  1.0
  S  S130  1  0.01209536  0.18411142  0.11097469  1.0
  S  S131  1  0.23774046  0.06640790  0.13819926  1.0
  S  S132  1  0.27674665  0.44738300  0.84778192  1.0
  S  S133  1  0.47507532  0.30260712  0.90221823  1.0
  S  S134  1  0.95119635  0.92544507  0.85214479  1.0
  S  S135  1  0.79800473  0.82615546  0.89789601  1.0
  Cl  Cl136  1  0.76269535  0.53671712  0.39925877  1.0
  Cl  Cl137  1  0.98677293  0.21438434  0.35052776  1.0
  Cl  Cl138  1  0.16983737  0.66907987  0.53209675  1.0
  Cl  Cl139  1  0.08027269  0.58088108  0.71794006  1.0
  Cl  Cl140  1  0.71801697  0.21769897  0.08070399  1.0
  Cl  Cl141  1  0.53209280  0.03227692  0.16933984  1.0
  Cl  Cl142  1  0.21403555  0.98786184  0.85068547  1.0
  Cl  Cl143  1  0.53689318  0.76143025  0.89920391  1.0
  O  O144  1  0.00045243  0.49903717  0.50015047  1.0
  O  O145  1  0.07708323  0.31578991  0.52246868  1.0
  O  O146  1  0.03354063  0.53110542  0.58547546  1.0
  O  O147  1  0.15540860  0.50524315  0.44924314  1.0
  O  O148  1  0.02731723  0.37483453  0.58067029  1.0
  O  O149  1  0.15313849  0.39132717  0.44644394  1.0
  O  O150  1  0.08321637  0.58715803  0.52952621  1.0
  O  O151  1  0.00458045  0.65629513  0.44876383  1.0
  O  O152  1  0.88740003  0.49655341  0.44335574  1.0
  O  O153  1  0.88996598  0.65352387  0.44784097  1.0
  O  O154  1  0.99549357  0.38729391  0.44097427  1.0
  O  O155  1  0.87598391  0.52654455  0.58141974  1.0
  O  O156  1  0.81564213  0.57774101  0.52355420  1.0
  O  O157  1  0.74909120  0.25047257  0.25030333  1.0
  O  O158  1  0.59664338  0.35785387  0.30357354  1.0
  O  O159  1  0.66491522  0.16384206  0.21805364  1.0
  O  O160  1  0.72581813  0.37560325  0.16959125  1.0
  O  O161  1  0.59407297  0.24457425  0.29946008  1.0
  O  O162  1  0.67270884  0.43419252  0.22778292  1.0
  O  O163  1  0.72133111  0.21916966  0.16506636  1.0
  O  O164  1  0.87689277  0.22521728  0.16924754  1.0
  O  O165  1  0.86137485  0.25353759  0.30740160  1.0
  O  O166  1  0.93421300  0.17120302  0.22791773  1.0
  O  O167  1  0.75389989  0.36343689  0.30892104  1.0
  O  O168  1  0.74517367  0.09250862  0.29931902  1.0
  O  O169  1  0.85804815  0.09669523  0.30313300  1.0
  O  O170  1  0.25041659  0.75005190  0.74988375  1.0
  O  O171  1  0.37451057  0.72322688  0.66898447  1.0
  O  O172  1  0.36263665  0.75651664  0.80806624  1.0
  O  O173  1  0.17114522  0.93423785  0.72679827  1.0
  O  O174  1  0.43406376  0.67439453  0.72721985  1.0
  O  O175  1  0.22325947  0.87461178  0.66891677  1.0
  O  O176  1  0.25115690  0.86243315  0.80783258  1.0
  O  O177  1  0.09481688  0.85886622  0.80233816  1.0
  O  O178  1  0.16604325  0.66368957  0.72048768  1.0
  O  O179  1  0.09462062  0.74355353  0.80090818  1.0
  O  O180  1  0.21732489  0.71814274  0.66450824  1.0
  O  O181  1  0.35978776  0.59828473  0.80350638  1.0
  O  O182  1  0.24683224  0.59323196  0.80090531  1.0
  O  O183  1  0.49995874  0.00048489  0.99972619  1.0
  O  O184  1  0.50361006  0.15760874  0.95067116  1.0
  O  O185  1  0.38891913  0.99365168  0.94086793  1.0
  O  O186  1  0.65465890  0.89251294  0.94750671  1.0
  O  O187  1  0.39194905  0.15173636  0.94585037  1.0
  O  O188  1  0.65575206  0.00684247  0.95064278  1.0
  O  O189  1  0.49888404  0.88621903  0.94283494  1.0
  O  O190  1  0.57990544  0.81561808  0.02304779  1.0
  O  O191  1  0.52884991  0.03074418  0.08496067  1.0
  O  O192  1  0.52358117  0.87471775  0.08083805  1.0
  O  O193  1  0.58493069  0.08645370  0.03199491  1.0
  O  O194  1  0.31589144  0.07624415  0.02111780  1.0
  O  O195  1  0.37270507  0.02589979  0.08016398  1.0
  F  F196  1  0.28736000  0.52215303  0.40887081  1.0
  F  F197  1  0.46263297  0.22674239  0.34094526  1.0
  F  F198  1  0.77658038  0.54144623  0.65628254  1.0
  F  F199  1  0.47363150  0.70802625  0.59440193  1.0
  F  F200  1  0.04239281  0.27601288  0.65525036  1.0
  F  F201  1  0.20844090  0.97352938  0.59414754  1.0
  F  F202  1  0.78650340  0.78048636  0.40177672  1.0
  F  F203  1  0.96142345  0.96967242  0.34844551  1.0
  F  F204  1  0.70856252  0.47358454  0.09507031  1.0
  F  F205  1  0.54110541  0.77643973  0.15557979  1.0
  F  F206  1  0.09550619  0.10185408  0.21581695  1.0
  F  F207  1  0.15415535  0.14839906  0.03340442  1.0
  F  F208  1  0.46423349  0.46889719  0.84890958  1.0
  F  F209  1  0.28760897  0.28106525  0.90109675  1.0
  F  F210  1  0.96130677  0.72751474  0.84146539  1.0
  F  F211  1  0.78818628  0.02388050  0.90871734  1.0
