# generated using pymatgen
data_Cd2H28C30N4O9
_symmetry_space_group_name_H-M   'P 1'
_cell_length_a   14.49228226
_cell_length_b   15.44461978
_cell_length_c   17.53206753
_cell_angle_alpha   89.99999394
_cell_angle_beta   90.00002597
_cell_angle_gamma   89.99999494
_symmetry_Int_Tables_number   1
_chemical_formula_structural   Cd2H28C30N4O9
_chemical_formula_sum   'Cd8 H112 C120 N16 O36'
_cell_volume   3924.16391622
_cell_formula_units_Z   4
loop_
 _symmetry_equiv_pos_site_id
 _symmetry_equiv_pos_as_xyz
  1  'x, y, z'
loop_
 _atom_site_type_symbol
 _atom_site_label
 _atom_site_symmetry_multiplicity
 _atom_site_fract_x
 _atom_site_fract_y
 _atom_site_fract_z
 _atom_site_occupancy
  Cd  Cd0  1  0.12415905  0.77101746  0.04483921  1.0
  Cd  Cd1  1  0.87584148  0.27101736  0.95516099  1.0
  Cd  Cd2  1  0.62415908  0.77101741  0.45516056  1.0
  Cd  Cd3  1  0.37584075  0.27101741  0.54483963  1.0
  Cd  Cd4  1  0.07521110  0.22189222  0.58420345  1.0
  Cd  Cd5  1  0.92478805  0.72189156  0.41579618  1.0
  Cd  Cd6  1  0.57521180  0.22189153  0.91579649  1.0
  Cd  Cd7  1  0.42478804  0.72189160  0.08420314  1.0
  H  H8  1  0.11466240  0.35803996  0.46743570  1.0
  H  H9  1  0.88533880  0.85803993  0.53256391  1.0
  H  H10  1  0.61466221  0.35803997  0.03256410  1.0
  H  H11  1  0.38533900  0.85803993  0.96743609  1.0
  H  H12  1  0.01088855  0.32064701  0.45903052  1.0
  H  H13  1  0.98911266  0.82064632  0.54096853  1.0
  H  H14  1  0.51088835  0.32064701  0.04096925  1.0
  H  H15  1  0.48911216  0.82064632  0.95903151  1.0
  H  H16  1  0.88059343  0.63163814  0.17917605  1.0
  H  H17  1  0.11940572  0.13163877  0.82082416  1.0
  H  H18  1  0.38059424  0.63163944  0.32082440  1.0
  H  H19  1  0.61940630  0.13163940  0.67917524  1.0
  H  H20  1  0.88370677  0.56716003  0.01446530  1.0
  H  H21  1  0.11629446  0.06715999  0.98553491  1.0
  H  H22  1  0.38370698  0.56716002  0.48553458  1.0
  H  H23  1  0.61629425  0.06715935  0.51446506  1.0
  H  H24  1  0.94367320  0.52143148  0.09253141  1.0
  H  H25  1  0.05632735  0.02143146  0.90746938  1.0
  H  H26  1  0.44367267  0.52143212  0.40746850  1.0
  H  H27  1  0.55632719  0.02143145  0.59253115  1.0
  H  H28  1  0.79544259  0.48696381  0.15658601  1.0
  H  H29  1  0.20455722  0.98696380  0.84341417  1.0
  H  H30  1  0.29544272  0.48696382  0.34341442  1.0
  H  H31  1  0.70455709  0.98696379  0.65658575  1.0
  H  H32  1  0.64605824  0.51051701  0.09261805  1.0
  H  H33  1  0.35394231  0.01051696  0.90738102  1.0
  H  H34  1  0.14605840  0.51051701  0.40738175  1.0
  H  H35  1  0.85394215  0.01051696  0.59261904  1.0
  H  H36  1  0.70185964  0.56214470  0.01473164  1.0
  H  H37  1  0.29814160  0.06214465  0.98526800  1.0
  H  H38  1  0.20185915  0.56214469  0.48526818  1.0
  H  H39  1  0.79814208  0.06214466  0.51473204  1.0
  H  H40  1  0.70363787  0.62366255  0.18038865  1.0
  H  H41  1  0.29636198  0.12366252  0.81961098  1.0
  H  H42  1  0.20363729  0.62366256  0.31961173  1.0
  H  H43  1  0.79636255  0.12366251  0.68038848  1.0
  H  H44  1  0.78598786  0.70977021  0.03789948  1.0
  H  H45  1  0.21401267  0.20977017  0.96210015  1.0
  H  H46  1  0.28598806  0.70977021  0.46210035  1.0
  H  H47  1  0.71401247  0.20977018  0.53789985  1.0
  H  H48  1  0.78587472  0.75418761  0.13040026  1.0
  H  H49  1  0.21412511  0.25418823  0.86959993  1.0
  H  H50  1  0.28587487  0.75418827  0.36960014  1.0
  H  H51  1  0.71412497  0.25418823  0.63040006  1.0
  H  H52  1  0.19264174  0.62200050  0.16225208  1.0
  H  H53  1  0.80735810  0.12200043  0.83774870  1.0
  H  H54  1  0.69264102  0.62200047  0.33774773  1.0
  H  H55  1  0.30735606  0.12199917  0.66225248  1.0
  H  H56  1  0.10465855  0.75313286  0.85958225  1.0
  H  H57  1  0.89534129  0.25313351  0.14041795  1.0
  H  H58  1  0.60465841  0.75313285  0.64041766  1.0
  H  H59  1  0.39534143  0.25313352  0.35958197  1.0
  H  H60  1  0.09778107  0.64015566  0.75726574  1.0
  H  H61  1  0.90221947  0.14015565  0.24273447  1.0
  H  H62  1  0.59778030  0.64015499  0.74273417  1.0
  H  H63  1  0.40221955  0.14015567  0.25726546  1.0
  H  H64  1  0.14224962  0.44802078  0.93342068  1.0
  H  H65  1  0.85775019  0.94802081  0.06657950  1.0
  H  H66  1  0.64224944  0.44802013  0.56657984  1.0
  H  H67  1  0.35774968  0.94802081  0.43342091  1.0
  H  H68  1  0.14278483  0.56905781  0.02769464  1.0
  H  H69  1  0.85721572  0.06905836  0.97230500  1.0
  H  H70  1  0.64278487  0.56905776  0.47230516  1.0
  H  H71  1  0.35721567  0.06905841  0.52769506  1.0
  H  H72  1  0.05231137  0.25452623  0.75405677  1.0
  H  H73  1  0.94768847  0.75452688  0.24594286  1.0
  H  H74  1  0.55231060  0.25452556  0.74594316  1.0
  H  H75  1  0.44768855  0.75452690  0.25405761  1.0
  H  H76  1  0.06871391  0.36442857  0.85665505  1.0
  H  H77  1  0.93128591  0.86442923  0.14334457  1.0
  H  H78  1  0.56871447  0.36442856  0.64334488  1.0
  H  H79  1  0.43128605  0.86442859  0.35665531  1.0
  H  H80  1  0.16716971  0.54301374  0.68343248  1.0
  H  H81  1  0.83283083  0.04301373  0.31656774  1.0
  H  H82  1  0.66716898  0.54301307  0.81656747  1.0
  H  H83  1  0.33283088  0.04301376  0.18343275  1.0
  H  H84  1  0.15104111  0.42287224  0.58963635  1.0
  H  H85  1  0.84895940  0.92287223  0.41036325  1.0
  H  H86  1  0.65104043  0.42287155  0.91036360  1.0
  H  H87  1  0.34895939  0.92287227  0.08963715  1.0
  H  H88  1  0.11279438  0.97374177  0.08853627  1.0
  H  H89  1  0.88720543  0.47374168  0.91146277  1.0
  H  H90  1  0.61279439  0.97374173  0.41146405  1.0
  H  H91  1  0.38720611  0.47374172  0.58853670  1.0
  H  H92  1  0.10134353  0.07282415  0.20103987  1.0
  H  H93  1  0.89865632  0.57282409  0.79895978  1.0
  H  H94  1  0.60134348  0.07282412  0.29895996  1.0
  H  H95  1  0.39865637  0.57282347  0.70104025  1.0
  H  H96  1  0.14981623  0.84933597  0.34481866  1.0
  H  H97  1  0.85018360  0.34933592  0.65518096  1.0
  H  H98  1  0.64981679  0.84933661  0.15518168  1.0
  H  H99  1  0.35018373  0.34933593  0.84481908  1.0
  H  H100  1  0.15764796  0.76056202  0.22645784  1.0
  H  H101  1  0.84235257  0.26056195  0.77354178  1.0
  H  H102  1  0.65764789  0.76056200  0.27354251  1.0
  H  H103  1  0.34235194  0.26056198  0.72645825  1.0
  H  H104  1  0.16525967  0.22730511  0.41782149  1.0
  H  H105  1  0.83474086  0.72730508  0.58217871  1.0
  H  H106  1  0.66525950  0.22730447  0.08217834  1.0
  H  H107  1  0.33474103  0.72730509  0.91782071  1.0
  H  H108  1  0.18147862  0.13778268  0.30028031  1.0
  H  H109  1  0.81852123  0.63778264  0.69971932  1.0
  H  H110  1  0.68147851  0.13778267  0.19971953  1.0
  H  H111  1  0.31852202  0.63778266  0.80028010  1.0
  H  H112  1  0.05248099  0.92688919  0.42397017  1.0
  H  H113  1  0.94751952  0.42688979  0.57602944  1.0
  H  H114  1  0.55248151  0.92688919  0.07603013  1.0
  H  H115  1  0.44751900  0.42688914  0.92397062  1.0
  H  H116  1  0.03634627  0.02709882  0.53379981  1.0
  H  H117  1  0.96365428  0.52709945  0.46619983  1.0
  H  H118  1  0.53634631  0.02709878  0.96620013  1.0
  H  H119  1  0.46365424  0.52710014  0.03380008  1.0
  C  C120  1  0.87715848  0.64424318  0.11720504  1.0
  C  C121  1  0.12284205  0.14424315  0.88279574  1.0
  C  C122  1  0.37715794  0.64424318  0.38279541  1.0
  C  C123  1  0.62284190  0.14424315  0.61720423  1.0
  C  C124  1  0.88041814  0.55586742  0.07666219  1.0
  C  C125  1  0.11958240  0.05586739  0.92333802  1.0
  C  C126  1  0.38041831  0.55586742  0.42333769  1.0
  C  C127  1  0.61958154  0.05586675  0.57666252  1.0
  C  C128  1  0.79538944  0.50067862  0.09461899  1.0
  C  C129  1  0.20461041  0.00067924  0.90538066  1.0
  C  C130  1  0.29538961  0.50067927  0.40538087  1.0
  C  C131  1  0.70461025  0.00067859  0.59461935  1.0
  C  C132  1  0.70621439  0.54985109  0.07668212  1.0
  C  C133  1  0.29378616  0.04985105  0.92331752  1.0
  C  C134  1  0.20621456  0.54985174  0.42331770  1.0
  C  C135  1  0.79378598  0.04985170  0.57668252  1.0
  C  C136  1  0.70359162  0.63746283  0.11870625  1.0
  C  C137  1  0.29640823  0.13746279  0.88129338  1.0
  C  C138  1  0.20359177  0.63746348  0.38129413  1.0
  C  C139  1  0.79640808  0.13746343  0.61870665  1.0
  C  C140  1  0.78788544  0.69259724  0.09875882  1.0
  C  C141  1  0.21211509  0.19259720  0.90124138  1.0
  C  C142  1  0.28788491  0.69259789  0.40124159  1.0
  C  C143  1  0.71211493  0.19259720  0.59875861  1.0
  C  C144  1  0.96408750  0.69437066  0.09590465  1.0
  C  C145  1  0.03591234  0.19437064  0.90409555  1.0
  C  C146  1  0.46408766  0.69437131  0.40409582  1.0
  C  C147  1  0.53591287  0.19437129  0.59590381  1.0
  C  C148  1  0.79902793  0.41197395  0.05539544  1.0
  C  C149  1  0.20097051  0.91197458  0.94460360  1.0
  C  C150  1  0.29902811  0.41197459  0.44460443  1.0
  C  C151  1  0.70097033  0.91197393  0.55539632  1.0
  C  C152  1  0.61208843  0.68151248  0.10020642  1.0
  C  C153  1  0.38791142  0.18151373  0.89979264  1.0
  C  C154  1  0.11208859  0.68151248  0.39979335  1.0
  C  C155  1  0.88791126  0.18151372  0.60020742  1.0
  C  C156  1  0.26005210  0.64755115  0.14238449  1.0
  C  C157  1  0.73994844  0.14755173  0.85761514  1.0
  C  C158  1  0.76005208  0.64754982  0.35761591  1.0
  C  C159  1  0.23994639  0.14755176  0.64238544  1.0
  C  C160  1  0.11284912  0.68448565  0.87283511  1.0
  C  C161  1  0.88715141  0.18448631  0.12716566  1.0
  C  C162  1  0.61284897  0.68448500  0.62716537  1.0
  C  C163  1  0.38715087  0.18448567  0.37283483  1.0
  C  C164  1  0.11008143  0.62136012  0.81631468  1.0
  C  C165  1  0.88991842  0.12136076  0.18368553  1.0
  C  C166  1  0.61008131  0.62136010  0.68368581  1.0
  C  C167  1  0.38991853  0.12136077  0.31631440  1.0
  C  C168  1  0.12129223  0.53397952  0.83647318  1.0
  C  C169  1  0.87870762  0.03398017  0.16352647  1.0
  C  C170  1  0.62129211  0.53397951  0.66352675  1.0
  C  C171  1  0.37870775  0.03398018  0.33647346  1.0
  C  C172  1  0.13362226  0.51457535  0.91400026  1.0
  C  C173  1  0.86637759  0.01457601  0.08599996  1.0
  C  C174  1  0.63362210  0.51457535  0.58599968  1.0
  C  C175  1  0.36637776  0.01457601  0.41400054  1.0
  C  C176  1  0.13486501  0.58161811  0.96685768  1.0
  C  C177  1  0.86513485  0.08161942  0.03314253  1.0
  C  C178  1  0.63486481  0.58161812  0.53314225  1.0
  C  C179  1  0.36513504  0.08161942  0.46685797  1.0
  C  C180  1  0.07891242  0.31919276  0.74178155  1.0
  C  C181  1  0.92108741  0.81919276  0.25821807  1.0
  C  C182  1  0.57891165  0.31919209  0.75821781  1.0
  C  C183  1  0.42108749  0.81919278  0.24178238  1.0
  C  C184  1  0.08775024  0.38151996  0.79841549  1.0
  C  C185  1  0.91224959  0.88152062  0.20158413  1.0
  C  C186  1  0.58775013  0.38151995  0.70158444  1.0
  C  C187  1  0.41224969  0.88152063  0.29841631  1.0
  C  C188  1  0.11764752  0.46485125  0.77856957  1.0
  C  C189  1  0.88235230  0.96485126  0.22143061  1.0
  C  C190  1  0.61764743  0.46485058  0.72143037  1.0
  C  C191  1  0.38235239  0.96485127  0.27856981  1.0
  C  C192  1  0.14133597  0.48026115  0.70214048  1.0
  C  C193  1  0.85866453  0.98026115  0.29785912  1.0
  C  C194  1  0.64133592  0.48026047  0.79785889  1.0
  C  C195  1  0.35866459  0.98026118  0.20214071  1.0
  C  C196  1  0.13267687  0.41370464  0.64937089  1.0
  C  C197  1  0.86732295  0.91370464  0.35062929  1.0
  C  C198  1  0.63267684  0.41370461  0.85062962  1.0
  C  C199  1  0.36732298  0.91370467  0.14937113  1.0
  C  C200  1  0.12201862  0.94979880  0.14664408  1.0
  C  C201  1  0.87798189  0.44979872  0.85335496  1.0
  C  C202  1  0.62201859  0.94979877  0.35335624  1.0
  C  C203  1  0.37798191  0.44979875  0.64664450  1.0
  C  C204  1  0.11614176  0.00429349  0.20951406  1.0
  C  C205  1  0.88385810  0.50429343  0.79048559  1.0
  C  C206  1  0.61614170  0.00429282  0.29048578  1.0
  C  C207  1  0.38385816  0.50429281  0.70951444  1.0
  C  C208  1  0.12561367  0.96938943  0.28303929  1.0
  C  C209  1  0.87438684  0.46938937  0.71696032  1.0
  C  C210  1  0.62561357  0.96938942  0.21696103  1.0
  C  C211  1  0.37438693  0.46938939  0.78303971  1.0
  C  C212  1  0.14180505  0.88018037  0.28929697  1.0
  C  C213  1  0.85819477  0.38018031  0.71070207  1.0
  C  C214  1  0.64180495  0.88018036  0.21070280  1.0
  C  C215  1  0.35819487  0.38018033  0.78929739  1.0
  C  C216  1  0.14722240  0.83038699  0.22333556  1.0
  C  C217  1  0.85277812  0.33038692  0.77666406  1.0
  C  C218  1  0.64722234  0.83038696  0.27666479  1.0
  C  C219  1  0.35277818  0.33038694  0.72333597  1.0
  C  C220  1  0.13847714  0.16122450  0.41550459  1.0
  C  C221  1  0.86152339  0.66122511  0.58449504  1.0
  C  C222  1  0.63847628  0.16122450  0.08449581  1.0
  C  C223  1  0.36152356  0.66122511  0.91550440  1.0
  C  C224  1  0.14792974  0.11067421  0.35046720  1.0
  C  C225  1  0.85207079  0.61067417  0.64953244  1.0
  C  C226  1  0.64792961  0.11067420  0.14953264  1.0
  C  C227  1  0.35207162  0.61067483  0.85046700  1.0
  C  C228  1  0.11725687  0.02453937  0.35133190  1.0
  C  C229  1  0.88274368  0.52453932  0.64866775  1.0
  C  C230  1  0.61725674  0.02453936  0.14866793  1.0
  C  C231  1  0.38274381  0.52453933  0.85133171  1.0
  C  C232  1  0.07812222  0.99297758  0.41904548  1.0
  C  C233  1  0.92187759  0.49297753  0.58095412  1.0
  C  C234  1  0.57812274  0.99297693  0.08095482  1.0
  C  C235  1  0.42187776  0.49297753  0.91904535  1.0
  C  C236  1  0.06861377  0.04870117  0.48087508  1.0
  C  C237  1  0.93138608  0.54870114  0.51912456  1.0
  C  C238  1  0.56861426  0.04870053  0.01912473  1.0
  C  C239  1  0.43138629  0.54870113  0.98087491  1.0
  N  N240  1  0.12528611  0.66508860  0.94673683  1.0
  N  N241  1  0.87471374  0.16508927  0.05326337  1.0
  N  N242  1  0.62528523  0.66508861  0.55326308  1.0
  N  N243  1  0.37471392  0.16508926  0.44673655  1.0
  N  N244  1  0.10050389  0.33515172  0.66859053  1.0
  N  N245  1  0.89949594  0.83515171  0.33140909  1.0
  N  N246  1  0.60050385  0.33515104  0.83140884  1.0
  N  N247  1  0.39949597  0.83515110  0.16859078  1.0
  N  N248  1  0.13744131  0.86435157  0.15327479  1.0
  N  N249  1  0.86255920  0.36435149  0.84672482  1.0
  N  N250  1  0.63744129  0.86435154  0.34672554  1.0
  N  N251  1  0.36255923  0.36435087  0.65327464  1.0
  N  N252  1  0.09778585  0.13126779  0.47919930  1.0
  N  N253  1  0.90221400  0.63126776  0.52080034  1.0
  N  N254  1  0.59778564  0.13126715  0.02080052  1.0
  N  N255  1  0.40221420  0.63126775  0.97919912  1.0
  O  O256  1  0.04165999  0.66392709  0.11788592  1.0
  O  O257  1  0.95833986  0.16392764  0.88211429  1.0
  O  O258  1  0.54165998  0.66392770  0.38211383  1.0
  O  O259  1  0.45833986  0.16392768  0.61788523  1.0
  O  O260  1  0.95777240  0.76326650  0.05575650  1.0
  O  O261  1  0.04222674  0.26326713  0.94424369  1.0
  O  O262  1  0.45777397  0.76326779  0.44424396  1.0
  O  O263  1  0.54222725  0.26326778  0.55575566  1.0
  O  O264  1  0.87837981  0.38759847  0.03129847  1.0
  O  O265  1  0.12161794  0.88759845  0.96870172  1.0
  O  O266  1  0.37838001  0.38759911  0.46870143  1.0
  O  O267  1  0.62161774  0.88759846  0.53129818  1.0
  O  O268  1  0.72680604  0.36616577  0.04866262  1.0
  O  O269  1  0.27319241  0.86616703  0.95133756  1.0
  O  O270  1  0.22680623  0.36616641  0.45133779  1.0
  O  O271  1  0.77319222  0.86616704  0.54866296  1.0
  O  O272  1  0.54668328  0.66944225  0.14892913  1.0
  O  O273  1  0.45331587  0.16944286  0.85107051  1.0
  O  O274  1  0.04668342  0.66944226  0.35107119  1.0
  O  O275  1  0.95331643  0.16944285  0.64892901  1.0
  O  O276  1  0.60165458  0.72378675  0.03896891  1.0
  O  O277  1  0.39834595  0.22378670  0.96103071  1.0
  O  O278  1  0.10165408  0.72378674  0.46103085  1.0
  O  O279  1  0.89834576  0.22378605  0.53896878  1.0
  O  O280  1  0.25737203  0.70686242  0.09035469  1.0
  O  O281  1  0.74262780  0.20686234  0.90964551  1.0
  O  O282  1  0.75737204  0.70686173  0.40964513  1.0
  O  O283  1  0.24262642  0.20686174  0.59035449  1.0
  O  O284  1  0.33383000  0.61933743  0.16996312  1.0
  O  O285  1  0.66616985  0.11933737  0.83003766  1.0
  O  O286  1  0.83382996  0.61933740  0.33003674  1.0
  O  O287  1  0.16616712  0.11934064  0.66996575  1.0
  O  O288  1  0.05583248  0.34374502  0.49478843  1.0
  O  O289  1  0.94416804  0.84374434  0.50521119  1.0
  O  O290  1  0.55583296  0.34374502  0.00521135  1.0
  O  O291  1  0.44416825  0.84374498  0.99478883  1.0
