# generated using pymatgen
data_Zn4H8C28S2Br2O13F4
_symmetry_space_group_name_H-M   'P 1'
_cell_length_a   18.57291681
_cell_length_b   19.74057066
_cell_length_c   32.86180871
_cell_angle_alpha   78.61642586
_cell_angle_beta   73.58478565
_cell_angle_gamma   61.93272209
_symmetry_Int_Tables_number   1
_chemical_formula_structural   Zn4H8C28S2Br2O13F4
_chemical_formula_sum   'Zn16 H32 C112 S8 Br8 O52 F16'
_cell_volume   10168.58004182
_cell_formula_units_Z   4
loop_
 _symmetry_equiv_pos_site_id
 _symmetry_equiv_pos_as_xyz
  1  'x, y, z'
loop_
 _atom_site_type_symbol
 _atom_site_label
 _atom_site_symmetry_multiplicity
 _atom_site_fract_x
 _atom_site_fract_y
 _atom_site_fract_z
 _atom_site_occupancy
  Zn  Zn0  1  0.60714093  0.44449644  0.51864930  1.0
  Zn  Zn1  1  0.52332629  0.51467548  0.43845660  1.0
  Zn  Zn2  1  0.43445541  0.60188154  0.52360021  1.0
  Zn  Zn3  1  0.43475762  0.43987052  0.51840512  1.0
  Zn  Zn4  1  0.64299959  0.80791292  0.73268426  1.0
  Zn  Zn5  1  0.80949138  0.65016961  0.72547644  1.0
  Zn  Zn6  1  0.72944081  0.73429508  0.81274687  1.0
  Zn  Zn7  1  0.81803428  0.80757197  0.72911994  1.0
  Zn  Zn8  1  0.22402887  0.23857284  0.31276747  1.0
  Zn  Zn9  1  0.31594394  0.30714510  0.23080998  1.0
  Zn  Zn10  1  0.14535689  0.30728975  0.22903964  1.0
  Zn  Zn11  1  0.31524669  0.14799481  0.22653254  1.0
  Zn  Zn12  1  0.94061665  0.09968063  0.02468603  1.0
  Zn  Zn13  1  0.92981110  0.94448823  0.01828272  1.0
  Zn  Zn14  1  0.10417327  0.94032676  0.01985203  1.0
  Zn  Zn15  1  0.02628984  0.01564553  0.93723894  1.0
  H  H16  1  0.83516066  0.51761129  0.62175644  1.0
  H  H17  1  0.78466280  0.47734968  0.66706363  1.0
  H  H18  1  0.73674194  0.42928774  0.61898114  1.0
  H  H19  1  0.78744426  0.46942972  0.57365741  1.0
  H  H20  1  0.21614184  0.32605702  0.43098481  1.0
  H  H21  1  0.30933493  0.23774572  0.42838721  1.0
  H  H22  1  0.35766175  0.28561196  0.47637422  1.0
  H  H23  1  0.26458353  0.37391341  0.47889064  1.0
  H  H24  1  0.02466492  0.23754859  0.42805762  1.0
  H  H25  1  0.02710650  0.32583239  0.43051001  1.0
  H  H26  1  0.88320236  0.37385002  0.47857183  1.0
  H  H27  1  0.88048617  0.28569731  0.47614461  1.0
  H  H28  1  0.03525718  0.82070082  0.63107761  1.0
  H  H29  1  0.08049633  0.78038854  0.67644466  1.0
  H  H30  1  0.22466705  0.73238211  0.62843037  1.0
  H  H31  1  0.17927799  0.77268609  0.58310252  1.0
  H  H32  1  0.22386395  0.92343218  0.81940562  1.0
  H  H33  1  0.22632441  0.01160686  0.82190337  1.0
  H  H34  1  0.37043320  0.96365806  0.77397595  1.0
  H  H35  1  0.36808391  0.87540169  0.77146354  1.0
  H  H36  1  0.85799696  0.78640816  0.97591988  1.0
  H  H37  1  0.76467083  0.87452813  0.97837278  1.0
  H  H38  1  0.71687823  0.82634082  0.93036254  1.0
  H  H39  1  0.81000753  0.73817080  0.92799900  1.0
  H  H40  1  0.66968585  0.96889490  0.07351665  1.0
  H  H41  1  0.71534075  0.92849968  0.11879725  1.0
  H  H42  1  0.57135685  0.97651221  0.16693818  1.0
  H  H43  1  0.52579910  0.01678588  0.12166646  1.0
  H  H44  1  0.96511280  0.27283657  0.08308154  1.0
  H  H45  1  0.91468634  0.23262525  0.12844612  1.0
  H  H46  1  0.96283845  0.28054510  0.17642225  1.0
  H  H47  1  0.01296395  0.32106822  0.13108705  1.0
  C  C48  1  0.70659532  0.43185808  0.43109534  1.0
  C  C49  1  0.43797119  0.68419907  0.43858292  1.0
  C  C50  1  0.56802920  0.56988697  0.56842892  1.0
  C  C51  1  0.29347601  0.56778813  0.56841992  1.0
  C  C52  1  0.56346054  0.31621439  0.56073970  1.0
  C  C53  1  0.43159759  0.43080153  0.43101343  1.0
  C  C54  1  0.67944641  0.68222790  0.68142817  1.0
  C  C55  1  0.81165645  0.56561445  0.81077199  1.0
  C  C56  1  0.54447161  0.81819136  0.81958963  1.0
  C  C57  1  0.82014807  0.81869494  0.81812405  1.0
  C  C58  1  0.68775467  0.93394639  0.68871445  1.0
  C  C59  1  0.95578101  0.68077568  0.68058814  1.0
  C  C60  1  0.31799478  0.31942061  0.31886774  1.0
  C  C61  1  0.18908453  0.43392404  0.18829317  1.0
  C  C62  1  0.04352236  0.31939528  0.31832225  1.0
  C  C63  1  0.18292658  0.18052349  0.18083577  1.0
  C  C64  1  0.31085732  0.06757346  0.31207802  1.0
  C  C65  1  0.45694498  0.18130728  0.18122911  1.0
  C  C66  1  0.79388555  0.06922163  0.06870842  1.0
  C  C67  1  0.05833132  0.81639071  0.06118591  1.0
  C  C68  1  0.06977495  0.06771661  0.06908577  1.0
  C  C69  1  0.20680381  0.93072118  0.93150438  1.0
  C  C70  1  0.93969831  0.18423996  0.93931935  1.0
  C  C71  1  0.93139960  0.93222419  0.93071103  1.0
  C  C72  1  0.66224350  0.19686290  0.60092165  1.0
  C  C73  1  0.58844828  0.05368692  0.64899778  1.0
  C  C74  1  0.58939903  0.24160053  0.58591734  1.0
  C  C75  1  0.66150962  0.00882717  0.66383064  1.0
  C  C76  1  0.58872967  0.12218614  0.62600643  1.0
  C  C77  1  0.66208103  0.12832259  0.62385526  1.0
  C  C78  1  0.42872334  0.77362001  0.36902468  1.0
  C  C79  1  0.32014189  0.97780162  0.38160844  1.0
  C  C80  1  0.41409881  0.75824142  0.41301334  1.0
  C  C81  1  0.33464420  0.99340546  0.33768046  1.0
  C  C82  1  0.35436055  0.89778700  0.39309336  1.0
  C  C83  1  0.39442858  0.85371727  0.35758021  1.0
  C  C84  1  0.64993300  0.65531690  0.65291456  1.0
  C  C85  1  0.59468076  0.59957431  0.59701806  1.0
  C  C86  1  0.69697467  0.58298603  0.63647258  1.0
  C  C87  1  0.54659433  0.67263646  0.61342178  1.0
  C  C88  1  0.67064969  0.55645375  0.60985731  1.0
  C  C89  1  0.57314279  0.69940406  0.64023517  1.0
  C  C90  1  0.77807637  0.51007479  0.63606289  1.0
  C  C91  1  0.74814026  0.47992255  0.60591809  1.0
  C  C92  1  0.34765689  0.34797800  0.34643514  1.0
  C  C93  1  0.40387713  0.40325936  0.40198713  1.0
  C  C94  1  0.32903627  0.33626615  0.39078963  1.0
  C  C95  1  0.42317206  0.41554579  0.35724062  1.0
  C  C96  1  0.35584178  0.36255134  0.41724526  1.0
  C  C97  1  0.39623566  0.38889782  0.33053640  1.0
  C  C98  1  0.28417991  0.30059619  0.42752405  1.0
  C  C99  1  0.31452820  0.33056658  0.45756836  1.0
  C  C100  1  0.95771123  0.34785210  0.34605862  1.0
  C  C101  1  0.79080802  0.40364977  0.40193223  1.0
  C  C102  1  0.94391633  0.33613923  0.39044424  1.0
  C  C103  1  0.80371522  0.41569302  0.35718971  1.0
  C  C104  1  0.86446401  0.36268344  0.41701864  1.0
  C  C105  1  0.88390929  0.38881411  0.33037913  1.0
  C  C106  1  0.98789958  0.30040461  0.42713901  1.0
  C  C107  1  0.89762747  0.33054620  0.45728625  1.0
  C  C108  1  0.04127422  0.65061722  0.65261103  1.0
  C  C109  1  0.20853108  0.59469814  0.59700217  1.0
  C  C110  1  0.08713372  0.69356092  0.64000965  1.0
  C  C111  1  0.16310403  0.55063474  0.60962605  1.0
  C  C112  1  0.16676381  0.66697529  0.61352154  1.0
  C  C113  1  0.08285457  0.57744878  0.63631745  1.0
  C  C114  1  0.08413496  0.76999276  0.64413964  1.0
  C  C115  1  0.17443592  0.73988579  0.61407132  1.0
  C  C116  1  0.88098384  0.41651023  0.82088808  1.0
  C  C117  1  0.86897430  0.33333333  0.92927568  1.0
  C  C118  1  0.83713579  0.49022050  0.83506502  1.0
  C  C119  1  0.91322534  0.25968098  0.91505488  1.0
  C  C120  1  0.85723240  0.39055504  0.89495539  1.0
  C  C121  1  0.89266239  0.35930435  0.85517851  1.0
  C  C122  1  0.29271221  0.90175548  0.90395968  1.0
  C  C123  1  0.45997918  0.84600510  0.84852643  1.0
  C  C124  1  0.30689712  0.91324786  0.85957710  1.0
  C  C125  1  0.44656308  0.83411047  0.89325381  1.0
  C  C126  1  0.38653749  0.88668608  0.83314211  1.0
  C  C127  1  0.36625432  0.86083040  0.91990021  1.0
  C  C128  1  0.26312861  0.94877503  0.82282707  1.0
  C  C129  1  0.35347692  0.91868392  0.79279859  1.0
  C  C130  1  0.90418459  0.90414726  0.90159483  1.0
  C  C131  1  0.84897866  0.84795997  0.84584414  1.0
  C  C132  1  0.85619187  0.86334879  0.91677426  1.0
  C  C133  1  0.89738172  0.88904797  0.83011178  1.0
  C  C134  1  0.82990719  0.83657362  0.89024732  1.0
  C  C135  1  0.92393247  0.91595818  0.85685539  1.0
  C  C136  1  0.81484881  0.83126349  0.95706855  1.0
  C  C137  1  0.78487187  0.80101875  0.92698804  1.0
  C  C138  1  0.20814457  0.55366677  0.14884045  1.0
  C  C139  1  0.03891913  0.69692473  0.10102506  1.0
  C  C140  1  0.16504730  0.50883449  0.16362354  1.0
  C  C141  1  0.08195165  0.74171499  0.08615116  1.0
  C  C142  1  0.08475644  0.62838191  0.12389821  1.0
  C  C143  1  0.16208462  0.62228578  0.12602633  1.0
  C  C144  1  0.70886492  0.09891070  0.09709271  1.0
  C  C145  1  0.54191808  0.15446759  0.15281291  1.0
  C  C146  1  0.66330609  0.05570945  0.10982491  1.0
  C  C147  1  0.58710584  0.19878382  0.14016773  1.0
  C  C148  1  0.58383630  0.08215520  0.13640402  1.0
  C  C149  1  0.66734388  0.17202344  0.11345589  1.0
  C  C150  1  0.66635141  0.97919934  0.10579002  1.0
  C  C151  1  0.57611943  0.00926943  0.13595019  1.0
  C  C152  1  0.09977508  0.09480554  0.09721963  1.0
  C  C153  1  0.15575174  0.15066172  0.15262071  1.0
  C  C154  1  0.05294133  0.16723781  0.11355127  1.0
  C  C155  1  0.20357296  0.07747491  0.13636307  1.0
  C  C156  1  0.07957325  0.19384329  0.13996674  1.0
  C  C157  1  0.17672115  0.05061918  0.10974468  1.0
  C  C158  1  0.97178085  0.24011150  0.11407641  1.0
  C  C159  1  0.00191952  0.27025919  0.14411858  1.0
  S  S160  1  0.52042329  0.19976014  0.60000060  1.0
  S  S161  1  0.73054893  0.05061841  0.64969250  1.0
  S  S162  1  0.35848184  0.84170704  0.44032691  1.0
  S  S163  1  0.39021626  0.90993930  0.31036269  1.0
  S  S164  1  0.81001404  0.48945163  0.89048800  1.0
  S  S165  1  0.94025270  0.26038062  0.85965680  1.0
  S  S166  1  0.06819937  0.55065092  0.14964636  1.0
  S  S167  1  0.17874413  0.69993275  0.10018401  1.0
  Br  Br168  1  0.75322392  0.21912389  0.59343512  1.0
  Br  Br169  1  0.49757557  0.03141587  0.65643399  1.0
  Br  Br170  1  0.48543926  0.70200602  0.32750214  1.0
  Br  Br171  1  0.26332701  0.04932800  0.42332632  1.0
  Br  Br172  1  0.92283768  0.38980411  0.76428569  1.0
  Br  Br173  1  0.82714316  0.35995845  0.98586866  1.0
  Br  Br174  1  0.31380019  0.53144399  0.15617988  1.0
  Br  Br175  1  0.93321974  0.71921977  0.09345256  1.0
  O  O176  1  0.49984994  0.49976721  0.50084465  1.0
  O  O177  1  0.70569758  0.41671641  0.47089673  1.0
  O  O178  1  0.47931847  0.62355355  0.41849157  1.0
  O  O179  1  0.49760861  0.61279447  0.55876047  1.0
  O  O180  1  0.64335409  0.46823315  0.41433211  1.0
  O  O181  1  0.61975891  0.50273386  0.55610933  1.0
  O  O182  1  0.41465242  0.68769415  0.47907822  1.0
  O  O183  1  0.32480190  0.61580858  0.55949663  1.0
  O  O184  1  0.49229409  0.34280348  0.55104327  1.0
  O  O185  1  0.32722390  0.50076395  0.55542001  1.0
  O  O186  1  0.61320758  0.34728036  0.55091080  1.0
  O  O187  1  0.47340305  0.46888948  0.41424751  1.0
  O  O188  1  0.41040858  0.41340501  0.47074394  1.0
  O  O189  1  0.75038555  0.75026897  0.75021482  1.0
  O  O190  1  0.63262429  0.74872178  0.69501685  1.0
  O  O191  1  0.82943738  0.56590345  0.77038997  1.0
  O  O192  1  0.60807937  0.78128256  0.83609871  1.0
  O  O193  1  0.75060118  0.63478426  0.68970227  1.0
  O  O194  1  0.54488107  0.83454067  0.77987694  1.0
  O  O195  1  0.77351423  0.62442908  0.83283695  1.0
  O  O196  1  0.77819092  0.78129636  0.83766597  1.0
  O  O197  1  0.76059029  0.90536672  0.69678122  1.0
  O  O198  1  0.83915009  0.83293797  0.77810942  1.0
  O  O199  1  0.63648057  0.90448060  0.69992339  1.0
  O  O200  1  0.91897072  0.63750721  0.69039522  1.0
  O  O201  1  0.92693906  0.74859581  0.69219059  1.0
  O  O202  1  0.24907030  0.24926001  0.25027903  1.0
  O  O203  1  0.27409409  0.28374089  0.33831089  1.0
  O  O204  1  0.25935878  0.40406130  0.19876943  1.0
  O  O205  1  0.05019234  0.33215795  0.27830494  1.0
  O  O206  1  0.33830633  0.33269292  0.27888525  1.0
  O  O207  1  0.10337058  0.28428053  0.33798297  1.0
  O  O208  1  0.13655983  0.40543067  0.19700338  1.0
  O  O209  1  0.13240838  0.24856113  0.19216493  1.0
  O  O210  1  0.33440573  0.06343435  0.27166228  1.0
  O  O211  1  0.25267721  0.13697988  0.19116149  1.0
  O  O212  1  0.26969000  0.12840107  0.33204334  1.0
  O  O213  1  0.42302443  0.24875935  0.19364383  1.0
  O  O214  1  0.42549453  0.13333269  0.19063905  1.0
  O  O215  1  0.99952553  0.99984360  0.99966470  1.0
  O  O216  1  0.83138884  0.11181634  0.05967845  1.0
  O  O217  1  0.98786893  0.84727811  0.05078587  1.0
  O  O218  1  0.11535564  0.00033575  0.05651031  1.0
  O  O219  1  0.82158983  0.00245890  0.05592043  1.0
  O  O220  1  0.99940872  0.11580657  0.06008546  1.0
  O  O221  1  0.11210717  0.84342834  0.05220089  1.0
  O  O222  1  0.20000643  0.91522559  0.97143328  1.0
  O  O223  1  0.98060875  0.12550531  0.91714399  1.0
  O  O224  1  0.14696860  0.96902482  0.91201142  1.0
  O  O225  1  0.92008584  0.18391368  0.97969407  1.0
  O  O226  1  0.90700497  0.91721369  0.97043631  1.0
  O  O227  1  0.97568021  0.96805763  0.91409395  1.0
  F  F228  1  0.47158565  0.72150049  0.60420054  1.0
  F  F229  1  0.52025707  0.77051950  0.65330510  1.0
  F  F230  1  0.46898298  0.45382064  0.33736018  1.0
  F  F231  1  0.41971802  0.40499824  0.28848104  1.0
  F  F232  1  0.73935830  0.45414083  0.33741380  1.0
  F  F233  1  0.88610703  0.40486611  0.28832268  1.0
  F  F234  1  0.19439297  0.47955018  0.59648861  1.0
  F  F235  1  0.04748072  0.52856736  0.64543820  1.0
  F  F236  1  0.51083764  0.79609922  0.91317137  1.0
  F  F237  1  0.36368581  0.84510347  0.96198215  1.0
  F  F238  1  0.92132486  0.90487359  0.78800061  1.0
  F  F239  1  0.96991190  0.95420071  0.83698826  1.0
  F  F240  1  0.55574930  0.26987031  0.15318310  1.0
  F  F241  1  0.70261118  0.22096189  0.10423854  1.0
  F  F242  1  0.27867765  0.02862415  0.14548807  1.0
  F  F243  1  0.22939697  0.97956723  0.09665672  1.0
