# generated using pymatgen
data_Zn4H24C48O13
_symmetry_space_group_name_H-M   'P 1'
_cell_length_a   19.94910510
_cell_length_b   27.87825509
_cell_length_c   27.99723145
_cell_angle_alpha   89.99997453
_cell_angle_beta   89.99998507
_cell_angle_gamma   89.99999007
_symmetry_Int_Tables_number   1
_chemical_formula_structural   Zn4H24C48O13
_chemical_formula_sum   'Zn16 H96 C192 O52'
_cell_volume   15570.55502358
_cell_formula_units_Z   4
loop_
 _symmetry_equiv_pos_site_id
 _symmetry_equiv_pos_as_xyz
  1  'x, y, z'
loop_
 _atom_site_type_symbol
 _atom_site_label
 _atom_site_symmetry_multiplicity
 _atom_site_fract_x
 _atom_site_fract_y
 _atom_site_fract_z
 _atom_site_occupancy
  Zn  Zn0  1  0.68551672  0.94296556  0.38403070  1.0
  Zn  Zn1  1  0.81448336  0.55703454  0.88403057  1.0
  Zn  Zn2  1  0.68551632  0.05703457  0.38403054  1.0
  Zn  Zn3  1  0.81448338  0.44296571  0.88403060  1.0
  Zn  Zn4  1  0.80140824  0.00000014  0.43996000  1.0
  Zn  Zn5  1  0.80237071  0.00000016  0.32794428  1.0
  Zn  Zn6  1  0.69859144  0.50000012  0.93996005  1.0
  Zn  Zn7  1  0.69762901  0.50000015  0.82794433  1.0
  Zn  Zn8  1  0.31448349  0.94296553  0.61596938  1.0
  Zn  Zn9  1  0.18551644  0.55703439  0.11596933  1.0
  Zn  Zn10  1  0.31448360  0.05703419  0.61596958  1.0
  Zn  Zn11  1  0.18551646  0.44296592  0.11596935  1.0
  Zn  Zn12  1  0.19859170  0.00000015  0.56004014  1.0
  Zn  Zn13  1  0.19762923  0.00000012  0.67205586  1.0
  Zn  Zn14  1  0.30140837  0.49999998  0.06004023  1.0
  Zn  Zn15  1  0.30237080  0.49999996  0.17205595  1.0
  H  H16  1  0.63604381  0.84981588  0.49659864  1.0
  H  H17  1  0.62961695  0.79106326  0.56387316  1.0
  H  H18  1  0.81257853  0.84945929  0.62226248  1.0
  H  H19  1  0.81793416  0.90786719  0.55492831  1.0
  H  H20  1  0.81702233  0.74072218  0.73188763  1.0
  H  H21  1  0.82622274  0.67375923  0.79080954  1.0
  H  H22  1  0.65505919  0.60500351  0.72781263  1.0
  H  H23  1  0.64369377  0.67238866  0.66958579  1.0
  H  H24  1  0.35383428  0.07743329  0.38026948  1.0
  H  H25  1  0.47912461  0.07701790  0.37694485  1.0
  H  H26  1  0.86395623  0.65018417  0.99659810  1.0
  H  H27  1  0.87038274  0.70893662  0.06387337  1.0
  H  H28  1  0.68742115  0.65054057  0.12226238  1.0
  H  H29  1  0.68206604  0.59213306  0.05492824  1.0
  H  H30  1  0.68297781  0.75927798  0.23188748  1.0
  H  H31  1  0.67377688  0.82624091  0.29080937  1.0
  H  H32  1  0.84494145  0.89499630  0.22781311  1.0
  H  H33  1  0.85630639  0.82761081  0.16958594  1.0
  H  H34  1  0.14616568  0.42256634  0.88026958  1.0
  H  H35  1  0.02087535  0.42298173  0.87694462  1.0
  H  H36  1  0.63604340  0.15018421  0.49659808  1.0
  H  H37  1  0.62961702  0.20893644  0.56387329  1.0
  H  H38  1  0.81257861  0.15054036  0.62226228  1.0
  H  H39  1  0.81793376  0.09213321  0.55492813  1.0
  H  H40  1  0.81702189  0.25927813  0.73188738  1.0
  H  H41  1  0.82622278  0.32624106  0.79080926  1.0
  H  H42  1  0.65505821  0.39499611  0.72781303  1.0
  H  H43  1  0.64369331  0.32761099  0.66958586  1.0
  H  H44  1  0.35383417  0.92256617  0.38026929  1.0
  H  H45  1  0.47912451  0.92298190  0.37694431  1.0
  H  H46  1  0.86395576  0.34981602  0.99659853  1.0
  H  H47  1  0.87038329  0.29106363  0.06387346  1.0
  H  H48  1  0.68742118  0.34945968  0.12226209  1.0
  H  H49  1  0.68206556  0.40786722  0.05492828  1.0
  H  H50  1  0.68297737  0.24072186  0.23188760  1.0
  H  H51  1  0.67377746  0.17375926  0.29080915  1.0
  H  H52  1  0.84494255  0.10500317  0.22781293  1.0
  H  H53  1  0.85630697  0.17238903  0.16958572  1.0
  H  H54  1  0.14616566  0.57743364  0.88026954  1.0
  H  H55  1  0.02087533  0.57701827  0.87694494  1.0
  H  H56  1  0.00727778  0.00000003  0.30966804  1.0
  H  H57  1  0.13262738  0.00000021  0.30767805  1.0
  H  H58  1  0.13665009  0.00000017  0.46164649  1.0
  H  H59  1  0.01144197  0.00000018  0.46293806  1.0
  H  H60  1  0.49272208  0.50000016  0.80966790  1.0
  H  H61  1  0.36737260  0.50000017  0.80767807  1.0
  H  H62  1  0.36334983  0.50000014  0.96164687  1.0
  H  H63  1  0.48855796  0.50000013  0.96293806  1.0
  H  H64  1  0.36395592  0.84981589  0.50340148  1.0
  H  H65  1  0.37038329  0.79106366  0.43612663  1.0
  H  H66  1  0.18742121  0.84945974  0.37773765  1.0
  H  H67  1  0.18206556  0.90786725  0.44507179  1.0
  H  H68  1  0.18297743  0.74072197  0.26811255  1.0
  H  H69  1  0.17377704  0.67375904  0.20919066  1.0
  H  H70  1  0.34494261  0.60500328  0.27218725  1.0
  H  H71  1  0.35630651  0.67238912  0.33041406  1.0
  H  H72  1  0.64616564  0.07743393  0.61973063  1.0
  H  H73  1  0.52087531  0.07701821  0.62305526  1.0
  H  H74  1  0.13604406  0.65018408  0.00340175  1.0
  H  H75  1  0.12961652  0.70893648  0.93612682  1.0
  H  H76  1  0.31257863  0.65054043  0.87773783  1.0
  H  H77  1  0.31793426  0.59213288  0.94507164  1.0
  H  H78  1  0.31702195  0.75927789  0.76811268  1.0
  H  H79  1  0.32622236  0.82624084  0.70919077  1.0
  H  H80  1  0.15505727  0.89499694  0.77218700  1.0
  H  H81  1  0.14369335  0.82761107  0.83041420  1.0
  H  H82  1  0.85383416  0.42256647  0.11973038  1.0
  H  H83  1  0.97912449  0.42298183  0.12305534  1.0
  H  H84  1  0.36395650  0.15018423  0.50340200  1.0
  H  H85  1  0.37038286  0.20893648  0.43612676  1.0
  H  H86  1  0.18742129  0.15054046  0.37773780  1.0
  H  H87  1  0.18206616  0.09213291  0.44507197  1.0
  H  H88  1  0.18297749  0.25927828  0.26811265  1.0
  H  H89  1  0.17377708  0.32624088  0.20919074  1.0
  H  H90  1  0.34494163  0.39499623  0.27218694  1.0
  H  H91  1  0.35630655  0.32761072  0.33041414  1.0
  H  H92  1  0.64616604  0.92256646  0.61973080  1.0
  H  H93  1  0.52087521  0.92298184  0.62305543  1.0
  H  H94  1  0.13604409  0.34981593  0.00340146  1.0
  H  H95  1  0.12961657  0.29106348  0.93612656  1.0
  H  H96  1  0.31257867  0.34945953  0.87773754  1.0
  H  H97  1  0.31793428  0.40786704  0.94507168  1.0
  H  H98  1  0.31702201  0.24072212  0.76811244  1.0
  H  H99  1  0.32622244  0.17375919  0.70919020  1.0
  H  H100  1  0.15505837  0.10500381  0.77218682  1.0
  H  H101  1  0.14369343  0.17238893  0.83041434  1.0
  H  H102  1  0.85383414  0.57743376  0.11973070  1.0
  H  H103  1  0.97912497  0.57701838  0.12305531  1.0
  H  H104  1  0.99272204  0.00000007  0.69033224  1.0
  H  H105  1  0.86737255  0.00000008  0.69232209  1.0
  H  H106  1  0.86335035  0.00000011  0.53835330  1.0
  H  H107  1  0.98855797  0.00000010  0.53706173  1.0
  H  H108  1  0.50727824  0.49999994  0.19033202  1.0
  H  H109  1  0.63262772  0.49999993  0.19232185  1.0
  H  H110  1  0.63664998  0.49999997  0.03835341  1.0
  H  H111  1  0.51144236  0.49999997  0.03706187  1.0
  C  C112  1  0.73405572  0.91468830  0.47973338  1.0
  C  C113  1  0.72785695  0.88176299  0.52140751  1.0
  C  C114  1  0.67422898  0.84932409  0.52439032  1.0
  C  C115  1  0.67068997  0.81677218  0.56181974  1.0
  C  C116  1  0.72129524  0.81586107  0.59715787  1.0
  C  C117  1  0.77388106  0.84975522  0.59478941  1.0
  C  C118  1  0.77693934  0.88220777  0.55731034  1.0
  C  C119  1  0.72125313  0.78046394  0.63329038  1.0
  C  C120  1  0.72446781  0.74868719  0.66324228  1.0
  C  C121  1  0.72953871  0.71110449  0.69694026  1.0
  C  C122  1  0.78130294  0.71114142  0.73141152  1.0
  C  C123  1  0.78663300  0.67385931  0.76404083  1.0
  C  C124  1  0.74125252  0.63539816  0.76277286  1.0
  C  C125  1  0.68990085  0.63504341  0.72849018  1.0
  C  C126  1  0.68363942  0.67249555  0.69615519  1.0
  C  C127  1  0.74751395  0.59504950  0.79749415  1.0
  C  C128  1  0.38154029  0.04372816  0.37940511  1.0
  C  C129  1  0.45108777  0.04351940  0.37759564  1.0
  C  C130  1  0.76594432  0.58531176  0.97973360  1.0
  C  C131  1  0.77214277  0.61823656  0.02140741  1.0
  C  C132  1  0.82577173  0.65067582  0.02438984  1.0
  C  C133  1  0.82931023  0.68322770  0.06181960  1.0
  C  C134  1  0.77870444  0.68413880  0.09715738  1.0
  C  C135  1  0.72611863  0.65024465  0.09478931  1.0
  C  C136  1  0.72306086  0.61779212  0.05731025  1.0
  C  C137  1  0.77874654  0.71953627  0.13329024  1.0
  C  C138  1  0.77553185  0.75131300  0.16324248  1.0
  C  C139  1  0.77046093  0.78889534  0.19694044  1.0
  C  C140  1  0.71869720  0.78885874  0.23141171  1.0
  C  C141  1  0.71336763  0.82614048  0.26404100  1.0
  C  C142  1  0.75874811  0.86460164  0.26277336  1.0
  C  C143  1  0.81009929  0.86495604  0.22849033  1.0
  C  C144  1  0.81636073  0.82750428  0.19615535  1.0
  C  C145  1  0.75248616  0.90495028  0.29749429  1.0
  C  C146  1  0.11845967  0.45627182  0.87940520  1.0
  C  C147  1  0.04891219  0.45648059  0.87759574  1.0
  C  C148  1  0.73405582  0.08531178  0.47973356  1.0
  C  C149  1  0.72785704  0.11823672  0.52140732  1.0
  C  C150  1  0.67422806  0.15067563  0.52438976  1.0
  C  C151  1  0.67068955  0.18322751  0.56181988  1.0
  C  C152  1  0.72129532  0.18413896  0.59715765  1.0
  C  C153  1  0.77388114  0.15024480  0.59478956  1.0
  C  C154  1  0.77693893  0.11779228  0.55731015  1.0
  C  C155  1  0.72125320  0.21953644  0.63329050  1.0
  C  C156  1  0.72446787  0.25131281  0.66324239  1.0
  C  C157  1  0.72953826  0.28889550  0.69694035  1.0
  C  C158  1  0.78130248  0.28885890  0.73141161  1.0
  C  C159  1  0.78663254  0.32614064  0.76404090  1.0
  C  C160  1  0.74125205  0.36460180  0.76277327  1.0
  C  C161  1  0.68990038  0.36495621  0.72849024  1.0
  C  C162  1  0.68363846  0.32750409  0.69615527  1.0
  C  C163  1  0.74751347  0.40495044  0.79749420  1.0
  C  C164  1  0.38154018  0.95627165  0.37940670  1.0
  C  C165  1  0.45108766  0.95648041  0.37759615  1.0
  C  C166  1  0.76594434  0.41468845  0.97973364  1.0
  C  C167  1  0.77214279  0.38176337  0.02140746  1.0
  C  C168  1  0.82577077  0.34932374  0.02439097  1.0
  C  C169  1  0.82930977  0.31677256  0.06182004  1.0
  C  C170  1  0.77870499  0.31586109  0.09715925  1.0
  C  C171  1  0.72611867  0.34975525  0.09478973  1.0
  C  C172  1  0.72306039  0.38220743  0.05731030  1.0
  C  C173  1  0.77874860  0.28046396  0.13329355  1.0
  C  C174  1  0.77553241  0.24868829  0.16324294  1.0
  C  C175  1  0.77046150  0.21110451  0.19694057  1.0
  C  C176  1  0.71869727  0.21114145  0.23141184  1.0
  C  C177  1  0.71336771  0.17385898  0.26404043  1.0
  C  C178  1  0.75874719  0.13539782  0.26277174  1.0
  C  C179  1  0.81009787  0.13504379  0.22848977  1.0
  C  C180  1  0.81636131  0.17249520  0.19615550  1.0
  C  C181  1  0.75248576  0.09504916  0.29749411  1.0
  C  C182  1  0.11845966  0.54372816  0.87940554  1.0
  C  C183  1  0.04891218  0.54351940  0.87759572  1.0
  C  C184  1  0.92714822  0.00000014  0.38686117  1.0
  C  C185  1  0.00189519  0.00000020  0.38638478  1.0
  C  C186  1  0.03624210  0.00000021  0.34263366  1.0
  C  C187  1  0.10577104  0.00000020  0.34157319  1.0
  C  C188  1  0.14275665  0.00000019  0.38457101  1.0
  C  C189  1  0.10806285  0.00000018  0.42852179  1.0
  C  C190  1  0.03843266  0.00000019  0.42917865  1.0
  C  C191  1  0.21376885  0.00000019  0.38347090  1.0
  C  C192  1  0.27487786  0.00000090  0.38217362  1.0
  C  C193  1  0.34586639  0.00000000  0.38038679  1.0
  C  C194  1  0.48644362  0.99999999  0.37675249  1.0
  C  C195  1  0.56120287  0.99999998  0.37617885  1.0
  C  C196  1  0.57285148  0.50000014  0.88686088  1.0
  C  C197  1  0.49810477  0.50000014  0.88638477  1.0
  C  C198  1  0.46375787  0.50000016  0.84263366  1.0
  C  C199  1  0.39422894  0.50000016  0.84157321  1.0
  C  C200  1  0.35724331  0.50000015  0.88457104  1.0
  C  C201  1  0.39193709  0.50000014  0.92852181  1.0
  C  C202  1  0.46156728  0.50000014  0.92917865  1.0
  C  C203  1  0.28623110  0.50000016  0.88347093  1.0
  C  C204  1  0.22512260  0.49999909  0.88217367  1.0
  C  C205  1  0.15413345  0.49999981  0.88038671  1.0
  C  C206  1  0.01355621  0.50000018  0.87675244  1.0
  C  C207  1  0.93879722  0.50000012  0.87617872  1.0
  C  C208  1  0.26594399  0.91468832  0.52026636  1.0
  C  C209  1  0.27214328  0.88176338  0.47859260  1.0
  C  C210  1  0.32577075  0.84932376  0.47560910  1.0
  C  C211  1  0.32931027  0.81677259  0.43818004  1.0
  C  C212  1  0.27870500  0.81586114  0.40284084  1.0
  C  C213  1  0.22611918  0.84975530  0.40521036  1.0
  C  C214  1  0.22306088  0.88220747  0.44268941  1.0
  C  C215  1  0.27874862  0.78046367  0.36670620  1.0
  C  C216  1  0.27553245  0.74868837  0.33675718  1.0
  C  C217  1  0.27046105  0.71110461  0.30305957  1.0
  C  C218  1  0.21869683  0.71114120  0.26858831  1.0
  C  C219  1  0.21336778  0.67385911  0.23595938  1.0
  C  C220  1  0.25874726  0.63539759  0.23722808  1.0
  C  C221  1  0.31009793  0.63504354  0.27151039  1.0
  C  C222  1  0.31636136  0.67249530  0.30384465  1.0
  C  C223  1  0.25248584  0.59504930  0.20250608  1.0
  C  C224  1  0.61846014  0.04372810  0.62059501  1.0
  C  C225  1  0.54891316  0.04351934  0.62240413  1.0
  C  C226  1  0.23405547  0.58531165  0.02026664  1.0
  C  C227  1  0.22785652  0.61823674  0.97859282  1.0
  C  C228  1  0.17422905  0.65067636  0.97560931  1.0
  C  C229  1  0.17069005  0.68322755  0.93817988  1.0
  C  C230  1  0.22129483  0.68413901  0.90284103  1.0
  C  C231  1  0.27388115  0.65024449  0.90521019  1.0
  C  C232  1  0.27693893  0.61779267  0.94268962  1.0
  C  C233  1  0.22125122  0.71953650  0.86670638  1.0
  C  C234  1  0.22446741  0.75131217  0.83675734  1.0
  C  C235  1  0.22953831  0.78889559  0.80305971  1.0
  C  C236  1  0.28130305  0.78885901  0.76858808  1.0
  C  C237  1  0.28663211  0.82614076  0.73595949  1.0
  C  C238  1  0.24125263  0.86460228  0.73722818  1.0
  C  C239  1  0.18990194  0.86495632  0.77151015  1.0
  C  C240  1  0.18363800  0.82750454  0.80384443  1.0
  C  C241  1  0.24751406  0.90495058  0.70250581  1.0
  C  C242  1  0.88154016  0.45627195  0.12059474  1.0
  C  C243  1  0.95108764  0.45648071  0.12240420  1.0
  C  C244  1  0.26594409  0.08531145  0.52026654  1.0
  C  C245  1  0.27214337  0.11823676  0.47859277  1.0
  C  C246  1  0.32577184  0.15067566  0.47561032  1.0
  C  C247  1  0.32931035  0.18322756  0.43818054  1.0
  C  C248  1  0.27870508  0.18413868  0.40284241  1.0
  C  C249  1  0.22611926  0.15024452  0.40521051  1.0
  C  C250  1  0.22306098  0.11779198  0.44268994  1.0
  C  C251  1  0.27874668  0.21953616  0.36670954  1.0
  C  C252  1  0.27553200  0.25131291  0.33675729  1.0
  C  C253  1  0.27046110  0.28889525  0.30305966  1.0
  C  C254  1  0.21869738  0.28885868  0.26858840  1.0
  C  C255  1  0.21336732  0.32614043  0.23595910  1.0
  C  C256  1  0.25874830  0.36460159  0.23722671  1.0
  C  C257  1  0.31009947  0.36495633  0.27150974  1.0
  C  C258  1  0.31636090  0.32750420  0.30384473  1.0
  C  C259  1  0.25248637  0.40495025  0.20250577  1.0
  C  C260  1  0.61846053  0.95627194  0.62059481  1.0
  C  C261  1  0.54891305  0.95648071  0.62240428  1.0
  C  C262  1  0.23405550  0.41468834  0.02026632  1.0
  C  C263  1  0.22785655  0.38176319  0.97859251  1.0
  C  C264  1  0.17422858  0.34932429  0.97560973  1.0
  C  C265  1  0.17068959  0.31677240  0.93818032  1.0
  C  C266  1  0.22129537  0.31586130  0.90284218  1.0
  C  C267  1  0.27388119  0.34975546  0.90521062  1.0
  C  C268  1  0.27693946  0.38220798  0.94268967  1.0
  C  C269  1  0.22125328  0.28046383  0.86670969  1.0
  C  C270  1  0.22446797  0.24868710  0.83675780  1.0
  C  C271  1  0.22953888  0.21110477  0.80305948  1.0
  C  C272  1  0.28130262  0.21114136  0.76858821  1.0
  C  C273  1  0.28663219  0.17385926  0.73595856  1.0
  C  C274  1  0.24125271  0.13539882  0.73722763  1.0
  C  C275  1  0.18990103  0.13504370  0.77150960  1.0
  C  C276  1  0.18363858  0.17249583  0.80384457  1.0
  C  C277  1  0.24751366  0.09504946  0.70250599  1.0
  C  C278  1  0.88154014  0.54372828  0.12059508  1.0
  C  C279  1  0.95108763  0.54351951  0.12240454  1.0
  C  C280  1  0.07285171  0.00000014  0.61313898  1.0
  C  C281  1  0.99810525  0.00000009  0.61361537  1.0
  C  C282  1  0.96375784  0.00000008  0.65736648  1.0
  C  C283  1  0.89422990  0.00000008  0.65842731  1.0
  C  C284  1  0.85724329  0.00000009  0.61542877  1.0
  C  C285  1  0.89193759  0.00000010  0.57147800  1.0
  C  C286  1  0.96156778  0.00000010  0.57082114  1.0
  C  C287  1  0.78623509  0.00000010  0.61652853  1.0
  C  C288  1  0.72512107  0.00000010  0.61782617  1.0
  C  C289  1  0.65413443  0.00000011  0.61961349  1.0
  C  C290  1  0.51355619  0.00000011  0.62324744  1.0
  C  C291  1  0.43879695  0.00000012  0.62382143  1.0
  C  C292  1  0.42714834  0.49999996  0.11313904  1.0
  C  C293  1  0.50189505  0.49999996  0.11361515  1.0
  C  C294  1  0.53624195  0.49999995  0.15736626  1.0
  C  C295  1  0.60577088  0.49999994  0.15842707  1.0
  C  C296  1  0.64275651  0.49999995  0.11542889  1.0
  C  C297  1  0.60806273  0.49999996  0.07147812  1.0
  C  C298  1  0.53843254  0.49999997  0.07082127  1.0
  C  C299  1  0.71376872  0.49999994  0.11652935  1.0
  C  C300  1  0.77487722  0.49999994  0.11782590  1.0
  C  C301  1  0.84586637  0.49999994  0.11961357  1.0
  C  C302  1  0.98644360  0.49999993  0.12324749  1.0
  C  C303  1  0.06120310  0.49999998  0.12382120  1.0
  O  O304  1  0.69053849  0.91059982  0.44646867  1.0
  O  O305  1  0.78325893  0.94404092  0.48037450  1.0
  O  O306  1  0.78894087  0.60056239  0.83189184  1.0
  O  O307  1  0.71077848  0.55824591  0.78990842  1.0
  O  O308  1  0.59034965  0.04084885  0.37610548  1.0
  O  O309  1  0.80946157  0.58939990  0.94646888  1.0
  O  O310  1  0.71674061  0.55595878  0.98037475  1.0
  O  O311  1  0.71105923  0.89943774  0.33189198  1.0
  O  O312  1  0.78922164  0.94175423  0.28990853  1.0
  O  O313  1  0.90965005  0.45915108  0.87610551  1.0
  O  O314  1  0.69053809  0.08940029  0.44646849  1.0
  O  O315  1  0.78325904  0.05595916  0.48037470  1.0
  O  O316  1  0.78894089  0.39943789  0.83189188  1.0
  O  O317  1  0.71077799  0.44175404  0.78990844  1.0
  O  O318  1  0.59035004  0.95915130  0.37610564  1.0
  O  O319  1  0.80946159  0.41059997  0.94646892  1.0
  O  O320  1  0.71674063  0.44404108  0.98037477  1.0
  O  O321  1  0.71105933  0.10056206  0.33189180  1.0
  O  O322  1  0.78922175  0.05824557  0.28990837  1.0
  O  O323  1  0.90965004  0.54084880  0.87610550  1.0
  O  O324  1  0.74333998  0.00000015  0.38378374  1.0
  O  O325  1  0.89773087  0.00000015  0.34635074  1.0
  O  O326  1  0.89819704  0.00000013  0.42765092  1.0
  O  O327  1  0.75665972  0.50000013  0.88378378  1.0
  O  O328  1  0.60226884  0.50000015  0.84635081  1.0
  O  O329  1  0.60180314  0.50000013  0.92765099  1.0
  O  O330  1  0.30946173  0.91059982  0.55353143  1.0
  O  O331  1  0.21674078  0.94404095  0.51962522  1.0
  O  O332  1  0.21105943  0.60056221  0.16810804  1.0
  O  O333  1  0.28922183  0.55824570  0.21009148  1.0
  O  O334  1  0.40965027  0.04084880  0.62389429  1.0
  O  O335  1  0.19053823  0.58940013  0.05353136  1.0
  O  O336  1  0.28325919  0.55595902  0.01962515  1.0
  O  O337  1  0.28894049  0.89943769  0.66810812  1.0
  O  O338  1  0.21077807  0.94175418  0.71009156  1.0
  O  O339  1  0.09034978  0.45915130  0.12389443  1.0
  O  O340  1  0.30946183  0.08939993  0.55353126  1.0
  O  O341  1  0.21674089  0.05595882  0.51962542  1.0
  O  O342  1  0.21105945  0.39943772  0.16810809  1.0
  O  O343  1  0.28922184  0.44175420  0.21009151  1.0
  O  O344  1  0.40965016  0.95915126  0.62389444  1.0
  O  O345  1  0.19053825  0.41059985  0.05353140  1.0
  O  O346  1  0.28325870  0.44404097  0.01962517  1.0
  O  O347  1  0.28894058  0.10056201  0.66810794  1.0
  O  O348  1  0.21077818  0.05824551  0.71009140  1.0
  O  O349  1  0.09034977  0.54084866  0.12389441  1.0
  O  O350  1  0.25665996  0.00000013  0.61621641  1.0
  O  O351  1  0.10226907  0.00000013  0.65364941  1.0
  O  O352  1  0.10180290  0.00000015  0.57234887  1.0
  O  O353  1  0.24334009  0.49999997  0.11621615  1.0
  O  O354  1  0.39773097  0.49999996  0.15364947  1.0
  O  O355  1  0.39819667  0.49999997  0.07234894  1.0
