# generated using pymatgen
data_Cu4H24C45N8
_symmetry_space_group_name_H-M   'P 1'
_cell_length_a   31.67604350
_cell_length_b   31.70203517
_cell_length_c   31.88643331
_cell_angle_alpha   90.00119339
_cell_angle_beta   89.99048073
_cell_angle_gamma   89.93897206
_symmetry_Int_Tables_number   1
_chemical_formula_structural   Cu4H24C45N8
_chemical_formula_sum   'Cu12 H72 C135 N24'
_cell_volume   32020.17972251
_cell_formula_units_Z   3
loop_
 _symmetry_equiv_pos_site_id
 _symmetry_equiv_pos_as_xyz
  1  'x, y, z'
loop_
 _atom_site_type_symbol
 _atom_site_label
 _atom_site_symmetry_multiplicity
 _atom_site_fract_x
 _atom_site_fract_y
 _atom_site_fract_z
 _atom_site_occupancy
  Cu  Cu0  1  0.21704289  0.21722638  0.14788346  1.0
  Cu  Cu1  1  0.21784852  0.14669134  0.21829946  1.0
  Cu  Cu2  1  0.14636473  0.21786821  0.21814901  1.0
  Cu  Cu3  1  0.78297141  0.21754682  0.85230329  1.0
  Cu  Cu4  1  0.78219324  0.14704858  0.78173168  1.0
  Cu  Cu5  1  0.85360510  0.21813215  0.78171046  1.0
  Cu  Cu6  1  0.21696358  0.78286014  0.85230609  1.0
  Cu  Cu7  1  0.21767578  0.85339218  0.78182777  1.0
  Cu  Cu8  1  0.14654488  0.78198575  0.78166811  1.0
  Cu  Cu9  1  0.78168098  0.78149554  0.14921249  1.0
  Cu  Cu10  1  0.78227305  0.85342471  0.21839380  1.0
  Cu  Cu11  1  0.85364542  0.78204018  0.21830220  1.0
  H  H12  1  0.29507945  0.18834655  0.09247645  1.0
  H  H13  1  0.29681487  0.09168784  0.18864035  1.0
  H  H14  1  0.09109218  0.29667548  0.18826380  1.0
  H  H15  1  0.18808756  0.29507832  0.09233794  1.0
  H  H16  1  0.18857178  0.09195758  0.29637471  1.0
  H  H17  1  0.09158911  0.18852433  0.29620167  1.0
  H  H18  1  0.70501939  0.18860812  0.90782902  1.0
  H  H19  1  0.70321148  0.09212694  0.81151971  1.0
  H  H20  1  0.90880007  0.29681937  0.81145162  1.0
  H  H21  1  0.81214152  0.29543945  0.90769246  1.0
  H  H22  1  0.81150329  0.09230854  0.70343254  1.0
  H  H23  1  0.90837707  0.18876875  0.70359212  1.0
  H  H24  1  0.29471954  0.81203422  0.90796137  1.0
  H  H25  1  0.29633294  0.90861539  0.81172842  1.0
  H  H26  1  0.09153740  0.70307055  0.81125924  1.0
  H  H27  1  0.18802777  0.70478767  0.90763813  1.0
  H  H28  1  0.18837827  0.90798768  0.70354836  1.0
  H  H29  1  0.09188657  0.81114164  0.70345776  1.0
  H  H30  1  0.70310827  0.81017058  0.09426008  1.0
  H  H31  1  0.70443498  0.90943936  0.18773963  1.0
  H  H32  1  0.90973764  0.70426702  0.18757018  1.0
  H  H33  1  0.81028780  0.70287859  0.09420615  1.0
  H  H34  1  0.81187214  0.90823779  0.29633830  1.0
  H  H35  1  0.90864513  0.81147144  0.29612762  1.0
  H  H36  1  0.40945007  0.02024176  0.11554190  1.0
  H  H37  1  0.46430933  0.98124020  0.07658584  1.0
  H  H38  1  0.46435764  0.07755429  0.98135919  1.0
  H  H39  1  0.40953181  0.11660983  0.02024090  1.0
  H  H40  1  0.58984754  0.11698210  0.97998021  1.0
  H  H41  1  0.53514458  0.07771532  0.01863019  1.0
  H  H42  1  0.53572737  0.98164411  0.92318200  1.0
  H  H43  1  0.59054886  0.02081313  0.88446558  1.0
  H  H44  1  0.40947620  0.88387786  0.98012866  1.0
  H  H45  1  0.46455286  0.92278181  0.01864489  1.0
  H  H46  1  0.46401206  0.01907580  0.92340959  1.0
  H  H47  1  0.40886090  0.98025284  0.88484325  1.0
  H  H48  1  0.59046625  0.88374808  0.02043821  1.0
  H  H49  1  0.53563916  0.92271381  0.98150610  1.0
  H  H50  1  0.53558677  0.01911184  0.07663308  1.0
  H  H51  1  0.59043234  0.98021965  0.11564564  1.0
  H  H52  1  0.02027088  0.40974040  0.11539289  1.0
  H  H53  1  0.98140168  0.46479835  0.07659348  1.0
  H  H54  1  0.07707382  0.46382805  0.98066810  1.0
  H  H55  1  0.11604118  0.40883149  0.01940719  1.0
  H  H56  1  0.98074487  0.59100326  0.11494893  1.0
  H  H57  1  0.01956712  0.53605558  0.07599273  1.0
  H  H58  1  0.92253535  0.53536924  0.98144315  1.0
  H  H59  1  0.88363342  0.59032460  0.02029517  1.0
  H  H60  1  0.98002687  0.40967210  0.88418438  1.0
  H  H61  1  0.01892237  0.46468341  0.92292981  1.0
  H  H62  1  0.92316234  0.46419497  0.01877517  1.0
  H  H63  1  0.88413592  0.40925703  0.98005904  1.0
  H  H64  1  0.11689644  0.58975496  0.97920162  1.0
  H  H65  1  0.07786670  0.53491852  0.01802522  1.0
  H  H66  1  0.98085075  0.53607116  0.92346261  1.0
  H  H67  1  0.01979514  0.59092885  0.88456023  1.0
  H  H68  1  0.02061742  0.11659446  0.41036979  1.0
  H  H69  1  0.98168938  0.07762780  0.46496166  1.0
  H  H70  1  0.07716153  0.98084966  0.46395700  1.0
  H  H71  1  0.11615549  0.01975685  0.40935376  1.0
  H  H72  1  0.11679724  0.97911945  0.58938427  1.0
  H  H73  1  0.07782912  0.01818071  0.53481283  1.0
  H  H74  1  0.98108076  0.92286414  0.53548540  1.0
  H  H75  1  0.01999257  0.88373566  0.59000280  1.0
  H  H76  1  0.97993198  0.88338436  0.41027614  1.0
  H  H77  1  0.01875068  0.92233338  0.46493993  1.0
  H  H78  1  0.92317562  0.01900237  0.46399932  1.0
  H  H79  1  0.88426601  0.98009993  0.40929643  1.0
  H  H80  1  0.88352382  0.02082584  0.58944746  1.0
  H  H81  1  0.92247983  0.98177958  0.53490666  1.0
  H  H82  1  0.01919678  0.07711569  0.53552213  1.0
  H  H83  1  0.98030588  0.11624461  0.59001096  1.0
  C  C84  1  0.28957075  0.16814361  0.11937571  1.0
  C  C85  1  0.31129179  0.13137489  0.13172776  1.0
  C  C86  1  0.29042635  0.11862391  0.16864616  1.0
  C  C87  1  0.11813046  0.29033841  0.16834382  1.0
  C  C88  1  0.13095548  0.31118828  0.13144541  1.0
  C  C89  1  0.16782851  0.28954819  0.11920706  1.0
  C  C90  1  0.16831159  0.11889997  0.29042564  1.0
  C  C91  1  0.13135969  0.13152350  0.31165774  1.0
  C  C92  1  0.11862648  0.16835226  0.29033512  1.0
  C  C93  1  0.71049890  0.16843104  0.88089760  1.0
  C  C94  1  0.68875308  0.13170167  0.86854514  1.0
  C  C95  1  0.70961944  0.11900885  0.83156380  1.0
  C  C96  1  0.88183184  0.29052557  0.83145141  1.0
  C  C97  1  0.86912190  0.31143844  0.86836352  1.0
  C  C98  1  0.83230839  0.28985468  0.88075193  1.0
  C  C99  1  0.83174977  0.11922203  0.70939076  1.0
  C  C100  1  0.86870147  0.13178900  0.68813942  1.0
  C  C101  1  0.88137435  0.16861526  0.70946786  1.0
  C  C102  1  0.28922712  0.83220678  0.88103635  1.0
  C  C103  1  0.31087086  0.86901294  0.86873169  1.0
  C  C104  1  0.29003361  0.88167119  0.83172824  1.0
  C  C105  1  0.11843791  0.70946797  0.83131229  1.0
  C  C106  1  0.13117420  0.68858610  0.86823753  1.0
  C  C107  1  0.16789212  0.71030350  0.88067858  1.0
  C  C108  1  0.16822986  0.88099379  0.70944149  1.0
  C  C109  1  0.13140209  0.86827436  0.68811473  1.0
  C  C110  1  0.11880279  0.83139644  0.70939371  1.0
  C  C111  1  0.70933325  0.83099572  0.12051899  1.0
  C  C112  1  0.68850780  0.86857773  0.13202569  1.0
  C  C113  1  0.71000859  0.88182205  0.16842707  1.0
  C  C114  1  0.88205210  0.70982980  0.16831436  1.0
  C  C115  1  0.86875804  0.68834813  0.13194114  1.0
  C  C116  1  0.83113186  0.70912232  0.12046678  1.0
  C  C117  1  0.83206443  0.88124547  0.29037795  1.0
  C  C118  1  0.86901940  0.86857577  0.31156014  1.0
  C  C119  1  0.88163317  0.83168142  0.29027694  1.0
  C  C120  1  0.00015148  0.99997588  0.49987732  1.0
  C  C121  1  0.49998894  0.00017766  0.99996228  1.0
  C  C122  1  0.00014578  0.50003705  0.99975440  1.0
  C  C123  1  0.40575257  0.07150615  0.07097859  1.0
  C  C124  1  0.42186611  0.03296653  0.08627773  1.0
  C  C125  1  0.45286019  0.01120938  0.06425099  1.0
  C  C126  1  0.34505641  0.11136973  0.11126962  1.0
  C  C127  1  0.45288537  0.06496756  0.01106068  1.0
  C  C128  1  0.42189165  0.08707203  0.03276317  1.0
  C  C129  1  0.37363329  0.09331387  0.09287009  1.0
  C  C130  1  0.46936016  0.02688373  0.02649945  1.0
  C  C131  1  0.59408772  0.07196265  0.92916292  1.0
  C  C132  1  0.57771831  0.08742296  0.96734877  1.0
  C  C133  1  0.54677210  0.06517435  0.98895035  1.0
  C  C134  1  0.65494348  0.11173785  0.88901539  1.0
  C  C135  1  0.54709071  0.01157264  0.93565372  1.0
  C  C136  1  0.57805857  0.03345911  0.91374288  1.0
  C  C137  1  0.62630294  0.09378130  0.90739067  1.0
  C  C138  1  0.53049345  0.02704505  0.97346310  1.0
  C  C139  1  0.40538035  0.92894216  0.92937379  1.0
  C  C140  1  0.42177909  0.91336129  0.96748965  1.0
  C  C141  1  0.45294364  0.93538603  0.98899181  1.0
  C  C142  1  0.34456374  0.88909807  0.88924356  1.0
  C  C143  1  0.45265184  0.98911513  0.93580958  1.0
  C  C144  1  0.42147283  0.96744119  0.91399416  1.0
  C  C145  1  0.37312857  0.90716634  0.90762191  1.0
  C  C146  1  0.46938362  0.97343338  0.97347890  1.0
  C  C147  1  0.59428233  0.92888229  0.07113425  1.0
  C  C148  1  0.57811818  0.91329881  0.03293379  1.0
  C  C149  1  0.54712039  0.93536813  0.01117986  1.0
  C  C150  1  0.65490079  0.88878452  0.11142394  1.0
  C  C151  1  0.54710361  0.98916110  0.06429563  1.0
  C  C152  1  0.57809837  0.96743402  0.08637512  1.0
  C  C153  1  0.62640046  0.90701885  0.09304916  1.0
  C  C154  1  0.53062868  0.97348636  0.02651877  1.0
  C  C155  1  0.07126255  0.40559043  0.07050557  1.0
  C  C156  1  0.03291101  0.42200834  0.08603004  1.0
  C  C157  1  0.01123981  0.45310633  0.06411447  1.0
  C  C158  1  0.11097214  0.34489470  0.11089801  1.0
  C  C159  1  0.06467825  0.45258230  0.01054509  1.0
  C  C160  1  0.08670410  0.42149538  0.03214520  1.0
  C  C161  1  0.09301033  0.37344380  0.09238053  1.0
  C  C162  1  0.02682461  0.46939583  0.02623542  1.0
  C  C163  1  0.92905219  0.59438372  0.07076497  1.0
  C  C164  1  0.96778292  0.57842629  0.08585045  1.0
  C  C165  1  0.98944445  0.54737616  0.06383793  1.0
  C  C166  1  0.88898222  0.65482491  0.11126300  1.0
  C  C167  1  0.93527637  0.54699711  0.01102335  1.0
  C  C168  1  0.91327212  0.57805985  0.03270716  1.0
  C  C169  1  0.90718487  0.62641680  0.09274198  1.0
  C  C170  1  0.97349866  0.53065006  0.02629203  1.0
  C  C171  1  0.92897899  0.40578830  0.92903689  1.0
  C  C172  1  0.96737573  0.42203825  0.91352010  1.0
  C  C173  1  0.98906022  0.45310693  0.93541131  1.0
  C  C174  1  0.88915785  0.34513898  0.88880324  1.0
  C  C175  1  0.93555427  0.45284344  0.98893583  1.0
  C  C176  1  0.91350725  0.42179872  0.96735570  1.0
  C  C177  1  0.90718615  0.37368518  0.90720527  1.0
  C  C178  1  0.97345018  0.46948637  0.97326140  1.0
  C  C179  1  0.07142678  0.59405660  0.92878868  1.0
  C  C180  1  0.08723292  0.57761501  0.96678795  1.0
  C  C181  1  0.06515135  0.54664337  0.98846324  1.0
  C  C182  1  0.11120787  0.65479963  0.88861888  1.0
  C  C183  1  0.01097830  0.54727468  0.93562742  1.0
  C  C184  1  0.03270167  0.57824318  0.91363597  1.0
  C  C185  1  0.09317983  0.62621866  0.90696854  1.0
  C  C186  1  0.02687297  0.53052288  0.97318973  1.0
  C  C187  1  0.07147242  0.07127228  0.40605664  1.0
  C  C188  1  0.03319572  0.08697523  0.42246193  1.0
  C  C189  1  0.01145279  0.06490343  0.45332342  1.0
  C  C190  1  0.11125767  0.11133966  0.34539898  1.0
  C  C191  1  0.06475279  0.01089933  0.45275504  1.0
  C  C192  1  0.08682602  0.03263113  0.42188919  1.0
  C  C193  1  0.09321285  0.09309718  0.37395667  1.0
  C  C194  1  0.02688546  0.02667440  0.46945262  1.0
  C  C195  1  0.07143496  0.92837654  0.59358086  1.0
  C  C196  1  0.08716774  0.96662108  0.57725342  1.0
  C  C197  1  0.06509972  0.98845152  0.54641323  1.0
  C  C198  1  0.11126407  0.88838716  0.65432777  1.0
  C  C199  1  0.01109087  0.93525838  0.54678545  1.0
  C  C200  1  0.03282905  0.91309385  0.57760611  1.0
  C  C201  1  0.09317135  0.90655513  0.62572751  1.0
  C  C202  1  0.02684885  0.97316000  0.53025067  1.0
  C  C203  1  0.92902909  0.92867372  0.40597124  1.0
  C  C204  1  0.96730274  0.91297789  0.42239341  1.0
  C  C205  1  0.98898446  0.93504690  0.45329272  1.0
  C  C206  1  0.88921960  0.88874137  0.34525284  1.0
  C  C207  1  0.93560165  0.98897520  0.45276539  1.0
  C  C208  1  0.91359279  0.96725595  0.42185507  1.0
  C  C209  1  0.90730357  0.90689885  0.37382914  1.0
  C  C210  1  0.97348618  0.97324250  0.46945129  1.0
  C  C211  1  0.92881802  0.07162702  0.59364322  1.0
  C  C212  1  0.91313321  0.03336361  0.57730938  1.0
  C  C213  1  0.93520281  0.01152786  0.54646157  1.0
  C  C214  1  0.88886713  0.11161916  0.65436281  1.0
  C  C215  1  0.98917706  0.06471660  0.54680505  1.0
  C  C216  1  0.96743380  0.08688645  0.57764040  1.0
  C  C217  1  0.90702607  0.09346882  0.62577757  1.0
  C  C218  1  0.97343650  0.02681605  0.53024830  1.0
  N  N219  1  0.25883243  0.14565580  0.17727437  1.0
  N  N220  1  0.25831240  0.17630555  0.14676212  1.0
  N  N221  1  0.17598233  0.25834635  0.14662402  1.0
  N  N222  1  0.14522109  0.25881433  0.17706526  1.0
  N  N223  1  0.14582412  0.17668535  0.25899507  1.0
  N  N224  1  0.17659776  0.14604735  0.25905428  1.0
  N  N225  1  0.74120796  0.14600507  0.82290932  1.0
  N  N226  1  0.74173627  0.17661068  0.85349029  1.0
  N  N227  1  0.82407102  0.25862817  0.85338885  1.0
  N  N228  1  0.85473715  0.25903412  0.82284144  1.0
  N  N229  1  0.85418030  0.17697037  0.74082559  1.0
  N  N230  1  0.82342590  0.14636557  0.74079142  1.0
  N  N231  1  0.25854149  0.85458472  0.82303763  1.0
  N  N232  1  0.25805764  0.82395252  0.85358452  1.0
  N  N233  1  0.17605138  0.74157393  0.85334196  1.0
  N  N234  1  0.14543856  0.74106096  0.82275798  1.0
  N  N235  1  0.14594169  0.82314919  0.74081227  1.0
  N  N236  1  0.17656358  0.85387788  0.74084843  1.0
  N  N237  1  0.74107755  0.85432440  0.17753436  1.0
  N  N238  1  0.74065839  0.82283090  0.14785425  1.0
  N  N239  1  0.82299093  0.74043523  0.14779945  1.0
  N  N240  1  0.85453854  0.74087216  0.17744281  1.0
  N  N241  1  0.85437941  0.82337030  0.25898663  1.0
  N  N242  1  0.82366904  0.85407947  0.25904874  1.0
