# generated using pymatgen
data_ZnH8C30N2(Cl2O11)2
_symmetry_space_group_name_H-M   'P 1'
_cell_length_a   10.12530503
_cell_length_b   10.84343516
_cell_length_c   23.62002124
_cell_angle_alpha   87.75919051
_cell_angle_beta   87.97806244
_cell_angle_gamma   85.85393657
_symmetry_Int_Tables_number   1
_chemical_formula_structural   ZnH8C30N2(Cl2O11)2
_chemical_formula_sum   'Zn2 H16 C60 N4 Cl8 O44'
_cell_volume   2583.17963849
_cell_formula_units_Z   2
loop_
 _symmetry_equiv_pos_site_id
 _symmetry_equiv_pos_as_xyz
  1  'x, y, z'
loop_
 _atom_site_type_symbol
 _atom_site_label
 _atom_site_symmetry_multiplicity
 _atom_site_fract_x
 _atom_site_fract_y
 _atom_site_fract_z
 _atom_site_occupancy
  Zn  Zn0  1  0.65265511  0.47919900  0.49876940  1.0
  Zn  Zn1  1  0.34803999  0.49061682  0.50778058  1.0
  H  H2  1  0.00596293  0.52022635  0.06346150  1.0
  H  H3  1  0.60767039  0.92610643  0.95301792  1.0
  H  H4  1  0.81505709  0.35596154  0.35375325  1.0
  H  H5  1  0.18911840  0.77054632  0.58111012  1.0
  H  H6  1  0.79676388  0.21473137  0.61189946  1.0
  H  H7  1  0.23230340  0.71464509  0.39321582  1.0
  H  H8  1  0.95440008  0.64952647  0.94389317  1.0
  H  H9  1  0.83329123  0.87071744  0.08720966  1.0
  H  H10  1  0.84077997  0.51489112  0.84813406  1.0
  H  H11  1  0.79057035  0.27373544  0.17656477  1.0
  H  H12  1  0.18893770  0.58191759  0.69058397  1.0
  H  H13  1  0.53197633  0.79890187  0.25949202  1.0
  H  H14  1  0.70790094  0.75651501  0.36111125  1.0
  H  H15  1  0.38740643  0.21345518  0.65011113  1.0
  H  H16  1  0.82268013  0.01934641  0.43286521  1.0
  H  H17  1  0.07057510  0.99376287  0.46093715  1.0
  C  C18  1  0.52289269  0.24907514  0.49887276  1.0
  C  C19  1  0.49405193  0.72047466  0.50183090  1.0
  C  C20  1  0.60510964  0.57511846  0.76230411  1.0
  C  C21  1  0.53679789  0.41581005  0.23522872  1.0
  C  C22  1  0.60993634  0.55789295  0.70318785  1.0
  C  C23  1  0.53896221  0.41480228  0.29449166  1.0
  C  C24  1  0.50361941  0.50972318  0.67585500  1.0
  C  C25  1  0.48536459  0.51548355  0.32575790  1.0
  C  C26  1  0.39604632  0.47385023  0.70997639  1.0
  C  C27  1  0.43143166  0.62064321  0.29504530  1.0
  C  C28  1  0.39173300  0.48694308  0.76879086  1.0
  C  C29  1  0.41356872  0.61470257  0.23650380  1.0
  C  C30  1  0.48718975  0.55354989  0.79449244  1.0
  C  C31  1  0.46798192  0.51367336  0.20662599  1.0
  C  C32  1  0.64047138  0.00804469  0.50429926  1.0
  C  C33  1  0.37530816  0.96180467  0.49760945  1.0
  C  C34  1  0.57842686  0.93498011  0.45615294  1.0
  C  C35  1  0.43813891  0.03409540  0.54590890  1.0
  C  C36  1  0.49474952  0.85940138  0.50078497  1.0
  C  C37  1  0.52086197  0.11001121  0.50128191  1.0
  C  C38  1  0.55622114  0.93210125  0.54886652  1.0
  C  C39  1  0.45896947  0.03753155  0.45303725  1.0
  C  C40  1  0.50098933  0.48888775  0.61278311  1.0
  C  C41  1  0.48938995  0.50711022  0.39085438  1.0
  C  C42  1  0.05416134  0.36437417  0.51615782  1.0
  C  C43  1  0.94929618  0.59072279  0.49584386  1.0
  C  C44  1  0.97298752  0.40569059  0.46351762  1.0
  C  C45  1  0.03106377  0.54913921  0.54879509  1.0
  C  C46  1  0.94877810  0.43461513  0.55494723  1.0
  C  C47  1  0.05291198  0.52113487  0.45715505  1.0
  C  C48  1  0.56527072  0.59300781  0.12022353  1.0
  C  C49  1  0.33593404  0.59641155  0.87932705  1.0
  C  C50  1  0.35828791  0.47683103  0.11924417  1.0
  C  C51  1  0.54827881  0.66940351  0.87787911  1.0
  C  C52  1  0.35482132  0.49942792  0.05715685  1.0
  C  C53  1  0.55072235  0.65200448  0.94045103  1.0
  C  C54  1  0.45824240  0.56174084  0.02867277  1.0
  C  C55  1  0.45429665  0.58273402  0.96924427  1.0
  C  C56  1  0.56265962  0.60851491  0.05798513  1.0
  C  C57  1  0.34076517  0.55547737  0.93999776  1.0
  C  C58  1  0.24553163  0.46890180  0.02746900  1.0
  C  C59  1  0.64627528  0.70580178  0.97040591  1.0
  C  C60  1  0.23423728  0.50694566  0.96926379  1.0
  C  C61  1  0.65597413  0.67907293  0.02949095  1.0
  C  C62  1  0.14441011  0.38412974  0.05305565  1.0
  C  C63  1  0.73924788  0.79219907  0.94057627  1.0
  C  C64  1  0.93661212  0.33308289  0.41431337  1.0
  C  C65  1  0.05843096  0.64900534  0.58810456  1.0
  C  C66  1  0.89572658  0.36092184  0.60511295  1.0
  C  C67  1  0.11530962  0.57915661  0.40490273  1.0
  C  C68  1  0.09902554  0.51573689  0.94277801  1.0
  C  C69  1  0.77151418  0.72429453  0.05979209  1.0
  C  C70  1  0.73388399  0.59384533  0.79026008  1.0
  C  C71  1  0.61248526  0.31809849  0.20085147  1.0
  C  C72  1  0.27728060  0.41968639  0.68621434  1.0
  C  C73  1  0.41500201  0.74601087  0.32057879  1.0
  C  C74  1  0.65913904  0.89330082  0.40615718  1.0
  C  C75  1  0.37292427  0.08252851  0.59931612  1.0
  C  C76  1  0.78252096  0.02992418  0.51427892  1.0
  C  C77  1  0.23007380  0.94228206  0.49828623  1.0
  N  N78  1  0.46897137  0.52013544  0.14590087  1.0
  N  N79  1  0.46786650  0.58710826  0.85152787  1.0
  N  N80  1  0.86547486  0.47618799  0.50203469  1.0
  N  N81  1  0.13743575  0.48033372  0.50932555  1.0
  Cl  Cl82  1  0.12377786  0.22311044  0.53512981  1.0
  Cl  Cl83  1  0.88469258  0.73750298  0.48281944  1.0
  Cl  Cl84  1  0.74497927  0.60304686  0.66491220  1.0
  Cl  Cl85  1  0.61374224  0.28546120  0.32826324  1.0
  Cl  Cl86  1  0.27697504  0.40620507  0.80791746  1.0
  Cl  Cl87  1  0.32832009  0.73437596  0.19981881  1.0
  Cl  Cl88  1  0.61250032  0.86418241  0.61103893  1.0
  Cl  Cl89  1  0.40150883  0.10424237  0.39046639  1.0
  O  O90  1  0.63338090  0.29531514  0.48810361  1.0
  O  O91  1  0.38445053  0.67379820  0.49641963  1.0
  O  O92  1  0.41046169  0.30618094  0.50624187  1.0
  O  O93  1  0.60711163  0.66451318  0.50843071  1.0
  O  O94  1  0.60895331  0.46655227  0.58554065  1.0
  O  O95  1  0.38075319  0.48622914  0.41590707  1.0
  O  O96  1  0.38540030  0.49276858  0.59277956  1.0
  O  O97  1  0.60081647  0.51775705  0.41178096  1.0
  O  O98  1  0.64406092  0.64273301  0.14891506  1.0
  O  O99  1  0.23765511  0.63913266  0.85562162  1.0
  O  O100  1  0.27145331  0.42911487  0.14786040  1.0
  O  O101  1  0.60934274  0.74868219  0.85221536  1.0
  O  O102  1  0.17445393  0.27336661  0.05411262  1.0
  O  O103  1  0.02278499  0.42986899  0.06875206  1.0
  O  O104  1  0.85044421  0.75896353  0.92291569  1.0
  O  O105  1  0.69899184  0.91280228  0.93852513  1.0
  O  O106  1  0.98173303  0.22907511  0.40429312  1.0
  O  O107  1  0.84973872  0.40429764  0.38363250  1.0
  O  O108  1  0.96647344  0.70270895  0.61380148  1.0
  O  O109  1  0.18382018  0.67787349  0.58411673  1.0
  O  O110  1  0.93574173  0.36320876  0.65274160  1.0
  O  O111  1  0.81441846  0.28280281  0.58467932  1.0
  O  O112  1  0.11599677  0.53738852  0.35769481  1.0
  O  O113  1  0.16311617  0.68254059  0.42092169  1.0
  O  O114  1  0.05616682  0.44563338  0.91007006  1.0
  O  O115  1  0.03697878  0.61748459  0.96396267  1.0
  O  O116  1  0.87439643  0.66170908  0.06814951  1.0
  O  O117  1  0.75246786  0.84562107  0.07041463  1.0
  O  O118  1  0.81663769  0.66481879  0.77566230  1.0
  O  O119  1  0.75122131  0.50773606  0.83424875  1.0
  O  O120  1  0.56324793  0.23871424  0.17531652  1.0
  O  O121  1  0.74368149  0.33589401  0.20049901  1.0
  O  O122  1  0.27165761  0.31065730  0.67602716  1.0
  O  O123  1  0.16849797  0.49767693  0.68245570  1.0
  O  O124  1  0.35086584  0.77572215  0.36321561  1.0
  O  O125  1  0.48689683  0.83219512  0.29355625  1.0
  O  O126  1  0.73863086  0.95968612  0.38121231  1.0
  O  O127  1  0.64256998  0.77798890  0.39144040  1.0
  O  O128  1  0.27211437  0.04400439  0.62106842  1.0
  O  O129  1  0.44393956  0.16904769  0.62014971  1.0
  O  O130  1  0.81930631  0.04497690  0.56178483  1.0
  O  O131  1  0.86906774  0.02784867  0.46916256  1.0
  O  O132  1  0.17163184  0.89118106  0.53794597  1.0
  O  O133  1  0.16764239  0.99431783  0.45350719  1.0
