# generated using pymatgen
data_Hf3H28C40(N3O8)2
_symmetry_space_group_name_H-M   'P 1'
_cell_length_a   18.28263981
_cell_length_b   22.47538265
_cell_length_c   22.49315755
_cell_angle_alpha   93.66591944
_cell_angle_beta   89.94907016
_cell_angle_gamma   89.92978112
_symmetry_Int_Tables_number   1
_chemical_formula_structural   Hf3H28C40(N3O8)2
_chemical_formula_sum   'Hf6 H56 C80 N12 O32'
_cell_volume   9223.72487983
_cell_formula_units_Z   2
loop_
 _symmetry_equiv_pos_site_id
 _symmetry_equiv_pos_as_xyz
  1  'x, y, z'
loop_
 _atom_site_type_symbol
 _atom_site_label
 _atom_site_symmetry_multiplicity
 _atom_site_fract_x
 _atom_site_fract_y
 _atom_site_fract_z
 _atom_site_occupancy
  Hf  Hf0  1  0.99475024  0.98836784  0.08443335  1.0
  Hf  Hf1  1  0.99528220  0.09422448  0.97149627  1.0
  Hf  Hf2  1  0.99362962  0.86765620  0.97468730  1.0
  Hf  Hf3  1  0.99436286  0.97108241  0.86328390  1.0
  Hf  Hf4  1  0.86136482  0.98092279  0.97340281  1.0
  Hf  Hf5  1  0.12740845  0.97972764  0.97266919  1.0
  H  H6  1  0.10262285  0.06991853  0.06313898  1.0
  H  H7  1  0.89066893  0.06552113  0.88242163  1.0
  H  H8  1  0.10097759  0.88876921  0.88205252  1.0
  H  H9  1  0.88662432  0.89658845  0.05921208  1.0
  H  H10  1  0.94532434  0.17906183  0.90813359  1.0
  H  H11  1  0.04634614  0.02440350  0.77015558  1.0
  H  H12  1  0.95523705  0.88480035  0.78372272  1.0
  H  H13  1  0.99261314  0.84094121  0.85209595  1.0
  H  H14  1  0.03559949  0.79578119  0.05648397  1.0
  H  H15  1  0.99635417  0.86785710  0.10536951  1.0
  H  H16  1  0.95498267  0.07394761  0.16396433  1.0
  H  H17  1  0.99305575  0.11892958  0.09464061  1.0
  H  H18  1  0.03344956  0.78479600  0.88206601  1.0
  H  H19  1  0.95182171  0.90170869  0.16116255  1.0
  H  H20  1  0.03271271  0.17565714  0.06465966  1.0
  H  H21  1  0.96030148  0.02011700  0.75604213  1.0
  H  H22  1  0.41914785  0.81131573  0.95506786  1.0
  H  H23  1  0.29158981  0.65438115  0.97864173  1.0
  H  H24  1  0.17676829  0.71587146  0.98075238  1.0
  H  H25  1  0.30479507  0.87278631  0.95770553  1.0
  H  H26  1  0.69841145  0.65738262  0.97492905  1.0
  H  H27  1  0.56533410  0.81294565  0.95827259  1.0
  H  H28  1  0.67790553  0.87622454  0.95882223  1.0
  H  H29  1  0.81149655  0.72101072  0.97489744  1.0
  H  H30  1  0.28831782  0.30303625  0.96248254  1.0
  H  H31  1  0.42169826  0.15063279  0.99318373  1.0
  H  H32  1  0.30999919  0.08605416  0.99076832  1.0
  H  H33  1  0.17601994  0.23800456  0.96053820  1.0
  H  H34  1  0.69720575  0.30280281  0.97531646  1.0
  H  H35  1  0.56183291  0.14834404  0.98876890  1.0
  H  H36  1  0.67350227  0.08356580  0.98816617  1.0
  H  H37  1  0.80942221  0.23785036  0.97628935  1.0
  H  H38  1  0.61225160  0.53585295  0.97613188  1.0
  H  H39  1  0.37768151  0.53659404  0.96791812  1.0
  H  H40  1  0.37671384  0.42509651  0.96974412  1.0
  H  H41  1  0.61128402  0.42429118  0.97809646  1.0
  H  H42  1  0.42616078  0.96946168  0.80470985  1.0
  H  H43  1  0.29337230  0.98181701  0.64873949  1.0
  H  H44  1  0.18036237  0.98282071  0.71217841  1.0
  H  H45  1  0.31352025  0.97139718  0.86820513  1.0
  H  H46  1  0.81448317  0.97660307  0.70965326  1.0
  H  H47  1  0.68214788  0.95612190  0.86477070  1.0
  H  H48  1  0.56919997  0.95774012  0.80198212  1.0
  H  H49  1  0.70128973  0.97923871  0.64695450  1.0
  H  H50  1  0.42349344  0.98799526  0.13965816  1.0
  H  H51  1  0.29028828  0.97755530  0.29593232  1.0
  H  H52  1  0.17720899  0.97608620  0.23221819  1.0
  H  H53  1  0.31095040  0.98599951  0.07638339  1.0
  H  H54  1  0.69796644  0.98204732  0.29838000  1.0
  H  H55  1  0.56825547  0.99925719  0.14144053  1.0
  H  H56  1  0.68231315  0.00085533  0.07987365  1.0
  H  H57  1  0.81244327  0.98419627  0.23675819  1.0
  H  H58  1  0.61173676  0.98691740  0.41606963  1.0
  H  H59  1  0.37743487  0.97532940  0.41674314  1.0
  H  H60  1  0.37856119  0.97311812  0.52822750  1.0
  H  H61  1  0.61297117  0.98413145  0.52746240  1.0
  C  C62  1  0.49430822  0.98285251  0.34435811  1.0
  C  C63  1  0.43227404  0.98405363  0.25690072  1.0
  C  C64  1  0.55708374  0.98757407  0.25764549  1.0
  C  C65  1  0.49650065  0.97679290  0.59987722  1.0
  C  C66  1  0.55958137  0.97195202  0.68642754  1.0
  C  C67  1  0.43487522  0.97463610  0.68751278  1.0
  C  C68  1  0.49334150  0.35248418  0.97550918  1.0
  C  C69  1  0.55489114  0.26502036  0.98007304  1.0
  C  C70  1  0.43009255  0.26572999  0.97789574  1.0
  C  C71  1  0.49501194  0.60842157  0.97053158  1.0
  C  C72  1  0.43171517  0.69518028  0.96724321  1.0
  C  C73  1  0.55652900  0.69604848  0.96739298  1.0
  C  C74  1  0.81931061  0.99072458  0.11394917  1.0
  C  C75  1  0.17264246  0.11728546  0.97392695  1.0
  C  C76  1  0.81278080  0.11613811  0.97906583  1.0
  C  C77  1  0.17244996  0.98082907  0.10982759  1.0
  C  C78  1  0.16875861  0.83873303  0.97230160  1.0
  C  C79  1  0.81945593  0.96837408  0.83213550  1.0
  C  C80  1  0.17527750  0.97743243  0.83481034  1.0
  C  C81  1  0.81619698  0.84323660  0.96888259  1.0
  C  C82  1  0.36582754  0.79093877  0.96056061  1.0
  C  C83  1  0.36234623  0.72927254  0.96693614  1.0
  C  C84  1  0.29381829  0.70225920  0.97378187  1.0
  C  C85  1  0.23002364  0.73653739  0.97498343  1.0
  C  C86  1  0.23400304  0.79827696  0.96962635  1.0
  C  C87  1  0.30259566  0.82488652  0.96199714  1.0
  C  C88  1  0.69450547  0.70535870  0.97111145  1.0
  C  C89  1  0.62489277  0.73134805  0.96663034  1.0
  C  C90  1  0.61940610  0.79322998  0.96174798  1.0
  C  C91  1  0.68171482  0.82821116  0.96191373  1.0
  C  C92  1  0.75130359  0.80246919  0.96675926  1.0
  C  C93  1  0.75729174  0.74066985  0.97105395  1.0
  C  C94  1  0.29244550  0.25552465  0.96897901  1.0
  C  C95  1  0.36176263  0.23051485  0.97781862  1.0
  C  C96  1  0.36771191  0.16924616  0.98611122  1.0
  C  C97  1  0.30607266  0.13362360  0.98483782  1.0
  C  C98  1  0.23687469  0.15835617  0.97556956  1.0
  C  C99  1  0.23020890  0.21957123  0.96798934  1.0
  C  C100  1  0.69266558  0.25478426  0.97851282  1.0
  C  C101  1  0.62278676  0.22929247  0.98177851  1.0
  C  C102  1  0.61629602  0.16739625  0.98599756  1.0
  C  C103  1  0.67800510  0.13163501  0.98579112  1.0
  C  C104  1  0.74785486  0.15685141  0.98183737  1.0
  C  C105  1  0.75480882  0.21872776  0.97883133  1.0
  C  C106  1  0.56103942  0.51111959  0.97477268  1.0
  C  C107  1  0.49499934  0.54283902  0.97195504  1.0
  C  C108  1  0.42845765  0.51149952  0.97016051  1.0
  C  C109  1  0.42792165  0.44982317  0.97112333  1.0
  C  C110  1  0.49397105  0.41809080  0.97398016  1.0
  C  C111  1  0.56050732  0.44939731  0.97579836  1.0
  C  C112  1  0.37207461  0.97251968  0.78502894  1.0
  C  C113  1  0.36660082  0.97552000  0.72299664  1.0
  C  C114  1  0.29713525  0.97947940  0.69687073  1.0
  C  C115  1  0.23440774  0.98030433  0.73229863  1.0
  C  C116  1  0.24022909  0.97750821  0.79424109  1.0
  C  C117  1  0.30978817  0.97358409  0.82011535  1.0
  C  C118  1  0.76054008  0.97243339  0.72966747  1.0
  C  C119  1  0.75492208  0.96650910  0.79120194  1.0
  C  C120  1  0.68557948  0.96075005  0.81699973  1.0
  C  C121  1  0.62319575  0.96176795  0.78232867  1.0
  C  C122  1  0.62831845  0.96895043  0.72086539  1.0
  C  C123  1  0.69765478  0.97383035  0.69465115  1.0
  C  C124  1  0.36941738  0.98529647  0.15949998  1.0
  C  C125  1  0.36390166  0.98290720  0.22161927  1.0
  C  C126  1  0.29427543  0.97945848  0.24776494  1.0
  C  C127  1  0.23149267  0.97857097  0.21241141  1.0
  C  C128  1  0.23749525  0.98092051  0.15045419  1.0
  C  C129  1  0.30714084  0.98421092  0.12450287  1.0
  C  C130  1  0.69517346  0.98638361  0.25047135  1.0
  C  C131  1  0.62615227  0.99022279  0.22348383  1.0
  C  C132  1  0.62195840  0.99604658  0.16178901  1.0
  C  C133  1  0.68500575  0.99701545  0.12778737  1.0
  C  C134  1  0.75408733  0.99233905  0.15438019  1.0
  C  C135  1  0.75875221  0.98753355  0.21613373  1.0
  C  C136  1  0.56110145  0.98374041  0.44116855  1.0
  C  C137  1  0.49454738  0.98119628  0.40989132  1.0
  C  C138  1  0.42861835  0.97731077  0.44151086  1.0
  C  C139  1  0.42924933  0.97608690  0.50314232  1.0
  C  C140  1  0.49581508  0.97850085  0.53439564  1.0
  C  C141  1  0.56176013  0.98228650  0.50274435  1.0
  N  N142  1  0.42907357  0.98182756  0.31644813  1.0
  N  N143  1  0.49492062  0.98725336  0.22599255  1.0
  N  N144  1  0.55979816  0.98536215  0.31709515  1.0
  N  N145  1  0.56217847  0.97492398  0.62702126  1.0
  N  N146  1  0.49748225  0.97158904  0.71822225  1.0
  N  N147  1  0.43137682  0.97695682  0.62807285  1.0
  N  N148  1  0.55850400  0.32452788  0.97757496  1.0
  N  N149  1  0.49220611  0.23426476  0.98082123  1.0
  N  N150  1  0.42760350  0.32522303  0.97498247  1.0
  N  N151  1  0.42936681  0.63573560  0.96968491  1.0
  N  N152  1  0.49370900  0.72694996  0.96549349  1.0
  N  N153  1  0.56011261  0.63651980  0.97003071  1.0
  O  O154  1  0.88418391  0.99015822  0.13562309  1.0
  O  O155  1  0.80385251  0.98873203  0.05869862  1.0
  O  O156  1  0.10834033  0.13891851  0.97717219  1.0
  O  O157  1  0.18877169  0.06174990  0.97025596  1.0
  O  O158  1  0.87663292  0.13753903  0.98194350  1.0
  O  O159  1  0.79726600  0.06027849  0.97214186  1.0
  O  O160  1  0.10799104  0.98149155  0.13088899  1.0
  O  O161  1  0.18885280  0.98127060  0.05437112  1.0
  O  O162  1  0.99556407  0.06950093  0.13608375  1.0
  O  O163  1  0.99543130  0.90515722  0.13683308  1.0
  O  O164  1  0.99205069  0.14797268  0.05951495  1.0
  O  O165  1  0.99057475  0.15785178  0.91432843  1.0
  O  O166  1  0.93826239  0.03008606  0.01933868  1.0
  O  O167  1  0.07037398  0.04574876  0.03734908  1.0
  O  O168  1  0.10369520  0.81703732  0.97218047  1.0
  O  O169  1  0.18420220  0.89387951  0.97375070  1.0
  O  O170  1  0.88451622  0.96757617  0.81049684  1.0
  O  O171  1  0.80398562  0.97189977  0.88723652  1.0
  O  O172  1  0.11051704  0.98000681  0.81357446  1.0
  O  O173  1  0.19016837  0.97305165  0.88967192  1.0
  O  O174  1  0.88068151  0.82201187  0.96821884  1.0
  O  O175  1  0.79992423  0.89891305  0.97257649  1.0
  O  O176  1  0.99172086  0.81147633  0.88747550  1.0
  O  O177  1  0.99437789  0.82283275  0.05382956  1.0
  O  O178  1  0.99671328  0.88930813  0.81066081  1.0
  O  O179  1  0.99674166  0.03311602  0.78567556  1.0
  O  O180  1  0.06915601  0.91278967  0.90846977  1.0
  O  O181  1  0.93750419  0.92998644  0.92612188  1.0
  O  O182  1  0.04998315  0.93547138  0.01885062  1.0
  O  O183  1  0.92255170  0.04184410  0.90601533  1.0
  O  O184  1  0.91933855  0.92045591  0.03656801  1.0
  O  O185  1  0.05228435  0.02554511  0.92466996  1.0
