# generated using pymatgen
data_Al2H19C24NO11
_symmetry_space_group_name_H-M   'P 1'
_cell_length_a   6.67931789
_cell_length_b   18.15208549
_cell_length_c   20.63775220
_cell_angle_alpha   72.52575662
_cell_angle_beta   89.99881489
_cell_angle_gamma   89.99869817
_symmetry_Int_Tables_number   1
_chemical_formula_structural   Al2H19C24NO11
_chemical_formula_sum   'Al4 H38 C48 N2 O22'
_cell_volume   2386.72314532
_cell_formula_units_Z   2
loop_
 _symmetry_equiv_pos_site_id
 _symmetry_equiv_pos_as_xyz
  1  'x, y, z'
loop_
 _atom_site_type_symbol
 _atom_site_label
 _atom_site_symmetry_multiplicity
 _atom_site_fract_x
 _atom_site_fract_y
 _atom_site_fract_z
 _atom_site_occupancy
  Al  Al0  1  0.13352206  0.49997281  0.50044708  1.0
  Al  Al1  1  0.63352224  0.50002554  0.49956038  1.0
  Al  Al2  1  0.61588191  0.99987610  0.99948315  1.0
  Al  Al3  1  0.11588783  0.00012280  0.00051477  1.0
  H  H4  1  0.70187180  0.12965973  0.29225049  1.0
  H  H5  1  0.20188407  0.87034429  0.70774643  1.0
  H  H6  1  0.18601655  0.21772752  0.21107478  1.0
  H  H7  1  0.68602350  0.78226366  0.78891474  1.0
  H  H8  1  0.08866303  0.13379534  0.27038426  1.0
  H  H9  1  0.58867451  0.86619296  0.72960478  1.0
  H  H10  1  0.04327515  0.19684851  0.35354376  1.0
  H  H11  1  0.54326868  0.80313443  0.64645264  1.0
  H  H12  1  0.19902094  0.27042152  0.30217476  1.0
  H  H13  1  0.69900380  0.72955562  0.69782190  1.0
  H  H14  1  0.69440313  0.30685942  0.14469819  1.0
  H  H15  1  0.19439162  0.69315255  0.85530985  1.0
  H  H16  1  0.95277886  0.30952568  0.12466412  1.0
  H  H17  1  0.45278124  0.69047756  0.87533709  1.0
  H  H18  1  0.76690904  0.39045620  0.20724079  1.0
  H  H19  1  0.26687806  0.60954675  0.79277100  1.0
  H  H20  1  0.54519856  0.19339777  0.23110120  1.0
  H  H21  1  0.04519895  0.80661467  0.76890255  1.0
  H  H22  1  0.55619353  0.28256989  0.29363464  1.0
  H  H23  1  0.05617180  0.71743904  0.70637111  1.0
  H  H24  1  0.52528548  0.14150995  0.45518524  1.0
  H  H25  1  0.38349671  0.17998562  0.37997830  1.0
  H  H26  1  0.58327961  0.27510858  0.46253816  1.0
  H  H27  1  0.43120374  0.31423916  0.39077033  1.0
  H  H28  1  0.13446581  0.23683049  0.45218297  1.0
  H  H29  1  0.23108771  0.29684073  0.49766160  1.0
  H  H30  1  0.28791459  0.19676423  0.52469266  1.0
  H  H31  1  0.02528611  0.85849319  0.54481716  1.0
  H  H32  1  0.88349085  0.82002587  0.62002472  1.0
  H  H33  1  0.08327388  0.72489253  0.53747055  1.0
  H  H34  1  0.93120225  0.68576689  0.60923958  1.0
  H  H35  1  0.63446341  0.76317664  0.54782289  1.0
  H  H36  1  0.73108729  0.70315484  0.50236007  1.0
  H  H37  1  0.78790825  0.80322518  0.47531458  1.0
  H  H38  1  0.38374355  0.40093238  0.50657904  1.0
  H  H39  1  0.88372909  0.59909244  0.49332559  1.0
  H  H40  1  0.36680187  0.09942193  0.99140922  1.0
  H  H41  1  0.86681701  0.90058343  0.00857114  1.0
  C  C42  1  0.38472414  0.57348462  0.58002327  1.0
  C  C43  1  0.88477716  0.42650969  0.41997836  1.0
  C  C44  1  0.38245603  0.60872125  0.39760965  1.0
  C  C45  1  0.88243701  0.39128064  0.60239244  1.0
  C  C46  1  0.88041279  0.32939167  0.66546775  1.0
  C  C47  1  0.38041696  0.67060965  0.33453942  1.0
  C  C48  1  0.87627159  0.27697684  0.71897723  1.0
  C  C49  1  0.37626390  0.72303340  0.28101975  1.0
  C  C50  1  0.87212440  0.21910644  0.77804689  1.0
  C  C51  1  0.37211234  0.78090455  0.22194960  1.0
  C  C52  1  0.86850870  0.16665771  0.83156223  1.0
  C  C53  1  0.36851173  0.83334119  0.16844755  1.0
  C  C54  1  0.68675718  0.18936363  0.25910069  1.0
  C  C55  1  0.18677853  0.81064404  0.74090388  1.0
  C  C56  1  0.06402908  0.19603031  0.24760473  1.0
  C  C57  1  0.56403846  0.80396221  0.75239047  1.0
  C  C58  1  0.06065001  0.23776502  0.30260176  1.0
  C  C59  1  0.56064288  0.76222137  0.69739705  1.0
  C  C60  1  0.88650769  0.38302502  0.37205692  1.0
  C  C61  1  0.38648348  0.61697819  0.62794108  1.0
  C  C62  1  0.86301868  0.20885108  0.20802969  1.0
  C  C63  1  0.36303955  0.79115380  0.79196386  1.0
  C  C64  1  0.68706403  0.24374324  0.30442320  1.0
  C  C65  1  0.18705407  0.75626085  0.69557887  1.0
  C  C66  1  0.88080726  0.29385509  0.29058228  1.0
  C  C67  1  0.38078454  0.70613908  0.70941988  1.0
  C  C68  1  0.88365413  0.34592151  0.21446607  1.0
  C  C69  1  0.38362687  0.65407593  0.78554112  1.0
  C  C70  1  0.84500950  0.29528597  0.16670101  1.0
  C  C71  1  0.34500314  0.70472187  0.83330071  1.0
  C  C72  1  0.88620167  0.34219997  0.33506187  1.0
  C  C73  1  0.38616668  0.65779392  0.66494431  1.0
  C  C74  1  0.85777100  0.16217654  0.16199969  1.0
  C  C75  1  0.35779515  0.83783195  0.83799639  1.0
  C  C76  1  0.86159413  0.12346656  0.12313136  1.0
  C  C77  1  0.36162399  0.87653591  0.87686121  1.0
  C  C78  1  0.36663590  0.89440690  0.10476623  1.0
  C  C79  1  0.86662816  0.10559203  0.89523191  1.0
  C  C80  1  0.36439839  0.92152990  0.92375280  1.0
  C  C81  1  0.86437868  0.07847499  0.07624733  1.0
  C  C82  1  0.50571442  0.19290717  0.41089002  1.0
  C  C83  1  0.45380806  0.26252960  0.43461834  1.0
  C  C84  1  0.26719826  0.24724591  0.47967923  1.0
  C  C85  1  0.00570497  0.80710073  0.58911346  1.0
  C  C86  1  0.95380464  0.73747493  0.56538893  1.0
  C  C87  1  0.76719819  0.75275351  0.52033158  1.0
  C  C88  1  0.07848438  0.38402039  0.19989682  1.0
  C  C89  1  0.57846185  0.61596718  0.80010797  1.0
  N  N90  1  0.23981779  0.40926654  0.18877119  1.0
  N  N91  1  0.73978115  0.59071520  0.81123383  1.0
  O  O92  1  0.55371450  0.58486457  0.42201987  1.0
  O  O93  1  0.05371919  0.41513466  0.57797533  1.0
  O  O94  1  0.21357602  0.55712421  0.56082884  1.0
  O  O95  1  0.71359391  0.44287036  0.43917469  1.0
  O  O96  1  0.21220355  0.58491837  0.42299036  1.0
  O  O97  1  0.71220262  0.41508339  0.57701312  1.0
  O  O98  1  0.05457450  0.44284518  0.44007170  1.0
  O  O99  1  0.55457793  0.55715472  0.55992147  1.0
  O  O100  1  0.38348595  0.45479654  0.50496428  1.0
  O  O101  1  0.88348066  0.54519956  0.49503532  1.0
  O  O102  1  0.19480359  0.93884444  0.94334231  1.0
  O  O103  1  0.69479663  0.06115517  0.05665975  1.0
  O  O104  1  0.53690787  0.91762188  0.07912148  1.0
  O  O105  1  0.03689814  0.08238067  0.92088240  1.0
  O  O106  1  0.53579803  0.93887636  0.94204843  1.0
  O  O107  1  0.03577271  0.06112240  0.05795193  1.0
  O  O108  1  0.69531123  0.08193099  0.91967785  1.0
  O  O109  1  0.19530407  0.91807372  0.08032215  1.0
  O  O110  1  0.36602644  0.04548062  0.99327336  1.0
  O  O111  1  0.86602642  0.95452006  0.00672781  1.0
  O  O112  1  0.69206669  0.20025365  0.37465920  1.0
  O  O113  1  0.19205244  0.79974764  0.62534286  1.0
