# generated using pymatgen
data_AlH15C21N2O7F5
_symmetry_space_group_name_H-M   'P 1'
_cell_length_a   6.65251764
_cell_length_b   23.64302330
_cell_length_c   25.56731157
_cell_angle_alpha   79.00538982
_cell_angle_beta   89.48635532
_cell_angle_gamma   89.84738148
_symmetry_Int_Tables_number   1
_chemical_formula_structural   AlH15C21N2O7F5
_chemical_formula_sum   'Al4 H60 C84 N8 O28 F20'
_cell_volume   3947.39846354
_cell_formula_units_Z   4
loop_
 _symmetry_equiv_pos_site_id
 _symmetry_equiv_pos_as_xyz
  1  'x, y, z'
loop_
 _atom_site_type_symbol
 _atom_site_label
 _atom_site_symmetry_multiplicity
 _atom_site_fract_x
 _atom_site_fract_y
 _atom_site_fract_z
 _atom_site_occupancy
  Al  Al0  1  0.22392866  0.25129995  0.74991865  1.0
  Al  Al1  1  0.77528117  0.74988648  0.25068558  1.0
  Al  Al2  1  0.72388507  0.25009809  0.75070665  1.0
  Al  Al3  1  0.27518864  0.75102843  0.24960749  1.0
  H  H4  1  0.79965091  0.42516886  0.39308243  1.0
  H  H5  1  0.59640531  0.46450626  0.41562845  1.0
  H  H6  1  0.61660246  0.33270860  0.43259027  1.0
  H  H7  1  0.41203072  0.37420616  0.44879590  1.0
  H  H8  1  0.37652874  0.41907075  0.34999333  1.0
  H  H9  1  0.34498046  0.34318917  0.36225422  1.0
  H  H10  1  0.57504020  0.37406666  0.33513124  1.0
  H  H11  1  0.40701146  0.53517653  0.58378065  1.0
  H  H12  1  0.20182346  0.57361701  0.60655943  1.0
  H  H13  1  0.58784119  0.62642631  0.55137292  1.0
  H  H14  1  0.38173762  0.66681805  0.56846953  1.0
  H  H15  1  0.42599324  0.62342090  0.66573924  1.0
  H  H16  1  0.65332028  0.65626760  0.63857236  1.0
  H  H17  1  0.62768595  0.58025571  0.64943106  1.0
  H  H18  1  0.29556569  0.07422566  0.10691563  1.0
  H  H19  1  0.09138315  0.03561850  0.08493849  1.0
  H  H20  1  0.11576150  0.16728516  0.06928015  1.0
  H  H21  1  0.91103068  0.12693394  0.05240857  1.0
  H  H22  1  0.86618601  0.08080098  0.15038659  1.0
  H  H23  1  0.84111958  0.15686257  0.13972951  1.0
  H  H24  1  0.06702386  0.12364729  0.16663268  1.0
  H  H25  1  0.90920010  0.96452654  0.91488812  1.0
  H  H26  1  0.70483697  0.92598059  0.89290790  1.0
  H  H27  1  0.08906127  0.87315840  0.94750410  1.0
  H  H28  1  0.88416163  0.83286215  0.93064694  1.0
  H  H29  1  0.93338456  0.87633758  0.83325956  1.0
  H  H30  1  0.15894141  0.84302269  0.86028628  1.0
  H  H31  1  0.13449041  0.91909671  0.84950132  1.0
  H  H32  1  0.43098685  0.45905381  0.09860784  1.0
  H  H33  1  0.20180339  0.46678312  0.13386795  1.0
  H  H34  1  0.62346719  0.49757070  0.16717816  1.0
  H  H35  1  0.40085280  0.50254132  0.20434132  1.0
  H  H36  1  0.35253701  0.39446656  0.21632922  1.0
  H  H37  1  0.58837859  0.41126593  0.24112390  1.0
  H  H38  1  0.57513465  0.38950438  0.17846894  1.0
  H  H39  1  0.65233207  0.50154979  0.82202296  1.0
  H  H40  1  0.79727524  0.53686053  0.86501543  1.0
  H  H41  1  0.33817212  0.52257084  0.86883372  1.0
  H  H42  1  0.47716256  0.55500235  0.91305740  1.0
  H  H43  1  0.59627819  0.63267295  0.83665103  1.0
  H  H44  1  0.33025607  0.63011991  0.84096786  1.0
  H  H45  1  0.45721512  0.60011291  0.79124861  1.0
  H  H46  1  0.69378708  0.03903044  0.36114608  1.0
  H  H47  1  0.84027092  0.00314445  0.31817850  1.0
  H  H48  1  0.01124640  0.05570829  0.40939545  1.0
  H  H49  1  0.15207375  0.02270219  0.36528297  1.0
  H  H50  1  0.04315307  0.10111511  0.28772043  1.0
  H  H51  1  0.16742619  0.13008529  0.33787817  1.0
  H  H52  1  0.90200164  0.13428717  0.33301489  1.0
  H  H53  1  0.15945236  0.99664307  0.68244944  1.0
  H  H54  1  0.30629486  0.96115706  0.63924408  1.0
  H  H55  1  0.84788845  0.97715544  0.63515718  1.0
  H  H56  1  0.98917377  0.94446146  0.59091009  1.0
  H  H57  1  0.09873939  0.86565232  0.66704107  1.0
  H  H58  1  0.83329620  0.86972507  0.66215644  1.0
  H  H59  1  0.95715508  0.89850256  0.71249997  1.0
  H  H60  1  0.47553817  0.32372974  0.75550482  1.0
  H  H61  1  0.52467626  0.67874038  0.24140163  1.0
  H  H62  1  0.97714022  0.17715162  0.74660976  1.0
  H  H63  1  0.02202343  0.82311199  0.25666909  1.0
  C  C64  1  0.47511012  0.18904677  0.68501616  1.0
  C  C65  1  0.51993357  0.81147374  0.31597091  1.0
  C  C66  1  0.97158993  0.31170357  0.81625110  1.0
  C  C67  1  0.03109118  0.68929427  0.18455364  1.0
  C  C68  1  0.47133947  0.17474252  0.82837149  1.0
  C  C69  1  0.53186345  0.82644425  0.17219905  1.0
  C  C70  1  0.97288174  0.32615184  0.67198078  1.0
  C  C71  1  0.02260176  0.67449465  0.32804079  1.0
  C  C72  1  0.08166360  0.48265593  0.45632650  1.0
  C  C73  1  0.92097955  0.51717937  0.54310297  1.0
  C  C74  1  0.57964472  0.01789404  0.04279119  1.0
  C  C75  1  0.42077532  0.98240348  0.95704872  1.0
  C  C76  1  0.87844810  0.45792899  0.48498363  1.0
  C  C77  1  0.12418553  0.54189442  0.51447810  1.0
  C  C78  1  0.37618787  0.04207817  0.01487434  1.0
  C  C79  1  0.62424265  0.95818758  0.98497577  1.0
  C  C80  1  0.97350902  0.36926755  0.62383050  1.0
  C  C81  1  0.02564288  0.63095149  0.37590718  1.0
  C  C82  1  0.46922127  0.13095899  0.87604918  1.0
  C  C83  1  0.53152860  0.86986392  0.12424520  1.0
  C  C84  1  0.18903087  0.47762995  0.51124723  1.0
  C  C85  1  0.81360727  0.52218137  0.48821763  1.0
  C  C86  1  0.68758440  0.02262506  0.98748151  1.0
  C  C87  1  0.31289132  0.97765352  0.01235983  1.0
  C  C88  1  0.98848385  0.45350753  0.54071352  1.0
  C  C89  1  0.01416989  0.54630175  0.45871900  1.0
  C  C90  1  0.48657946  0.04628382  0.95870894  1.0
  C  C91  1  0.51389036  0.95398834  0.04112679  1.0
  C  C92  1  0.97690283  0.40734481  0.58446900  1.0
  C  C93  1  0.02461826  0.59261082  0.41505967  1.0
  C  C94  1  0.47374662  0.09246437  0.91505456  1.0
  C  C95  1  0.52677330  0.90800956  0.08496876  1.0
  C  C96  1  0.86146522  0.64947273  0.11121500  1.0
  C  C97  1  0.12329510  0.34426697  0.89601110  1.0
  C  C98  1  0.36251354  0.84683653  0.39444592  1.0
  C  C99  1  0.63543678  0.15362599  0.60703090  1.0
  C  C100  1  0.85384492  0.61104590  0.07619938  1.0
  C  C101  1  0.12206341  0.37909223  0.93426514  1.0
  C  C102  1  0.36057668  0.88314580  0.43146559  1.0
  C  C103  1  0.63848281  0.11744796  0.56990251  1.0
  C  C104  1  0.01222410  0.57319728  0.07255547  1.0
  C  C105  1  0.96829953  0.41879772  0.93619338  1.0
  C  C106  1  0.51453757  0.92273567  0.43249188  1.0
  C  C107  1  0.48483735  0.07779398  0.56864103  1.0
  C  C108  1  0.18509217  0.57481406  0.10367010  1.0
  C  C109  1  0.81062884  0.42338718  0.89941997  1.0
  C  C110  1  0.67534284  0.92570575  0.39606937  1.0
  C  C111  1  0.32323478  0.07465539  0.60487418  1.0
  C  C112  1  0.18824136  0.61323877  0.13916228  1.0
  C  C113  1  0.81479050  0.38811823  0.86117197  1.0
  C  C114  1  0.67395176  0.88918578  0.35891489  1.0
  C  C115  1  0.32333824  0.11121936  0.64198129  1.0
  C  C116  1  0.02828480  0.65079363  0.14430125  1.0
  C  C117  1  0.96936598  0.34826297  0.85815900  1.0
  C  C118  1  0.51939095  0.84930856  0.35681778  1.0
  C  C119  1  0.47747952  0.15107779  0.64426785  1.0
  C  C120  1  0.97739046  0.45909411  0.97390865  1.0
  C  C121  1  0.99909455  0.53181351  0.03606818  1.0
  C  C122  1  0.49318629  0.03704848  0.53131955  1.0
  C  C123  1  0.50703066  0.96366273  0.46966730  1.0
  C  C124  1  0.67719649  0.42299353  0.42279687  1.0
  C  C125  1  0.53545618  0.37361748  0.42002011  1.0
  C  C126  1  0.45347029  0.37777233  0.36373464  1.0
  C  C127  1  0.32481481  0.57645218  0.57693375  1.0
  C  C128  1  0.46455131  0.62608497  0.58035781  1.0
  C  C129  1  0.54737708  0.62118346  0.63667217  1.0
  C  C130  1  0.17327618  0.07690439  0.07766481  1.0
  C  C131  1  0.03285552  0.12657786  0.08126262  1.0
  C  C132  1  0.94712583  0.12165144  0.13766004  1.0
  C  C133  1  0.82710697  0.92327153  0.92216418  1.0
  C  C134  1  0.96730439  0.87352486  0.91862888  1.0
  C  C135  1  0.05318144  0.87831352  0.86226253  1.0
  C  C136  1  0.35649837  0.48317232  0.12608615  1.0
  C  C137  1  0.47520475  0.47776541  0.17736131  1.0
  C  C138  1  0.49902028  0.41476940  0.20475059  1.0
  C  C139  1  0.65642305  0.51313709  0.86177407  1.0
  C  C140  1  0.47396596  0.54811711  0.87172444  1.0
  C  C141  1  0.46430108  0.60582124  0.83292236  1.0
  C  C142  1  0.83421368  0.01480673  0.35791569  1.0
  C  C143  1  0.01719089  0.04894810  0.36802668  1.0
  C  C144  1  0.03282737  0.10666967  0.32943256  1.0
  C  C145  1  0.16560054  0.98522319  0.64261002  1.0
  C  C146  1  0.98297651  0.95101680  0.63234196  1.0
  C  C147  1  0.96768988  0.89315151  0.67072917  1.0
  N  N148  1  0.12938624  0.53849932  0.99462247  1.0
  N  N149  1  0.84637291  0.45249486  0.01512527  1.0
  N  N150  1  0.63865546  0.95646014  0.51015956  1.0
  N  N151  1  0.36216017  0.04439676  0.49067934  1.0
  N  N152  1  0.11798789  0.50073261  0.96265762  1.0
  N  N153  1  0.85821904  0.49012639  0.04739807  1.0
  N  N154  1  0.63090539  0.99457302  0.54198655  1.0
  N  N155  1  0.36988472  0.00628067  0.45885156  1.0
  O  O156  1  0.64426339  0.19192042  0.81052286  1.0
  O  O157  1  0.36018843  0.81219274  0.19288835  1.0
  O  O158  1  0.14428556  0.31087091  0.69153763  1.0
  O  O159  1  0.84997014  0.69280026  0.31170843  1.0
  O  O160  1  0.30461951  0.20567176  0.69857055  1.0
  O  O161  1  0.68995370  0.79812475  0.29914454  1.0
  O  O162  1  0.80254254  0.29740130  0.80044299  1.0
  O  O163  1  0.20045830  0.70749044  0.19634922  1.0
  O  O164  1  0.30163183  0.19101163  0.80825573  1.0
  O  O165  1  0.70254870  0.80756657  0.18964663  1.0
  O  O166  1  0.80167834  0.30850633  0.69077600  1.0
  O  O167  1  0.19204767  0.68943515  0.30629129  1.0
  O  O168  1  0.14288968  0.29884515  0.79970465  1.0
  O  O169  1  0.86211094  0.69939629  0.20432941  1.0
  O  O170  1  0.64426109  0.20057844  0.70292054  1.0
  O  O171  1  0.34988013  0.79667258  0.30110280  1.0
  O  O172  1  0.47435492  0.28511272  0.74791999  1.0
  O  O173  1  0.52479713  0.71591474  0.25214270  1.0
  O  O174  1  0.97494457  0.21631754  0.75280557  1.0
  O  O175  1  0.02431026  0.78498463  0.24795313  1.0
  O  O176  1  0.76481000  0.41336114  0.47574950  1.0
  O  O177  1  0.23793559  0.58637196  0.52386881  1.0
  O  O178  1  0.26124776  0.08657676  0.02434335  1.0
  O  O179  1  0.73908421  0.91367133  0.97547249  1.0
  O  O180  1  0.34952277  0.54240091  0.09707694  1.0
  O  O181  1  0.65658010  0.46084894  0.90253553  1.0
  O  O182  1  0.83068568  0.96257877  0.39869775  1.0
  O  O183  1  0.16849584  0.03763557  0.60203898  1.0
  F  F184  1  0.16395988  0.46789248  0.41180620  1.0
  F  F185  1  0.83849878  0.53189384  0.58761128  1.0
  F  F186  1  0.66101230  0.03319897  0.08677969  1.0
  F  F187  1  0.33937763  0.96706180  0.91307203  1.0
  F  F188  1  0.63193725  0.54735317  0.47601033  1.0
  F  F189  1  0.37082051  0.45252245  0.52347624  1.0
  F  F190  1  0.13129466  0.95251869  0.02537628  1.0
  F  F191  1  0.86914256  0.04777476  0.97442689  1.0
  F  F192  1  0.70646721  0.68618676  0.11101996  1.0
  F  F193  1  0.27397573  0.30589504  0.89750285  1.0
  F  F194  1  0.21174839  0.80852342  0.39700384  1.0
  F  F195  1  0.78563761  0.19204791  0.60501300  1.0
  F  F196  1  0.69413487  0.61264302  0.04365865  1.0
  F  F197  1  0.27199081  0.37354024  0.97031644  1.0
  F  F198  1  0.20815053  0.87885470  0.46739821  1.0
  F  F199  1  0.79149319  0.12189535  0.53413949  1.0
  F  F200  1  0.35193419  0.61189570  0.17035716  1.0
  F  F201  1  0.66392601  0.39509402  0.82525194  1.0
  F  F202  1  0.82804693  0.89493830  0.32330815  1.0
  F  F203  1  0.16889518  0.10558510  0.67750963  1.0
