# generated using pymatgen
data_AlH12C24(BrO2)3
_symmetry_space_group_name_H-M   'P 1'
_cell_length_a   4.08636781
_cell_length_b   28.66791452
_cell_length_c   28.66792516
_cell_angle_alpha   59.99980230
_cell_angle_beta   90.00005576
_cell_angle_gamma   89.99956662
_symmetry_Int_Tables_number   1
_chemical_formula_structural   AlH12C24(BrO2)3
_chemical_formula_sum   'Al2 H24 C48 Br6 O12'
_cell_volume   2908.43648338
_cell_formula_units_Z   2
loop_
 _symmetry_equiv_pos_site_id
 _symmetry_equiv_pos_as_xyz
  1  'x, y, z'
loop_
 _atom_site_type_symbol
 _atom_site_label
 _atom_site_symmetry_multiplicity
 _atom_site_fract_x
 _atom_site_fract_y
 _atom_site_fract_z
 _atom_site_occupancy
  Al  Al0  1  0.02319926  0.49999977  0.99999577  1.0
  Al  Al1  1  0.02313666  0.16666699  0.66666480  1.0
  H  H2  1  0.85457053  0.29257198  0.51169854  1.0
  H  H3  1  0.83328365  0.33672265  0.41254360  1.0
  H  H4  1  0.15964705  0.21489928  0.42544596  1.0
  H  H5  1  0.17718484  0.17205611  0.52474510  1.0
  H  H6  1  0.15964521  0.45176623  0.24121191  1.0
  H  H7  1  0.83339833  0.32995496  0.25412417  1.0
  H  H8  1  0.85470919  0.37410096  0.15497085  1.0
  H  H9  1  0.17721929  0.49460607  0.14191521  1.0
  H  H10  1  0.85458863  0.19573099  0.79256491  1.0
  H  H11  1  0.83328890  0.25073468  0.83671601  1.0
  H  H12  1  0.15960917  0.35965373  0.71489509  1.0
  H  H13  1  0.17714766  0.30319807  0.67205103  1.0
  H  H14  1  0.15964312  0.30701865  0.95176110  1.0
  H  H15  1  0.83341430  0.41591385  0.82995290  1.0
  H  H16  1  0.85472045  0.47092110  0.87409805  1.0
  H  H17  1  0.17722465  0.36347653  0.99459840  1.0
  H  H18  1  0.85457351  0.01169897  0.69573251  1.0
  H  H19  1  0.83326903  0.91254367  0.75073769  1.0
  H  H20  1  0.15963904  0.92545080  0.85965772  1.0
  H  H21  1  0.17718711  0.02475100  0.80320049  1.0
  H  H22  1  0.15957022  0.74121783  0.80702657  1.0
  H  H23  1  0.83338135  0.75412859  0.91591903  1.0
  H  H24  1  0.85469153  0.65497512  0.97092481  1.0
  H  H25  1  0.17714115  0.64192148  0.86348317  1.0
  C  C26  1  0.52215354  0.58227557  0.95422533  1.0
  C  C27  1  0.52216682  0.46349989  0.08227059  1.0
  C  C28  1  0.52217401  0.45422600  0.96349449  1.0
  C  C29  1  0.52208955  0.20316460  0.58438922  1.0
  C  C30  1  0.52208970  0.21244698  0.70316090  1.0
  C  C31  1  0.52209549  0.08439089  0.71244658  1.0
  C  C32  1  0.51299990  0.22993174  0.52460215  1.0
  C  C33  1  0.69603645  0.27657761  0.49245464  1.0
  C  C34  1  0.68201339  0.30148215  0.43664949  1.0
  C  C35  1  0.48531594  0.28029658  0.41119947  1.0
  C  C36  1  0.31119934  0.23237964  0.44402850  1.0
  C  C37  1  0.32135587  0.20803281  0.49974865  1.0
  C  C38  1  0.46859607  0.30663708  0.35206127  1.0
  C  C39  1  0.46860190  0.36003386  0.31460737  1.0
  C  C40  1  0.31123254  0.43429335  0.22262872  1.0
  C  C41  1  0.48538366  0.38637838  0.25545832  1.0
  C  C42  1  0.68212853  0.36518892  0.23001773  1.0
  C  C43  1  0.69616706  0.39009205  0.17421260  1.0
  C  C44  1  0.51308874  0.43673530  0.14206653  1.0
  C  C45  1  0.32140458  0.45863682  0.16691180  1.0
  C  C46  1  0.51299772  0.24546685  0.72992309  1.0
  C  C47  1  0.69604264  0.23096977  0.77656888  1.0
  C  C48  1  0.68200745  0.26187181  0.80147422  1.0
  C  C49  1  0.48530582  0.30850677  0.78029075  1.0
  C  C50  1  0.31118242  0.32359287  0.73237571  1.0
  C  C51  1  0.32134377  0.29221786  0.70802702  1.0
  C  C52  1  0.46858850  0.34129824  0.80663001  1.0
  C  C53  1  0.46861355  0.32535371  0.86002728  1.0
  C  C54  1  0.31122662  0.34307389  0.93429069  1.0
  C  C55  1  0.48539542  0.35816061  0.88637541  1.0
  C  C56  1  0.68214100  0.40478837  0.86518568  1.0
  C  C57  1  0.69618209  0.43569110  0.89008822  1.0
  C  C58  1  0.51309337  0.42119359  0.93672949  1.0
  C  C59  1  0.32140853  0.37444836  0.95863135  1.0
  C  C60  1  0.51300594  0.02460684  0.74546905  1.0
  C  C61  1  0.69604234  0.99245779  0.73097077  1.0
  C  C62  1  0.68200453  0.93665068  0.76187377  1.0
  C  C63  1  0.48530743  0.91120114  0.80850821  1.0
  C  C64  1  0.31119846  0.94403228  0.82359559  1.0
  C  C65  1  0.32136487  0.99975402  0.79222011  1.0
  C  C66  1  0.46857049  0.85206628  0.84130390  1.0
  C  C67  1  0.46856162  0.81461424  0.82536013  1.0
  C  C68  1  0.31115776  0.72263461  0.84307999  1.0
  C  C69  1  0.48533365  0.75546215  0.85816511  1.0
  C  C70  1  0.68208865  0.73002091  0.90479369  1.0
  C  C71  1  0.69613935  0.67421523  0.93569589  1.0
  C  C72  1  0.51305089  0.64207086  0.92119924  1.0
  C  C73  1  0.32134684  0.66691765  0.87445426  1.0
  Br  Br74  1  0.41737088  0.25589493  0.32686472  1.0
  Br  Br75  1  0.41728370  0.41077783  0.33979622  1.0
  Br  Br76  1  0.41731834  0.41724068  0.75589258  1.0
  Br  Br77  1  0.41732319  0.24942168  0.91077191  1.0
  Br  Br78  1  0.41735231  0.82686729  0.91724384  1.0
  Br  Br79  1  0.41725598  0.83980061  0.74942739  1.0
  O  O80  1  0.29053583  0.44702822  0.99638544  1.0
  O  O81  1  0.29053284  0.55658231  0.94702468  1.0
  O  O82  1  0.29053720  0.49639059  0.05657755  1.0
  O  O83  1  0.75979735  0.48719108  0.95202080  1.0
  O  O84  1  0.75980106  0.45202596  0.06077972  1.0
  O  O85  1  0.75979067  0.56078387  0.98718741  1.0
  O  O86  1  0.29049308  0.11008769  0.71964137  1.0
  O  O87  1  0.29049361  0.17027285  0.61008487  1.0
  O  O88  1  0.29049253  0.21964203  0.67026894  1.0
  O  O89  1  0.75970437  0.10588294  0.67948189  1.0
  O  O90  1  0.75970258  0.17948287  0.71463281  1.0
  O  O91  1  0.75971110  0.21463705  0.60588113  1.0
