# generated using pymatgen
data_CuSiH4C8S4(N2F3)2
_symmetry_space_group_name_H-M   'P 1'
_cell_length_a   7.73034902
_cell_length_b   8.54343697
_cell_length_c   8.54341866
_cell_angle_alpha   92.11805943
_cell_angle_beta   95.53450490
_cell_angle_gamma   95.53527379
_symmetry_Int_Tables_number   1
_chemical_formula_structural   CuSiH4C8S4(N2F3)2
_chemical_formula_sum   'Cu1 Si1 H4 C8 S4 N4 F6'
_cell_volume   558.38052678
_cell_formula_units_Z   1
loop_
 _symmetry_equiv_pos_site_id
 _symmetry_equiv_pos_as_xyz
  1  'x, y, z'
loop_
 _atom_site_type_symbol
 _atom_site_label
 _atom_site_symmetry_multiplicity
 _atom_site_fract_x
 _atom_site_fract_y
 _atom_site_fract_z
 _atom_site_occupancy
  Cu  Cu0  1  0.50003288  0.50001759  0.50002502  1.0
  Si  Si1  1  0.00002439  0.50000223  0.49999616  1.0
  H  H2  1  0.24237494  0.42358880  0.75007079  1.0
  H  H3  1  0.75761091  0.57641519  0.24993847  1.0
  H  H4  1  0.24236462  0.75006468  0.42357960  1.0
  H  H5  1  0.75761861  0.24992865  0.57642577  1.0
  C  C6  1  0.36966455  0.46048284  0.81454092  1.0
  C  C7  1  0.63030805  0.53952033  0.18547154  1.0
  C  C8  1  0.58876866  0.52621743  0.02047440  1.0
  C  C9  1  0.41120958  0.47378114  0.97954685  1.0
  C  C10  1  0.36967350  0.81453705  0.46047754  1.0
  C  C11  1  0.63030722  0.18546564  0.53952294  1.0
  C  C12  1  0.58877177  0.02046606  0.52621775  1.0
  C  C13  1  0.41120525  0.97953651  0.47377530  1.0
  S  S14  1  0.69288569  0.55359226  0.85396158  1.0
  S  S15  1  0.30709119  0.44642653  0.14606555  1.0
  S  S16  1  0.69288086  0.85395510  0.55358719  1.0
  S  S17  1  0.30710139  0.14605942  0.44641590  1.0
  N  N18  1  0.50685755  0.50057781  0.73688650  1.0
  N  N19  1  0.49312765  0.49944430  0.26313923  1.0
  N  N20  1  0.50684638  0.73688468  0.50056849  1.0
  N  N21  1  0.49314065  0.26312881  0.49944449  1.0
  F  F22  1  0.20316592  0.45003514  0.45003778  1.0
  F  F23  1  0.79690585  0.55000989  0.54998724  1.0
  F  F24  1  0.00003880  0.63977756  0.36017588  1.0
  F  F25  1  0.00001216  0.36017363  0.63976471  1.0
  F  F26  1  0.89812997  0.36392330  0.36390763  1.0
  F  F27  1  0.10193558  0.63606788  0.63608228  1.0
