# generated using pymatgen
data_ZnH13C28I2N(O2F)2
_symmetry_space_group_name_H-M   'P 1'
_cell_length_a   15.49911564
_cell_length_b   18.38485610
_cell_length_c   19.66448785
_cell_angle_alpha   88.56173025
_cell_angle_beta   88.13383900
_cell_angle_gamma   68.14577368
_symmetry_Int_Tables_number   1
_chemical_formula_structural   ZnH13C28I2N(O2F)2
_chemical_formula_sum   'Zn2 H26 C56 I4 N2 O8 F4'
_cell_volume   5197.41674860
_cell_formula_units_Z   2
loop_
 _symmetry_equiv_pos_site_id
 _symmetry_equiv_pos_as_xyz
  1  'x, y, z'
loop_
 _atom_site_type_symbol
 _atom_site_label
 _atom_site_symmetry_multiplicity
 _atom_site_fract_x
 _atom_site_fract_y
 _atom_site_fract_z
 _atom_site_occupancy
  Zn  Zn0  1  0.49822017  0.57748318  0.49606940  1.0
  Zn  Zn1  1  0.50206886  0.42221662  0.50463681  1.0
  H  H2  1  0.88382902  0.70186544  0.57039554  1.0
  H  H3  1  0.11978471  0.28589923  0.51681890  1.0
  H  H4  1  0.59707767  0.55967087  0.06065369  1.0
  H  H5  1  0.40917894  0.43873135  0.93937431  1.0
  H  H6  1  0.59960392  0.55983233  0.93512837  1.0
  H  H7  1  0.40641136  0.43869630  0.06487540  1.0
  H  H8  1  0.40134957  0.85634507  0.56808144  1.0
  H  H9  1  0.59165067  0.14600804  0.42666802  1.0
  H  H10  1  0.41056396  0.71697579  0.56105217  1.0
  H  H11  1  0.58371660  0.28482079  0.43525383  1.0
  H  H12  1  0.37324030  0.10560842  0.43819679  1.0
  H  H13  1  0.62461568  0.89456992  0.55941001  1.0
  H  H14  1  0.76779318  0.52254637  0.52786552  1.0
  H  H15  1  0.22993249  0.47346907  0.50753158  1.0
  H  H16  1  0.81378970  0.28093759  0.50237863  1.0
  H  H17  1  0.18719132  0.71345361  0.53820663  1.0
  H  H18  1  0.01759371  0.74452259  0.56093394  1.0
  H  H19  1  0.98572073  0.24582226  0.50874723  1.0
  H  H20  1  0.81929572  0.59968506  0.56012809  1.0
  H  H21  1  0.18324674  0.38905439  0.52218764  1.0
  H  H22  1  0.50906861  0.37248259  0.28247770  1.0
  H  H23  1  0.49139353  0.62956134  0.71885914  1.0
  H  H24  1  0.51141041  0.37690454  0.15549307  1.0
  H  H25  1  0.49041147  0.62347983  0.84598225  1.0
  H  H26  1  0.48766023  0.61245072  0.28461001  1.0
  H  H27  1  0.52024199  0.38791143  0.71457545  1.0
  C  C28  1  0.50418406  0.51195855  0.63248832  1.0
  C  C29  1  0.49833536  0.49049950  0.36821663  1.0
  C  C30  1  0.89377531  0.58469207  0.55214825  1.0
  C  C31  1  0.10815353  0.40507357  0.52396313  1.0
  C  C32  1  0.92959610  0.64203753  0.55801863  1.0
  C  C33  1  0.07292066  0.34713866  0.52096523  1.0
  C  C34  1  0.50454285  0.42583070  0.25488345  1.0
  C  C35  1  0.49774729  0.57557781  0.74610264  1.0
  C  C36  1  0.50532763  0.42874028  0.18409454  1.0
  C  C37  1  0.49766821  0.57173488  0.81684299  1.0
  C  C38  1  0.50105052  0.49667609  0.14727704  1.0
  C  C39  1  0.50428092  0.50279514  0.85295512  1.0
  C  C40  1  0.49519724  0.56133153  0.18630155  1.0
  C  C41  1  0.51176717  0.43806952  0.81348477  1.0
  C  C42  1  0.49341016  0.56039220  0.25670793  1.0
  C  C43  1  0.51305986  0.43989330  0.74311170  1.0
  C  C44  1  0.49860466  0.49178099  0.29185667  1.0
  C  C45  1  0.50535922  0.50953203  0.70869684  1.0
  C  C46  1  0.55510630  0.53368957  0.03431314  1.0
  C  C47  1  0.45109045  0.46475286  0.96579686  1.0
  C  C48  1  0.55620964  0.53401976  0.96355703  1.0
  C  C49  1  0.44989642  0.46449838  0.03655311  1.0
  C  C50  1  0.31983760  0.56822279  0.50868947  1.0
  C  C51  1  0.67977520  0.42831529  0.50564216  1.0
  C  C52  1  0.50410913  0.49981170  0.92799701  1.0
  C  C53  1  0.50187850  0.49885517  0.07217300  1.0
  C  C54  1  0.57384690  0.70777801  0.44675614  1.0
  C  C55  1  0.43096255  0.28973866  0.55684354  1.0
  C  C56  1  0.57241609  0.78511659  0.44679138  1.0
  C  C57  1  0.42959684  0.21338368  0.55445197  1.0
  C  C58  1  0.50984461  0.83963326  0.49128937  1.0
  C  C59  1  0.48830060  0.16043127  0.50704357  1.0
  C  C60  1  0.45059227  0.81533653  0.53316028  1.0
  C  C61  1  0.54510188  0.18586140  0.46366353  1.0
  C  C62  1  0.45529882  0.73878849  0.52972479  1.0
  C  C63  1  0.54149416  0.26201743  0.46826809  1.0
  C  C64  1  0.43572371  0.98271257  0.46209640  1.0
  C  C65  1  0.56196990  0.01748004  0.53568790  1.0
  C  C66  1  0.42873730  0.06005547  0.46481906  1.0
  C  C67  1  0.56905170  0.94016016  0.53286995  1.0
  C  C68  1  0.49267641  0.07863882  0.50244499  1.0
  C  C69  1  0.50504792  0.92156213  0.49528298  1.0
  C  C70  1  0.21752788  0.59044657  0.52181119  1.0
  C  C71  1  0.78222984  0.40472415  0.51416866  1.0
  C  C72  1  0.06434922  0.68475118  0.54948333  1.0
  C  C73  1  0.93772826  0.30661015  0.51340540  1.0
  C  C74  1  0.15795011  0.66801549  0.53694741  1.0
  C  C75  1  0.84310371  0.32552955  0.50969792  1.0
  C  C76  1  0.18152694  0.53182138  0.52023261  1.0
  C  C77  1  0.81754312  0.46256756  0.52490484  1.0
  C  C78  1  0.08672261  0.54671426  0.53325038  1.0
  C  C79  1  0.91370698  0.44521113  0.52923666  1.0
  C  C80  1  0.02644298  0.62549557  0.54739210  1.0
  C  C81  1  0.97519184  0.36531330  0.52171314  1.0
  C  C82  1  0.04914946  0.48553370  0.53130804  1.0
  C  C83  1  0.95172739  0.50542238  0.53760077  1.0
  I  I84  1  0.66777065  0.62263664  0.38377903  1.0
  I  I85  1  0.34876827  0.37014456  0.62864023  1.0
  I  I86  1  0.65873346  0.82151552  0.38141577  1.0
  I  I87  1  0.34358886  0.17641774  0.61971759  1.0
  N  N88  1  0.51575138  0.68628230  0.48733696  1.0
  N  N89  1  0.48559672  0.31272394  0.51405962  1.0
  O  O90  1  0.49583445  0.57626156  0.60236008  1.0
  O  O91  1  0.50767021  0.42619147  0.39879597  1.0
  O  O92  1  0.51105801  0.44849157  0.60390996  1.0
  O  O93  1  0.48913354  0.55477633  0.39643358  1.0
  O  O94  1  0.35368584  0.62170665  0.50702927  1.0
  O  O95  1  0.64626551  0.37493641  0.50146643  1.0
  O  O96  1  0.36660465  0.49520483  0.50070158  1.0
  O  O97  1  0.63288807  0.50188003  0.50278820  1.0
  F  F98  1  0.37315734  0.96563523  0.42504955  1.0
  F  F99  1  0.62445342  0.03459704  0.57281577  1.0
  F  F100  1  0.48845383  0.63000245  0.15395799  1.0
  F  F101  1  0.52065332  0.36864143  0.84531741  1.0
