# generated using pymatgen
data_AlH21(C9O2)3
_symmetry_space_group_name_H-M   'P 1'
_cell_length_a   4.08301055
_cell_length_b   28.58117834
_cell_length_c   28.58539819
_cell_angle_alpha   119.99953016
_cell_angle_beta   90.00395454
_cell_angle_gamma   89.99627315
_symmetry_Int_Tables_number   1
_chemical_formula_structural   AlH21(C9O2)3
_chemical_formula_sum   'Al2 H42 C54 O12'
_cell_volume   2888.93363153
_cell_formula_units_Z   2
loop_
 _symmetry_equiv_pos_site_id
 _symmetry_equiv_pos_as_xyz
  1  'x, y, z'
loop_
 _atom_site_type_symbol
 _atom_site_label
 _atom_site_symmetry_multiplicity
 _atom_site_fract_x
 _atom_site_fract_y
 _atom_site_fract_z
 _atom_site_occupancy
  Al  Al0  1  0.99575848  0.00002364  0.50002681  1.0
  Al  Al1  1  0.99581560  0.33332785  0.16664301  1.0
  H  H2  1  0.84252310  0.48687594  0.29249459  1.0
  H  H3  1  0.84884522  0.58625815  0.33560549  1.0
  H  H4  1  0.17751508  0.57605434  0.21428501  1.0
  H  H5  1  0.17458027  0.47741384  0.17218131  1.0
  H  H6  1  0.17816562  0.75729506  0.45251056  1.0
  H  H7  1  0.84890891  0.74704377  0.33111528  1.0
  H  H8  1  0.84282107  0.84644419  0.37423383  1.0
  H  H9  1  0.17509505  0.85594165  0.49458370  1.0
  H  H10  1  0.84260823  0.20747417  0.19438085  1.0
  H  H11  1  0.84876359  0.16437470  0.25066508  1.0
  H  H12  1  0.17738383  0.28571944  0.36172220  1.0
  H  H13  1  0.17457176  0.32781494  0.30518090  1.0
  H  H14  1  0.17797035  0.04749023  0.30481071  1.0
  H  H15  1  0.84879137  0.16890463  0.41592366  1.0
  H  H16  1  0.84266489  0.12581324  0.47222487  1.0
  H  H17  1  0.17496884  0.00543391  0.36139261  1.0
  H  H18  1  0.84268158  0.30562682  0.01311237  1.0
  H  H19  1  0.84900892  0.24935301  0.91373786  1.0
  H  H20  1  0.17791554  0.13821484  0.92394905  1.0
  H  H21  1  0.17484043  0.19476020  0.02257393  1.0
  H  H22  1  0.17812106  0.19521545  0.74272397  1.0
  H  H23  1  0.84908398  0.08406815  0.75296979  1.0
  H  H24  1  0.84291482  0.02779352  0.65358360  1.0
  H  H25  1  0.17504303  0.13865631  0.64409180  1.0
  H  H26  1  0.38340489  0.71235028  0.28603252  1.0
  H  H27  1  0.32922991  0.64536115  0.23186387  1.0
  H  H28  1  0.72560316  0.67173087  0.25085630  1.0
  H  H29  1  0.38436391  0.62104670  0.38084524  1.0
  H  H30  1  0.33181127  0.68809393  0.43504564  1.0
  H  H31  1  0.72753242  0.66154960  0.41575442  1.0
  H  H32  1  0.38314192  0.21395935  0.42628214  1.0
  H  H33  1  0.32877108  0.26813057  0.41346701  1.0
  H  H34  1  0.72521548  0.24917768  0.42086172  1.0
  H  H35  1  0.38435913  0.11911164  0.24018525  1.0
  H  H36  1  0.33177705  0.06492016  0.25305137  1.0
  H  H37  1  0.72752993  0.08422041  0.24581161  1.0
  H  H38  1  0.38374094  0.07367298  0.78767756  1.0
  H  H39  1  0.32995068  0.08649060  0.85467311  1.0
  H  H40  1  0.72616496  0.07914232  0.82827064  1.0
  H  H41  1  0.38444250  0.25979317  0.87894724  1.0
  H  H42  1  0.33182842  0.24696336  0.81190982  1.0
  H  H43  1  0.72756906  0.25421054  0.83845571  1.0
  C  C44  1  0.49782206  0.04508316  0.58254398  1.0
  C  C45  1  0.49782856  0.91749266  0.46255309  1.0
  C  C46  1  0.49771732  0.03748811  0.45497013  1.0
  C  C47  1  0.49775250  0.41585189  0.20414233  1.0
  C  C48  1  0.49781475  0.29583018  0.21167088  1.0
  C  C49  1  0.49784715  0.28830220  0.08413092  1.0
  C  C50  1  0.50475755  0.47568257  0.22993233  1.0
  C  C51  1  0.69251424  0.50705537  0.27635029  1.0
  C  C52  1  0.69164083  0.56304434  0.30079915  1.0
  C  C53  1  0.50573883  0.59014474  0.27993744  1.0
  C  C54  1  0.32836161  0.55754260  0.23201316  1.0
  C  C55  1  0.32366813  0.50164532  0.20790958  1.0
  C  C56  1  0.49884977  0.64992738  0.30587478  1.0
  C  C57  1  0.49920742  0.68341231  0.36088329  1.0
  C  C58  1  0.32884659  0.77581030  0.43474939  1.0
  C  C59  1  0.50600189  0.74318844  0.38681394  1.0
  C  C60  1  0.69184520  0.77027878  0.36594035  1.0
  C  C61  1  0.69269110  0.82627582  0.39037016  1.0
  C  C62  1  0.50495770  0.85766315  0.43679732  1.0
  C  C63  1  0.32411811  0.83169872  0.45883801  1.0
  C  C64  1  0.50480310  0.27005165  0.24572048  1.0
  C  C65  1  0.69251375  0.22362253  0.23068942  1.0
  C  C66  1  0.69151678  0.19918033  0.26223417  1.0
  C  C67  1  0.50555704  0.22005085  0.31017968  1.0
  C  C68  1  0.32826414  0.26798290  0.32548361  1.0
  C  C69  1  0.32368680  0.29207971  0.29369513  1.0
  C  C70  1  0.49862427  0.19412289  0.34402822  1.0
  C  C71  1  0.49908680  0.13910616  0.32251741  1.0
  C  C72  1  0.32869837  0.06525409  0.34107576  1.0
  C  C73  1  0.50590125  0.11318461  0.35637586  1.0
  C  C74  1  0.69176028  0.13407981  0.40433981  1.0
  C  C75  1  0.69260754  0.10965739  0.43591265  1.0
  C  C76  1  0.50488764  0.06323266  0.42088786  1.0
  C  C77  1  0.32398355  0.04117387  0.37288509  1.0
  C  C78  1  0.50492399  0.25425806  0.02430591  1.0
  C  C79  1  0.69267839  0.26930016  0.99293802  1.0
  C  C80  1  0.69187671  0.23775622  0.93695001  1.0
  C  C81  1  0.50600294  0.18978789  0.90985503  1.0
  C  C82  1  0.32866854  0.17446613  0.94245589  1.0
  C  C83  1  0.32392030  0.20626584  0.99834856  1.0
  C  C84  1  0.49913660  0.15594943  0.85008417  1.0
  C  C85  1  0.49938671  0.17747436  0.81659948  1.0
  C  C86  1  0.32884169  0.15894461  0.72421631  1.0
  C  C87  1  0.50611329  0.14362697  0.75682736  1.0
  C  C88  1  0.69195542  0.09565988  0.72974120  1.0
  C  C89  1  0.69277755  0.06410099  0.67374887  1.0
  C  C90  1  0.50501410  0.07914746  0.64236933  1.0
  C  C91  1  0.32406999  0.12715179  0.66832984  1.0
  C  C92  1  0.48148155  0.67123300  0.26703782  1.0
  C  C93  1  0.48293870  0.66212901  0.39974876  1.0
  C  C94  1  0.48115454  0.23296802  0.40416825  1.0
  C  C95  1  0.48290490  0.10021669  0.26237501  1.0
  C  C96  1  0.48192962  0.09580288  0.82878298  1.0
  C  C97  1  0.48299102  0.23762466  0.83786742  1.0
  O  O98  1  0.25987382  0.00543317  0.44756561  1.0
  O  O99  1  0.25995465  0.05249606  0.55790334  1.0
  O  O100  1  0.25999736  0.94214304  0.49461518  1.0
  O  O101  1  0.72909505  0.04912408  0.48919950  1.0
  O  O102  1  0.72917624  0.94008536  0.45092355  1.0
  O  O103  1  0.72917030  0.01084745  0.55994668  1.0
  O  O104  1  0.26004839  0.28087506  0.10877364  1.0
  O  O105  1  0.25996896  0.39120222  0.17206042  1.0
  O  O106  1  0.26006310  0.32791006  0.21908973  1.0
  O  O107  1  0.72926529  0.32252311  0.10672380  1.0
  O  O108  1  0.72927443  0.28420243  0.17746435  1.0
  O  O109  1  0.72922263  0.39325813  0.21575788  1.0
