# generated using pymatgen
data_AlH12C21NO9
_symmetry_space_group_name_H-M   'P 1'
_cell_length_a   4.13338880
_cell_length_b   13.46512884
_cell_length_c   13.46498336
_cell_angle_alpha   60.00010283
_cell_angle_beta   89.99917705
_cell_angle_gamma   90.00046862
_symmetry_Int_Tables_number   1
_chemical_formula_structural   AlH12C21NO9
_chemical_formula_sum   'Al1 H12 C21 N1 O9'
_cell_volume   649.01341603
_cell_formula_units_Z   1
loop_
 _symmetry_equiv_pos_site_id
 _symmetry_equiv_pos_as_xyz
  1  'x, y, z'
loop_
 _atom_site_type_symbol
 _atom_site_label
 _atom_site_symmetry_multiplicity
 _atom_site_fract_x
 _atom_site_fract_y
 _atom_site_fract_z
 _atom_site_occupancy
  Al  Al0  1  0.97814822  0.00000263  0.50000253  1.0
  H  H1  1  0.18117173  0.97437053  0.20392886  1.0
  H  H2  1  0.19701125  0.86918154  0.09780683  1.0
  H  H3  1  0.80184922  0.61169230  0.36245419  1.0
  H  H4  1  0.80186757  0.86244672  0.02586495  1.0
  H  H5  1  0.18115157  0.70394327  0.82169541  1.0
  H  H6  1  0.19699204  0.59780757  0.03300690  1.0
  H  H7  1  0.80184889  0.52585679  0.11169184  1.0
  H  H8  1  0.18115344  0.32169603  0.47438259  1.0
  H  H9  1  0.19699804  0.53300447  0.36919358  1.0
  H  H10  1  0.97050043  0.77510328  0.48372097  1.0
  H  H11  1  0.97049746  0.98372489  0.74118370  1.0
  H  H12  1  0.97049949  0.24118137  0.27510289  1.0
  C  C13  1  0.48246486  0.90422207  0.67701422  1.0
  C  C14  1  0.48246963  0.17701439  0.41878003  1.0
  C  C15  1  0.48248576  0.91877706  0.40421316  1.0
  C  C16  1  0.32401153  0.89603486  0.23705715  1.0
  C  C17  1  0.32677732  0.83578463  0.17831632  1.0
  C  C18  1  0.49278074  0.73091214  0.22391334  1.0
  C  C19  1  0.66591016  0.69124322  0.32622197  1.0
  C  C20  1  0.67801605  0.75438172  0.38240389  1.0
  C  C21  1  0.49661763  0.85615663  0.33952483  1.0
  C  C22  1  0.66590923  0.82622198  0.98253791  1.0
  C  C23  1  0.67801174  0.88240793  0.86321780  1.0
  C  C24  1  0.49659718  0.83953446  0.80432296  1.0
  C  C25  1  0.32397570  0.73707063  0.86690193  1.0
  C  C26  1  0.32676651  0.67831895  0.98589997  1.0
  C  C27  1  0.49277502  0.72391072  0.04517619  1.0
  C  C28  1  0.66590235  0.48253461  0.19124719  1.0
  C  C29  1  0.67799830  0.36321543  0.25438415  1.0
  C  C30  1  0.49660165  0.30431742  0.35615906  1.0
  C  C31  1  0.32398054  0.36690141  0.39604529  1.0
  C  C32  1  0.32675608  0.48588962  0.33579343  1.0
  C  C33  1  0.49277318  0.54517605  0.23091829  1.0
  N  N34  1  0.48827879  0.66666572  0.16666859  1.0
  O  O35  1  0.71151942  0.98758908  0.39081432  1.0
  O  O36  1  0.71150318  0.89082033  0.62160312  1.0
  O  O37  1  0.71150214  0.12159682  0.48758537  1.0
  O  O38  1  0.23862595  0.89864607  0.47109996  1.0
  O  O39  1  0.23863078  0.13025593  0.39864481  1.0
  O  O40  1  0.23862576  0.97110579  0.63025305  1.0
  O  O41  1  0.86124305  0.71202865  0.47982675  1.0
  O  O42  1  0.86124171  0.97982769  0.80815380  1.0
  O  O43  1  0.86124040  0.30814616  0.21203276  1.0
