# generated using pymatgen
data_Mn3H50C64N4O19
_symmetry_space_group_name_H-M   'P 1'
_cell_length_a   16.53491982
_cell_length_b   17.93974759
_cell_length_c   17.93935215
_cell_angle_alpha   67.63248431
_cell_angle_beta   73.01390389
_cell_angle_gamma   73.01390289
_symmetry_Int_Tables_number   1
_chemical_formula_structural   Mn3H50C64N4O19
_chemical_formula_sum   'Mn6 H100 C128 N8 O38'
_cell_volume   4606.76778742
_cell_formula_units_Z   2
loop_
 _symmetry_equiv_pos_site_id
 _symmetry_equiv_pos_as_xyz
  1  'x, y, z'
loop_
 _atom_site_type_symbol
 _atom_site_label
 _atom_site_symmetry_multiplicity
 _atom_site_fract_x
 _atom_site_fract_y
 _atom_site_fract_z
 _atom_site_occupancy
  Mn  Mn0  1  0.00000866  0.49998610  0.99999248  1.0
  Mn  Mn1  1  0.49997344  0.00004279  0.50000555  1.0
  Mn  Mn2  1  0.04336942  0.32126301  0.14591131  1.0
  Mn  Mn3  1  0.45663566  0.85409829  0.67872541  1.0
  Mn  Mn4  1  0.95663407  0.67872021  0.85411537  1.0
  Mn  Mn5  1  0.54337675  0.14589486  0.32125056  1.0
  H  H6  1  0.96039348  0.18671225  0.74504949  1.0
  H  H7  1  0.53960534  0.25495643  0.81328143  1.0
  H  H8  1  0.03960604  0.81329009  0.25495205  1.0
  H  H9  1  0.46039661  0.74504963  0.18670915  1.0
  H  H10  1  0.84870519  0.23329953  0.77274502  1.0
  H  H11  1  0.65129553  0.22725974  0.76669884  1.0
  H  H12  1  0.15129471  0.76670405  0.22725485  1.0
  H  H13  1  0.34870637  0.77274630  0.23329844  1.0
  H  H14  1  0.99820911  0.33445074  0.58078233  1.0
  H  H15  1  0.50179464  0.41922100  0.66554692  1.0
  H  H16  1  0.00179442  0.66555344  0.41922025  1.0
  H  H17  1  0.49820893  0.58078320  0.33445062  1.0
  H  H18  1  0.97379488  0.29130119  0.51625375  1.0
  H  H19  1  0.52620657  0.48374608  0.70870070  1.0
  H  H20  1  0.02620292  0.70870916  0.48374690  1.0
  H  H21  1  0.47379510  0.51625812  0.29129679  1.0
  H  H22  1  0.81066585  0.18002196  0.67436140  1.0
  H  H23  1  0.68933379  0.32563703  0.81998375  1.0
  H  H24  1  0.18933375  0.81998592  0.32563747  1.0
  H  H25  1  0.31066839  0.67436470  0.18001732  1.0
  H  H26  1  0.92268670  0.12973442  0.65917449  1.0
  H  H27  1  0.57731085  0.34082557  0.87026777  1.0
  H  H28  1  0.07731342  0.87027100  0.34082629  1.0
  H  H29  1  0.42268779  0.65917801  0.12973019  1.0
  H  H30  1  0.81583836  0.34816447  0.55730986  1.0
  H  H31  1  0.68416791  0.44268989  0.65183696  1.0
  H  H32  1  0.18416555  0.65184096  0.44269048  1.0
  H  H33  1  0.31583426  0.55731492  0.34816184  1.0
  H  H34  1  0.84293479  0.39230039  0.61926683  1.0
  H  H35  1  0.65707183  0.38073600  0.60769715  1.0
  H  H36  1  0.15706774  0.60770565  0.38073196  1.0
  H  H37  1  0.34293273  0.61926942  0.39230023  1.0
  H  H38  1  0.91646290  0.19423487  0.88127554  1.0
  H  H39  1  0.58353701  0.11873560  0.80575674  1.0
  H  H40  1  0.08353199  0.80576256  0.11872797  1.0
  H  H41  1  0.41646412  0.88127414  0.19423656  1.0
  H  H42  1  0.95826888  0.20025495  0.00110918  1.0
  H  H43  1  0.54172273  0.99890975  0.79973968  1.0
  H  H44  1  0.04172529  0.79973693  0.99889885  1.0
  H  H45  1  0.45826682  0.00110368  0.20026087  1.0
  H  H46  1  0.04608241  0.42484387  0.85161750  1.0
  H  H47  1  0.45391206  0.14839968  0.57514468  1.0
  H  H48  1  0.95392326  0.57514430  0.14839503  1.0
  H  H49  1  0.54607510  0.85161314  0.42485505  1.0
  H  H50  1  0.00358671  0.42036147  0.73058670  1.0
  H  H51  1  0.49641612  0.26942507  0.57962731  1.0
  H  H52  1  0.99641901  0.57963532  0.26942311  1.0
  H  H53  1  0.50358528  0.73058345  0.42036527  1.0
  H  H54  1  0.17619950  0.09305395  0.63757079  1.0
  H  H55  1  0.32379963  0.36242361  0.90694141  1.0
  H  H56  1  0.82378950  0.90694473  0.36242377  1.0
  H  H57  1  0.67620872  0.63757320  0.09305209  1.0
  H  H58  1  0.32585274  0.08031084  0.55416226  1.0
  H  H59  1  0.17414457  0.44582709  0.91968154  1.0
  H  H60  1  0.67413666  0.91968290  0.44583740  1.0
  H  H61  1  0.82586185  0.55416111  0.08031294  1.0
  H  H62  1  0.24771590  0.30857113  0.36904142  1.0
  H  H63  1  0.25228278  0.63095300  0.69142721  1.0
  H  H64  1  0.75228225  0.69142323  0.63095123  1.0
  H  H65  1  0.74771284  0.36904688  0.30857517  1.0
  H  H66  1  0.09939885  0.32433099  0.45364609  1.0
  H  H67  1  0.40060239  0.54635317  0.67566668  1.0
  H  H68  1  0.90059725  0.67566707  0.54634459  1.0
  H  H69  1  0.59939824  0.45365287  0.32433262  1.0
  H  H70  1  0.78273532  0.08324789  0.65281646  1.0
  H  H71  1  0.71725839  0.34718037  0.91676052  1.0
  H  H72  1  0.21726584  0.91675569  0.34718307  1.0
  H  H73  1  0.28273562  0.65281829  0.08324053  1.0
  H  H74  1  0.68346030  0.03937755  0.60467481  1.0
  H  H75  1  0.81653895  0.39531904  0.96062851  1.0
  H  H76  1  0.31654114  0.96062172  0.39532851  1.0
  H  H77  1  0.18346284  0.60467284  0.03937248  1.0
  H  H78  1  0.75619175  0.19998265  0.35921210  1.0
  H  H79  1  0.74381598  0.64077486  0.80002087  1.0
  H  H80  1  0.24382129  0.80000985  0.64078402  1.0
  H  H81  1  0.25619332  0.35922008  0.19998423  1.0
  H  H82  1  0.85476029  0.24703522  0.40612910  1.0
  H  H83  1  0.64524049  0.59386653  0.75296757  1.0
  H  H84  1  0.14524690  0.75296097  0.59386884  1.0
  H  H85  1  0.35476355  0.40613828  0.24703352  1.0
  H  H86  1  0.21223798  0.23595308  0.24549834  1.0
  H  H87  1  0.28776342  0.75451473  0.76404243  1.0
  H  H88  1  0.78776676  0.76403940  0.75451448  1.0
  H  H89  1  0.71223773  0.24549193  0.23595370  1.0
  H  H90  1  0.19815026  0.10571914  0.39272612  1.0
  H  H91  1  0.30184592  0.60727874  0.89426538  1.0
  H  H92  1  0.80184253  0.89427027  0.60728543  1.0
  H  H93  1  0.69815331  0.39272240  0.10572332  1.0
  H  H94  1  0.96896162  0.17593026  0.29978009  1.0
  H  H95  1  0.53104010  0.70021167  0.82406999  1.0
  H  H96  1  0.03104363  0.82406349  0.70020926  1.0
  H  H97  1  0.46895740  0.29978821  0.17593525  1.0
  H  H98  1  0.09492534  0.07330106  0.51994051  1.0
  H  H99  1  0.40506966  0.48005942  0.92669637  1.0
  H  H100  1  0.90506564  0.92669698  0.48006157  1.0
  H  H101  1  0.59492689  0.51993924  0.07330289  1.0
  H  H102  1  0.02814663  0.96725428  0.63891064  1.0
  H  H103  1  0.47184641  0.36109286  0.03274435  1.0
  H  H104  1  0.97184336  0.03274253  0.36109105  1.0
  H  H105  1  0.52814834  0.63890826  0.96725613  1.0
  C  C106  1  0.89869915  0.26154293  0.64090661  1.0
  C  C107  1  0.60130166  0.35909509  0.73845721  1.0
  C  C108  1  0.10130121  0.73846434  0.35909285  1.0
  C  C109  1  0.39869938  0.64090910  0.26153989  1.0
  C  C110  1  0.91010123  0.24254536  0.72856885  1.0
  C  C111  1  0.58990052  0.27143699  0.75745022  1.0
  C  C112  1  0.08989827  0.75745698  0.27143548  1.0
  C  C113  1  0.41010446  0.72856659  0.24254495  1.0
  C  C114  1  0.98191721  0.28011605  0.57860230  1.0
  C  C115  1  0.51808669  0.42140004  0.71988251  1.0
  C  C116  1  0.01808454  0.71989060  0.42139814  1.0
  C  C117  1  0.48191675  0.57860477  0.28011372  1.0
  C  C118  1  0.87549926  0.18644044  0.63667933  1.0
  C  C119  1  0.62449935  0.36331902  0.81356073  1.0
  C  C120  1  0.12450051  0.81356376  0.36331810  1.0
  C  C121  1  0.37550156  0.63668579  0.18643616  1.0
  C  C122  1  0.82587268  0.33715880  0.61923457  1.0
  C  C123  1  0.67413203  0.38076727  0.66284176  1.0
  C  C124  1  0.17413034  0.66284785  0.38076442  1.0
  C  C125  1  0.32587099  0.61923939  0.33715611  1.0
  C  C126  1  0.95751425  0.30769906  0.79853627  1.0
  C  C127  1  0.54248808  0.20147433  0.69229197  1.0
  C  C128  1  0.04248631  0.69229835  0.20146965  1.0
  C  C129  1  0.45751445  0.79853480  0.30770009  1.0
  C  C130  1  0.94477591  0.24482834  0.87425414  1.0
  C  C131  1  0.55522345  0.12575586  0.75516502  1.0
  C  C132  1  0.05522226  0.75516847  0.12575041  1.0
  C  C133  1  0.44477528  0.87425326  0.24482971  1.0
  C  C134  1  0.96840411  0.24793418  0.94140413  1.0
  C  C135  1  0.53158944  0.05861099  0.75206012  1.0
  C  C136  1  0.03159245  0.75205831  0.05860359  1.0
  C  C137  1  0.46840241  0.94140059  0.24793996  1.0
  C  C138  1  0.00496419  0.31238868  0.93378739  1.0
  C  C139  1  0.49502913  0.06622883  0.68760533  1.0
  C  C140  1  0.99503252  0.68760011  0.06622392  1.0
  C  C141  1  0.50496056  0.93378090  0.31239936  1.0
  C  C142  1  0.01796899  0.37459742  0.85720971  1.0
  C  C143  1  0.48202784  0.14280532  0.62539409  1.0
  C  C144  1  0.98203375  0.62539259  0.14280288  1.0
  C  C145  1  0.51796504  0.85720442  0.37460585  1.0
  C  C146  1  0.99428075  0.37249825  0.79026037  1.0
  C  C147  1  0.50572023  0.20975261  0.62749131  1.0
  C  C148  1  0.00572221  0.62749669  0.20974975  1.0
  C  C149  1  0.49427901  0.79025714  0.37250194  1.0
  C  C150  1  0.02746988  0.31706644  0.00546170  1.0
  C  C151  1  0.47252416  0.99456061  0.68292641  1.0
  C  C152  1  0.97252760  0.68291004  0.99454848  1.0
  C  C153  1  0.52746836  0.00545033  0.31708767  1.0
  C  C154  1  0.12865393  0.20858430  0.55072835  1.0
  C  C155  1  0.37134555  0.44926934  0.79141370  1.0
  C  C156  1  0.87134075  0.79141437  0.44926694  1.0
  C  C157  1  0.62865655  0.55072993  0.20858497  1.0
  C  C158  1  0.19277889  0.13980396  0.57849948  1.0
  C  C159  1  0.30721889  0.42149460  0.86019256  1.0
  C  C160  1  0.80721303  0.86019286  0.42149556  1.0
  C  C161  1  0.69278352  0.57850036  0.13980488  1.0
  C  C162  1  0.27603327  0.13294559  0.53164535  1.0
  C  C163  1  0.22396476  0.46834539  0.86704976  1.0
  C  C164  1  0.72395941  0.86705061  0.46835196  1.0
  C  C165  1  0.77603745  0.53164465  0.13294680  1.0
  C  C166  1  0.29628245  0.19354610  0.45534749  1.0
  C  C167  1  0.20371806  0.54464191  0.80645160  1.0
  C  C168  1  0.70371275  0.80645011  0.54464915  1.0
  C  C169  1  0.79628223  0.45534813  0.19354938  1.0
  C  C170  1  0.23170321  0.26178419  0.42819780  1.0
  C  C171  1  0.26829618  0.57179566  0.73821357  1.0
  C  C172  1  0.76829277  0.73821140  0.57179664  1.0
  C  C173  1  0.73170291  0.42819992  0.26178786  1.0
  C  C174  1  0.14826083  0.27040094  0.47560319  1.0
  C  C175  1  0.35173954  0.52439350  0.72959662  1.0
  C  C176  1  0.85173413  0.72959650  0.52438971  1.0
  C  C177  1  0.64826242  0.47560639  0.27040242  1.0
  C  C178  1  0.38437366  0.18548405  0.40362967  1.0
  C  C179  1  0.11562863  0.59635748  0.81451791  1.0
  C  C180  1  0.61562189  0.81452507  0.59636868  1.0
  C  C181  1  0.88436951  0.40363379  0.18548205  1.0
  C  C182  1  0.82389168  0.16918372  0.53233664  1.0
  C  C183  1  0.67610666  0.46766026  0.83082211  1.0
  C  C184  1  0.17611240  0.83081802  0.46766281  1.0
  C  C185  1  0.32389300  0.53234148  0.16917796  1.0
  C  C186  1  0.77725946  0.10945656  0.58846035  1.0
  C  C187  1  0.72273712  0.41153548  0.89055050  1.0
  C  C188  1  0.22274373  0.89054641  0.41153775  1.0
  C  C189  1  0.27726168  0.58846440  0.10944993  1.0
  C  C190  1  0.72220103  0.08391816  0.56137245  1.0
  C  C191  1  0.77779751  0.43862057  0.91608840  1.0
  C  C192  1  0.27780080  0.91608234  0.43862584  1.0
  C  C193  1  0.22220474  0.56137501  0.08391331  1.0
  C  C194  1  0.71370826  0.11632764  0.47906269  1.0
  C  C195  1  0.78629318  0.52092629  0.88367552  1.0
  C  C196  1  0.28629778  0.88367102  0.52093239  1.0
  C  C197  1  0.21370997  0.47906806  0.11632530  1.0
  C  C198  1  0.76286599  0.17452302  0.42325577  1.0
  C  C199  1  0.73713799  0.57673716  0.82548048  1.0
  C  C200  1  0.23714399  0.82547194  0.57674246  1.0
  C  C201  1  0.26286714  0.42325964  0.17452279  1.0
  C  C202  1  0.81765038  0.20085894  0.44908892  1.0
  C  C203  1  0.68235107  0.55090673  0.79914534  1.0
  C  C204  1  0.18235680  0.79913725  0.55091126  1.0
  C  C205  1  0.31765263  0.44909376  0.20085636  1.0
  C  C206  1  0.65050164  0.09309539  0.45136380  1.0
  C  C207  1  0.84950250  0.54861489  0.90691338  1.0
  C  C208  1  0.34951009  0.90691805  0.54862364  1.0
  C  C209  1  0.15049943  0.45137638  0.09308614  1.0
  C  C210  1  0.16002405  0.20330127  0.27839505  1.0
  C  C211  1  0.33997607  0.72161352  0.79669218  1.0
  C  C212  1  0.83997898  0.79668753  0.72161459  1.0
  C  C213  1  0.66002711  0.27839252  0.20330310  1.0
  C  C214  1  0.15395689  0.13940774  0.35113257  1.0
  C  C215  1  0.34604052  0.64887018  0.86058350  1.0
  C  C216  1  0.84603995  0.86058352  0.64887331  1.0
  C  C217  1  0.65395905  0.35113218  0.13941022  1.0
  C  C218  1  0.03435810  0.17347211  0.30249855  1.0
  C  C219  1  0.46564261  0.69750056  0.82652472  1.0
  C  C220  1  0.96564423  0.82651732  0.69750156  1.0
  C  C221  1  0.53435599  0.30250610  0.17347376  1.0
  C  C222  1  0.03727185  0.05911291  0.43361513  1.0
  C  C223  1  0.46272169  0.56638372  0.94088240  1.0
  C  C224  1  0.96272119  0.94088144  0.56638724  1.0
  C  C225  1  0.53727410  0.43361556  0.05911515  1.0
  C  C226  1  0.05428052  0.04042676  0.51124238  1.0
  C  C227  1  0.44571398  0.48875765  0.95957050  1.0
  C  C228  1  0.94571122  0.95957066  0.48876029  1.0
  C  C229  1  0.55428233  0.51123916  0.04042952  1.0
  C  C230  1  0.01672396  0.98116465  0.57776927  1.0
  C  C231  1  0.48326934  0.42223262  0.01883235  1.0
  C  C232  1  0.98326679  0.01883155  0.42223245  1.0
  C  C233  1  0.51672595  0.57776605  0.98116613  1.0
  N  N234  1  0.08508663  0.22402208  0.24897406  1.0
  N  N235  1  0.41491689  0.75103009  0.77597649  1.0
  N  N236  1  0.91492175  0.77596549  0.75103128  1.0
  N  N237  1  0.58508714  0.24897780  0.22402009  1.0
  N  N238  1  0.07381190  0.12057332  0.36560903  1.0
  N  N239  1  0.42618684  0.63438899  0.87941991  1.0
  N  N240  1  0.92618610  0.87941857  0.63439185  1.0
  N  N241  1  0.57381144  0.36561336  0.12057693  1.0
  O  O242  1  0.75000203  0.32025470  0.67974683  1.0
  O  O243  1  0.25000112  0.67975134  0.32025236  1.0
  O  O244  1  0.93587653  0.31178727  0.72901084  1.0
  O  O245  1  0.56413067  0.27099683  0.68820320  1.0
  O  O246  1  0.06412475  0.68821261  0.27099563  1.0
  O  O247  1  0.43587974  0.72900799  0.31178840  1.0
  O  O248  1  0.04886408  0.20941172  0.60111942  1.0
  O  O249  1  0.45113859  0.39888091  0.79058799  1.0
  O  O250  1  0.95113430  0.79059309  0.39887815  1.0
  O  O251  1  0.54886651  0.60112205  0.20940850  1.0
  O  O252  1  0.87692846  0.20153900  0.55209963  1.0
  O  O253  1  0.62307018  0.44789850  0.79846344  1.0
  O  O254  1  0.12307107  0.79846335  0.44790024  1.0
  O  O255  1  0.37693099  0.55210508  0.20153553  1.0
  O  O256  1  0.01393195  0.26250545  0.07630797  1.0
  O  O257  1  0.48606367  0.92371649  0.73748873  1.0
  O  O258  1  0.98607011  0.73747903  0.92370356  1.0
  O  O259  1  0.51392795  0.07629325  0.26251211  1.0
  O  O260  1  0.06041132  0.37772996  0.99642739  1.0
  O  O261  1  0.43958149  0.00358947  0.62226416  1.0
  O  O262  1  0.93959479  0.62224468  0.00358009  1.0
  O  O263  1  0.56040369  0.99642333  0.37774892  1.0
  O  O264  1  0.44651068  0.12951903  0.43579233  1.0
  O  O265  1  0.05349824  0.56418448  0.87048749  1.0
  O  O266  1  0.55349495  0.87050486  0.56420224  1.0
  O  O267  1  0.94650173  0.43580126  0.12951129  1.0
  O  O268  1  0.40053650  0.23132872  0.32964402  1.0
  O  O269  1  0.09946601  0.67034456  0.76867602  1.0
  O  O270  1  0.59945858  0.76867671  0.67035530  1.0
  O  O271  1  0.90053942  0.32964793  0.23132768  1.0
  O  O272  1  0.60782788  0.03958510  0.50355365  1.0
  O  O273  1  0.89217599  0.49643484  0.96042727  1.0
  O  O274  1  0.39217952  0.96043632  0.49644585  1.0
  O  O275  1  0.10782285  0.50355028  0.03957204  1.0
  O  O276  1  0.64298598  0.13040009  0.37623742  1.0
  O  O277  1  0.85701499  0.62374021  0.86959606  1.0
  O  O278  1  0.35702226  0.86959735  0.62375141  1.0
  O  O279  1  0.14298872  0.37624859  0.13040615  1.0
