# generated using pymatgen
data_ZnH10C20I2NO5
_symmetry_space_group_name_H-M   'P 1'
_cell_length_a   13.65443726
_cell_length_b   14.71751015
_cell_length_c   16.07688165
_cell_angle_alpha   90.06057841
_cell_angle_beta   91.17271439
_cell_angle_gamma   113.72643742
_symmetry_Int_Tables_number   1
_chemical_formula_structural   ZnH10C20I2NO5
_chemical_formula_sum   'Zn2 H20 C40 I4 N2 O10'
_cell_volume   2956.95052793
_cell_formula_units_Z   2
loop_
 _symmetry_equiv_pos_site_id
 _symmetry_equiv_pos_as_xyz
  1  'x, y, z'
loop_
 _atom_site_type_symbol
 _atom_site_label
 _atom_site_symmetry_multiplicity
 _atom_site_fract_x
 _atom_site_fract_y
 _atom_site_fract_z
 _atom_site_occupancy
  Zn  Zn0  1  0.48299682  0.40057870  0.49231252  1.0
  Zn  Zn1  1  0.51175227  0.59838058  0.49112284  1.0
  H  H2  1  0.52719300  0.35442260  0.91129293  1.0
  H  H3  1  0.50973713  0.64138373  0.91863609  1.0
  H  H4  1  0.52484438  0.64144794  0.07346393  1.0
  H  H5  1  0.61528875  0.96739713  0.39968596  1.0
  H  H6  1  0.60293703  0.13229869  0.40282460  1.0
  H  H7  1  0.36424334  0.02613203  0.59288171  1.0
  H  H8  1  0.37621957  0.86110063  0.58933935  1.0
  H  H9  1  0.05994892  0.77988999  0.46334543  1.0
  H  H10  1  0.87870388  0.34965548  0.53774546  1.0
  H  H11  1  0.95906431  0.23037971  0.56489113  1.0
  H  H12  1  0.79237014  0.76495949  0.40637125  1.0
  H  H13  1  0.92927110  0.85258731  0.41429622  1.0
  H  H14  1  0.88112347  0.93968027  0.53175343  1.0
  H  H15  1  0.80294024  0.93460979  0.44056404  1.0
  H  H16  1  0.74589843  0.85061979  0.52396563  1.0
  H  H17  1  0.66599228  0.42541786  0.15232934  1.0
  H  H18  1  0.70122904  0.35198396  0.07973271  1.0
  H  H19  1  0.57446869  0.19730253  0.15294678  1.0
  H  H20  1  0.68110337  0.27645961  0.21912317  1.0
  H  H21  1  0.55051006  0.27566861  0.22803847  1.0
  C  C22  1  0.52016840  0.49702994  0.33217336  1.0
  C  C23  1  0.01305542  0.45271300  0.47039979  1.0
  C  C24  1  0.12061214  0.47520880  0.44740783  1.0
  C  C25  1  0.96770994  0.52593864  0.46013871  1.0
  C  C26  1  0.04002964  0.62697200  0.44978198  1.0
  C  C27  1  0.14138198  0.64312254  0.41285732  1.0
  C  C28  1  0.17373144  0.56679015  0.40169909  1.0
  C  C29  1  0.85745200  0.50667062  0.46424356  1.0
  C  C30  1  0.89980668  0.68033531  0.48865767  1.0
  C  C31  1  0.17158101  0.41071992  0.47171151  1.0
  C  C32  1  0.52725981  0.41800240  0.94610001  1.0
  C  C33  1  0.29216549  0.44616333  0.47203403  1.0
  C  C34  1  0.51592282  0.49742147  0.90434026  1.0
  C  C35  1  0.51717667  0.57938757  0.95091824  1.0
  C  C36  1  0.52636227  0.57966790  0.03682984  1.0
  C  C37  1  0.53558574  0.49958061  0.07964195  1.0
  C  C38  1  0.53854794  0.41889680  0.03248384  1.0
  C  C39  1  0.50436479  0.49603950  0.81651616  1.0
  C  C40  1  0.53467898  0.49849093  0.16739932  1.0
  C  C41  1  0.52989581  0.49843126  0.24306441  1.0
  C  C42  1  0.49478412  0.49694927  0.74100837  1.0
  C  C43  1  0.55381334  0.07259609  0.44309926  1.0
  C  C44  1  0.48839656  0.49825562  0.65121426  1.0
  C  C45  1  0.48260442  0.08787239  0.49785735  1.0
  C  C46  1  0.41873154  0.01241360  0.55109244  1.0
  C  C47  1  0.42561755  0.92091395  0.54930263  1.0
  C  C48  1  0.49687039  0.90575215  0.49459402  1.0
  C  C49  1  0.56095638  0.98125648  0.44152705  1.0
  C  C50  1  0.47480478  0.18121562  0.49873087  1.0
  C  C51  1  0.50536284  0.81278235  0.49206468  1.0
  C  C52  1  0.70422649  0.55798508  0.49646855  1.0
  C  C53  1  0.00454455  0.70232021  0.46677418  1.0
  C  C54  1  0.82101304  0.58060910  0.48328999  1.0
  C  C55  1  0.10980652  0.32071173  0.50954956  1.0
  C  C56  1  0.00331366  0.29814580  0.53107219  1.0
  C  C57  1  0.95769108  0.36443586  0.51421080  1.0
  C  C58  1  0.85485203  0.81517138  0.44893985  1.0
  C  C59  1  0.81912053  0.88945939  0.48905508  1.0
  C  C60  1  0.63796109  0.35265736  0.12107870  1.0
  C  C61  1  0.60856096  0.27021022  0.18413007  1.0
  I  I62  1  0.22788652  0.78452193  0.36193402  1.0
  I  I63  1  0.74912722  0.36982119  0.40976635  1.0
  I  I64  1  0.16617476  0.21303059  0.54910952  1.0
  I  I65  1  0.27887116  0.56977757  0.30768925  1.0
  N  N66  1  0.51546815  0.73827798  0.48929474  1.0
  N  N67  1  0.46835474  0.25742110  0.49849319  1.0
  O  O68  1  0.52336072  0.42191173  0.36972140  1.0
  O  O69  1  0.50840860  0.57080013  0.36488059  1.0
  O  O70  1  0.33100254  0.38382625  0.45341941  1.0
  O  O71  1  0.34540095  0.53520651  0.49658192  1.0
  O  O72  1  0.45254838  0.41408839  0.61411159  1.0
  O  O73  1  0.51999984  0.58326722  0.61733564  1.0
  O  O74  1  0.64629859  0.47213692  0.52332808  1.0
  O  O75  1  0.67172970  0.62566936  0.47958975  1.0
  O  O76  1  0.87377990  0.75642159  0.51475404  1.0
  O  O77  1  0.54403849  0.33723925  0.06923097  1.0
