# generated using pymatgen
data_AlC24(O2F5)3
_symmetry_space_group_name_H-M   'P 1'
_cell_length_a   3.95848927
_cell_length_b   29.19603384
_cell_length_c   29.19574483
_cell_angle_alpha   120.00024094
_cell_angle_beta   90.00012798
_cell_angle_gamma   89.99954502
_symmetry_Int_Tables_number   1
_chemical_formula_structural   AlC24(O2F5)3
_chemical_formula_sum   'Al2 C48 O12 F30'
_cell_volume   2922.14974148
_cell_formula_units_Z   2
loop_
 _symmetry_equiv_pos_site_id
 _symmetry_equiv_pos_as_xyz
  1  'x, y, z'
loop_
 _atom_site_type_symbol
 _atom_site_label
 _atom_site_symmetry_multiplicity
 _atom_site_fract_x
 _atom_site_fract_y
 _atom_site_fract_z
 _atom_site_occupancy
  Al  Al0  1  0.00229176  0.00000053  0.50000055  1.0
  Al  Al1  1  0.00231061  0.33333455  0.16666709  1.0
  C  C2  1  0.50123909  0.04513739  0.58076437  1.0
  C  C3  1  0.50123413  0.91923795  0.46437550  1.0
  C  C4  1  0.50124837  0.03562848  0.45486585  1.0
  C  C5  1  0.50122620  0.41410323  0.20229636  1.0
  C  C6  1  0.50127764  0.29770241  0.21180361  1.0
  C  C7  1  0.50125661  0.28819666  0.08589776  1.0
  C  C8  1  0.49864547  0.47312487  0.22957252  1.0
  C  C9  1  0.50548606  0.50375579  0.28454389  1.0
  C  C10  1  0.50182169  0.55886121  0.31104703  1.0
  C  C11  1  0.49976427  0.58819639  0.28408539  1.0
  C  C12  1  0.49710713  0.55568210  0.22771267  1.0
  C  C13  1  0.49225311  0.50055573  0.20196458  1.0
  C  C14  1  0.50011647  0.64622729  0.30764550  1.0
  C  C15  1  0.50011069  0.68712060  0.35904650  1.0
  C  C16  1  0.49710258  0.77765631  0.43896534  1.0
  C  C17  1  0.49975555  0.74514359  0.38260505  1.0
  C  C18  1  0.50182596  0.77447285  0.35563360  1.0
  C  C19  1  0.50549520  0.82958261  0.38213822  1.0
  C  C20  1  0.49864117  0.86021749  0.43710301  1.0
  C  C21  1  0.49224835  0.83278189  0.46470858  1.0
  C  C22  1  0.49865650  0.27042978  0.24355324  1.0
  C  C23  1  0.50549273  0.21545575  0.21920713  1.0
  C  C24  1  0.50182063  0.18895354  0.24781509  1.0
  C  C25  1  0.49977158  0.21591384  0.30410776  1.0
  C  C26  1  0.49711006  0.27228799  0.32796876  1.0
  C  C27  1  0.49226125  0.29803402  0.29858641  1.0
  C  C28  1  0.50012624  0.19235732  0.33858203  1.0
  C  C29  1  0.50012005  0.14095228  0.32807431  1.0
  C  C30  1  0.49712131  0.06103705  0.33869119  1.0
  C  C31  1  0.49976736  0.11739776  0.36254136  1.0
  C  C32  1  0.50183100  0.14436953  0.41883908  1.0
  C  C33  1  0.50549502  0.11786571  0.44744932  1.0
  C  C34  1  0.49863267  0.06289954  0.42311543  1.0
  C  C35  1  0.49225176  0.03529578  0.36807831  1.0
  C  C36  1  0.49867016  0.25645081  0.02687903  1.0
  C  C37  1  0.50550271  0.28079070  0.99624363  1.0
  C  C38  1  0.50183751  0.25218988  0.94114263  1.0
  C  C39  1  0.49977244  0.19589320  0.91180552  1.0
  C  C40  1  0.49711078  0.17203611  0.94432376  1.0
  C  C41  1  0.49226766  0.20141211  0.99944415  1.0
  C  C42  1  0.50012154  0.16142237  0.85377463  1.0
  C  C43  1  0.50011835  0.17192817  0.81288044  1.0
  C  C44  1  0.49710914  0.16131008  0.72234283  1.0
  C  C45  1  0.49976012  0.13746327  0.75485833  1.0
  C  C46  1  0.50183298  0.08116264  0.72552678  1.0
  C  C47  1  0.50550139  0.05255825  0.67042160  1.0
  C  C48  1  0.49863669  0.07688681  0.63978249  1.0
  C  C49  1  0.49224654  0.13192934  0.66722110  1.0
  O  O50  1  0.26597514  0.00278596  0.44649182  1.0
  O  O51  1  0.26597717  0.05350933  0.55629445  1.0
  O  O52  1  0.26598740  0.94370701  0.49721584  1.0
  O  O53  1  0.73906378  0.04786289  0.48815285  1.0
  O  O54  1  0.73907920  0.94029093  0.45213818  1.0
  O  O55  1  0.73907303  0.01184838  0.55971089  1.0
  O  O56  1  0.26599812  0.27982661  0.11036856  1.0
  O  O57  1  0.26598789  0.38963367  0.16945810  1.0
  O  O58  1  0.26599004  0.33054523  0.22017601  1.0
  O  O59  1  0.73910162  0.32149211  0.10695898  1.0
  O  O60  1  0.73909570  0.28546968  0.17851169  1.0
  O  O61  1  0.73909544  0.39304322  0.21453332  1.0
  F  F62  1  0.49341042  0.47382129  0.14870205  1.0
  F  F63  1  0.50097138  0.57547150  0.19478512  1.0
  F  F64  1  0.50451189  0.47997777  0.31395258  1.0
  F  F65  1  0.49871173  0.58137489  0.36399600  1.0
  F  F66  1  0.49872901  0.75195995  0.30268194  1.0
  F  F67  1  0.50450903  0.85335312  0.35272133  1.0
  F  F68  1  0.50095339  0.75787047  0.47189947  1.0
  F  F69  1  0.49340505  0.85952187  0.51797799  1.0
  F  F70  1  0.50000457  0.66063630  0.27030796  1.0
  F  F71  1  0.50002554  0.67270369  0.39637769  1.0
  F  F72  1  0.49342561  0.35129831  0.32511816  1.0
  F  F73  1  0.50097468  0.30521438  0.38068464  1.0
  F  F74  1  0.50451402  0.18604883  0.16602472  1.0
  F  F75  1  0.49870202  0.13600515  0.21737776  1.0
  F  F76  1  0.49874270  0.19732029  0.44927896  1.0
  F  F77  1  0.50451952  0.14728205  0.50063446  1.0
  F  F78  1  0.50097175  0.02810354  0.28597346  1.0
  F  F79  1  0.49341260  0.98202547  0.34154637  1.0
  F  F80  1  0.49999425  0.22969233  0.39032643  1.0
  F  F81  1  0.50003226  0.10362402  0.27632746  1.0
  F  F82  1  0.49343566  0.17488390  0.02618189  1.0
  F  F83  1  0.50097218  0.11931677  0.92452989  1.0
  F  F84  1  0.50451100  0.33397765  0.02002449  1.0
  F  F85  1  0.49871909  0.28262497  0.91862638  1.0
  F  F86  1  0.49873692  0.05072517  0.74804321  1.0
  F  F87  1  0.50452255  0.99937063  0.64664921  1.0
  F  F88  1  0.50095269  0.21403100  0.74213064  1.0
  F  F89  1  0.49339750  0.15845768  0.64047887  1.0
  F  F90  1  0.49999660  0.10967521  0.83936551  1.0
  F  F91  1  0.50004120  0.22367652  0.82729734  1.0
