# generated using pymatgen
data_Al3H24(C22O7)2
_symmetry_space_group_name_H-M   'P 1'
_cell_length_a   12.66725909
_cell_length_b   12.80366348
_cell_length_c   28.66523437
_cell_angle_alpha   89.88143246
_cell_angle_beta   89.89658278
_cell_angle_gamma   60.88967330
_symmetry_Int_Tables_number   1
_chemical_formula_structural   Al3H24(C22O7)2
_chemical_formula_sum   'Al6 H48 C88 O28'
_cell_volume   4061.86933149
_cell_formula_units_Z   2
loop_
 _symmetry_equiv_pos_site_id
 _symmetry_equiv_pos_as_xyz
  1  'x, y, z'
loop_
 _atom_site_type_symbol
 _atom_site_label
 _atom_site_symmetry_multiplicity
 _atom_site_fract_x
 _atom_site_fract_y
 _atom_site_fract_z
 _atom_site_occupancy
  Al  Al0  1  0.58767123  0.59044629  0.50108363  1.0
  Al  Al1  1  0.34163638  0.57648287  0.49938315  1.0
  Al  Al2  1  0.57534209  0.34499567  0.49947293  1.0
  Al  Al3  1  0.08023953  0.07832746  0.00013884  1.0
  Al  Al4  1  0.09003772  0.32476726  0.00053443  1.0
  Al  Al5  1  0.32503524  0.09460038  0.00091027  1.0
  H  H6  1  0.20683651  0.52987923  0.22026661  1.0
  H  H7  1  0.79071947  0.52197317  0.29322021  1.0
  H  H8  1  0.47810599  0.82742249  0.29969662  1.0
  H  H9  1  0.48073090  0.86504355  0.21473909  1.0
  H  H10  1  0.16010522  0.83351007  0.19746286  1.0
  H  H11  1  0.52971026  0.22674005  0.71147598  1.0
  H  H12  1  0.51398445  0.21208315  0.79760439  1.0
  H  H13  1  0.12962000  0.45114457  0.78992634  1.0
  H  H14  1  0.14538116  0.46597793  0.70383273  1.0
  H  H15  1  0.99743219  0.30757811  0.69233506  1.0
  H  H16  1  0.14436382  0.40499253  0.28729991  1.0
  H  H17  1  0.03464943  0.30394707  0.77766321  1.0
  H  H18  1  0.68507442  0.33616448  0.80538077  1.0
  H  H19  1  0.64774174  0.34012323  0.72003256  1.0
  H  H20  1  0.14249976  0.93618703  0.70264175  1.0
  H  H21  1  0.13705482  0.98022080  0.78776230  1.0
  H  H22  1  0.52286186  0.75328081  0.79481774  1.0
  H  H23  1  0.54044128  0.24999767  0.21278739  1.0
  H  H24  1  0.25868286  0.19616544  0.23172656  1.0
  H  H25  1  0.82655248  0.18023237  0.19940975  1.0
  H  H26  1  0.82886138  0.51475539  0.20715936  1.0
  H  H27  1  0.16600076  0.71525534  0.35600600  1.0
  H  H28  1  0.07787800  0.87222456  0.35024805  1.0
  H  H29  1  0.01316471  0.77947630  0.33818843  1.0
  H  H30  1  0.04942190  0.83548872  0.26286809  1.0
  H  H31  1  0.15845589  0.68633473  0.27103777  1.0
  H  H32  1  0.68663241  0.71759081  0.74375915  1.0
  H  H33  1  0.67804245  0.58909145  0.76200339  1.0
  H  H34  1  0.75664605  0.58428346  0.71025050  1.0
  H  H35  1  0.55651140  0.60431234  0.68998590  1.0
  H  H36  1  0.56874235  0.72650938  0.67014318  1.0
  H  H37  1  0.54341888  0.45002043  0.20556204  1.0
  H  H38  1  0.39586725  0.57547798  0.20473324  1.0
  H  H39  1  0.51343830  0.58306052  0.23523930  1.0
  H  H40  1  0.38177918  0.55318106  0.29297428  1.0
  H  H41  1  0.52624115  0.42633230  0.29213126  1.0
  H  H42  1  0.55436098  0.03127848  0.20966458  1.0
  H  H43  1  0.70191390  0.82325253  0.23127086  1.0
  H  H44  1  0.73784911  0.76284779  0.31521483  1.0
  H  H45  1  0.62337643  0.91276768  0.37687453  1.0
  H  H46  1  0.47643489  0.12105122  0.35520146  1.0
  H  H47  1  0.74852183  0.07291649  0.23342936  1.0
  H  H48  1  0.90309803  0.00985582  0.24888042  1.0
  H  H49  1  0.80229449  0.98331088  0.28392727  1.0
  H  H50  1  0.84001615  0.13226649  0.32410823  1.0
  H  H51  1  0.68973461  0.19853124  0.30655542  1.0
  H  H52  1  0.70156694  0.67649056  0.47359661  1.0
  H  H53  1  0.97675974  0.98350105  0.97040882  1.0
  C  C54  1  0.37953480  0.71176916  0.43290172  1.0
  C  C55  1  0.36784794  0.36220380  0.38814639  1.0
  C  C56  1  0.29531063  0.25554518  0.24013882  1.0
  C  C57  1  0.33000414  0.32450745  0.20218721  1.0
  C  C58  1  0.41890526  0.21459672  0.26631942  1.0
  C  C59  1  0.35373136  0.33147123  0.29795011  1.0
  C  C60  1  0.45184650  0.28494171  0.22942822  1.0
  C  C61  1  0.38965826  0.40066472  0.25971182  1.0
  C  C62  1  0.31553108  0.31678500  0.15359611  1.0
  C  C63  1  0.36227791  0.34505610  0.34650787  1.0
  C  C64  1  0.75058558  0.36458152  0.38503908  1.0
  C  C65  1  0.38827451  0.38893644  0.43470555  1.0
  C  C66  1  0.79634386  0.25679184  0.26835923  1.0
  C  C67  1  0.81752587  0.25459936  0.22063906  1.0
  C  C68  1  0.81942744  0.44404152  0.22457839  1.0
  C  C69  1  0.79874041  0.44765439  0.27216452  1.0
  C  C70  1  0.78808916  0.35487728  0.29448881  1.0
  C  C71  1  0.83026477  0.34629708  0.19835901  1.0
  C  C72  1  0.85955846  0.33557820  0.15042596  1.0
  C  C73  1  0.76839787  0.36026890  0.34311110  1.0
  C  C74  1  0.89112332  0.31933206  0.10972701  1.0
  C  C75  1  0.35022174  0.75900472  0.38647291  1.0
  C  C76  1  0.70833597  0.38594205  0.43235201  1.0
  C  C77  1  0.40897869  0.82848128  0.27684471  1.0
  C  C78  1  0.41060067  0.84959911  0.22968399  1.0
  C  C79  1  0.22978629  0.83141216  0.22040692  1.0
  C  C80  1  0.22751279  0.80717707  0.26788479  1.0
  C  C81  1  0.31888602  0.80679905  0.29668311  1.0
  C  C82  1  0.31973207  0.85199639  0.20069230  1.0
  C  C83  1  0.31827339  0.87727786  0.15263488  1.0
  C  C84  1  0.32989946  0.78178008  0.34508185  1.0
  C  C85  1  0.31609394  0.90272272  0.11155094  1.0
  C  C86  1  0.36125019  0.36824045  0.61139127  1.0
  C  C87  1  0.37643371  0.71267533  0.56628856  1.0
  C  C88  1  0.44256103  0.27596825  0.72890219  1.0
  C  C89  1  0.43385635  0.26778955  0.77688760  1.0
  C  C90  1  0.21687782  0.40225080  0.77254289  1.0
  C  C91  1  0.22560391  0.41041722  0.72453099  1.0
  C  C92  1  0.33865156  0.34768198  0.70191165  1.0
  C  C93  1  0.32085263  0.33083391  0.79953561  1.0
  C  C94  1  0.31144491  0.31996379  0.84836814  1.0
  C  C95  1  0.34925408  0.35821045  0.65313431  1.0
  C  C96  1  0.30314412  0.30754267  0.89018682  1.0
  C  C97  1  0.76798096  0.34464375  0.61111794  1.0
  C  C98  1  0.38757487  0.39070713  0.56486628  1.0
  C  C99  1  0.92966393  0.31339670  0.71723703  1.0
  C  C100  1  0.95014563  0.31186309  0.76480914  1.0
  C  C101  1  0.75311461  0.32961076  0.78046061  1.0
  C  C102  1  0.73259906  0.33128569  0.73290290  1.0
  C  C103  1  0.82023323  0.32385535  0.70059054  1.0
  C  C104  1  0.86201338  0.32043618  0.79712375  1.0
  C  C105  1  0.88433397  0.31826566  0.84549620  1.0
  C  C106  1  0.79491761  0.33211769  0.65229945  1.0
  C  C107  1  0.90673080  0.31416613  0.88696510  1.0
  C  C108  1  0.34724184  0.76476950  0.61199524  1.0
  C  C109  1  0.71517897  0.37759986  0.56538044  1.0
  C  C110  1  0.22528023  0.89649859  0.72320475  1.0
  C  C111  1  0.22207716  0.92109861  0.77039917  1.0
  C  C112  1  0.44057322  0.79228476  0.77401890  1.0
  C  C113  1  0.44570220  0.76597671  0.72668916  1.0
  C  C114  1  0.33553275  0.81944471  0.70098717  1.0
  C  C115  1  0.33030209  0.86857700  0.79639189  1.0
  C  C116  1  0.32669314  0.89273359  0.84465443  1.0
  C  C117  1  0.33813423  0.79288519  0.65302633  1.0
  C  C118  1  0.31831380  0.91599742  0.88615847  1.0
  C  C119  1  0.94991988  0.28494605  0.06517353  1.0
  C  C120  1  0.23220113  0.37113255  0.27022931  1.0
  C  C121  1  0.27336564  0.28442709  0.06597507  1.0
  C  C122  1  0.29202356  0.95468383  0.06574816  1.0
  C  C123  1  0.95418673  0.29042363  0.93367793  1.0
  C  C124  1  0.28162422  0.28010931  0.93667847  1.0
  C  C125  1  0.28782399  0.96235674  0.93270095  1.0
  C  C126  1  0.26684885  0.44019772  0.23381273  1.0
  C  C127  1  0.30085306  0.30763944  0.11203367  1.0
  C  C128  1  0.13054742  0.77775931  0.28343171  1.0
  C  C129  1  0.09584801  0.78662978  0.33490221  1.0
  C  C130  1  0.56263053  0.68277488  0.70241052  1.0
  C  C131  1  0.67693759  0.64147081  0.73138811  1.0
  C  C132  1  0.44450554  0.47813282  0.27086024  1.0
  C  C133  1  0.47599809  0.52420864  0.22662996  1.0
  C  C134  1  0.50451381  0.09072171  0.28096248  1.0
  C  C135  1  0.56903001  0.00525752  0.24641350  1.0
  C  C136  1  0.65222105  0.88816436  0.25857230  1.0
  C  C137  1  0.67250188  0.85434532  0.30556340  1.0
  C  C138  1  0.60855918  0.93842217  0.34016858  1.0
  C  C139  1  0.52502579  0.05582674  0.32796425  1.0
  C  C140  1  0.78266614  0.15953836  0.29270174  1.0
  C  C141  1  0.81084142  0.05060974  0.26301760  1.0
  O  O142  1  0.69153655  0.48219465  0.45098530  1.0
  O  O143  1  0.30970607  0.48711386  0.54490359  1.0
  O  O144  1  0.49005192  0.31520628  0.54781894  1.0
  O  O145  1  0.69649100  0.29975745  0.54372811  1.0
  O  O146  1  0.50095966  0.50256664  0.49970530  1.0
  O  O147  1  0.19499491  0.97247422  0.04666583  1.0
  O  O148  1  0.98419092  0.17914552  0.05212242  1.0
  O  O149  1  0.96637958  0.36415911  0.04327637  1.0
  O  O150  1  0.16946013  0.35831192  0.04932545  1.0
  O  O151  1  0.35178060  0.18892823  0.04572300  1.0
  O  O152  1  0.36919143  0.98339970  0.04888973  1.0
  O  O153  1  0.48135205  0.68836635  0.44910886  1.0
  O  O154  1  0.18251933  0.99024457  0.94646891  1.0
  O  O155  1  0.97002809  0.19487239  0.95259249  1.0
  O  O156  1  0.98141534  0.36701168  0.95116801  1.0
  O  O157  1  0.18460837  0.35648457  0.95691375  1.0
  O  O158  1  0.35833581  0.17820494  0.95328312  1.0
  O  O159  1  0.36753724  0.97597314  0.95597715  1.0
  O  O160  1  0.16582332  0.16731056  0.00023076  1.0
  O  O161  1  0.29960295  0.69277951  0.45366037  1.0
  O  O162  1  0.31165074  0.49009940  0.45186886  1.0
  O  O163  1  0.48505624  0.31170845  0.45515341  1.0
  O  O164  1  0.68645675  0.30667162  0.45110199  1.0
  O  O165  1  0.68728744  0.48111135  0.55133244  1.0
  O  O166  1  0.47857108  0.68893426  0.55013900  1.0
  O  O167  1  0.29833828  0.69022845  0.54630662  1.0
  O  O168  1  0.66676982  0.67071935  0.50287386  1.0
  O  O169  1  0.00263317  0.99663471  0.00048644  1.0
