# generated using pymatgen
data_Zn4H39C54N9(O8F)2
_symmetry_space_group_name_H-M   'P 1'
_cell_length_a   9.73911396
_cell_length_b   11.09561930
_cell_length_c   22.27627372
_cell_angle_alpha   89.95298249
_cell_angle_beta   89.16031198
_cell_angle_gamma   89.89747259
_symmetry_Int_Tables_number   1
_chemical_formula_structural   Zn4H39C54N9(O8F)2
_chemical_formula_sum   'Zn4 H39 C54 N9 O16 F2'
_cell_volume   2406.94445409
_cell_formula_units_Z   1
loop_
 _symmetry_equiv_pos_site_id
 _symmetry_equiv_pos_as_xyz
  1  'x, y, z'
loop_
 _atom_site_type_symbol
 _atom_site_label
 _atom_site_symmetry_multiplicity
 _atom_site_fract_x
 _atom_site_fract_y
 _atom_site_fract_z
 _atom_site_occupancy
  Zn  Zn0  1  0.64423627  0.50517961  0.49658541  1.0
  Zn  Zn1  1  0.35920098  0.50121570  0.50113427  1.0
  Zn  Zn2  1  0.35273605  0.51011761  0.99425415  1.0
  Zn  Zn3  1  0.63849110  0.50507008  0.99642405  1.0
  H  H4  1  0.14215909  0.37015447  0.43157856  1.0
  H  H5  1  0.11162769  0.60935979  0.63206815  1.0
  H  H6  1  0.12874416  0.73247590  0.58050740  1.0
  H  H7  1  0.86961143  0.74118153  0.57149759  1.0
  H  H8  1  0.85281955  0.61887050  0.62319263  1.0
  H  H9  1  0.71648557  0.88087501  0.49918375  1.0
  H  H10  1  0.17641506  0.90147584  0.45565902  1.0
  H  H11  1  0.17181823  0.90509974  0.53576827  1.0
  H  H12  1  0.18619138  0.13102095  0.53367948  1.0
  H  H13  1  0.19435528  0.12790243  0.45360299  1.0
  H  H14  1  0.67877228  0.33089411  0.85903759  1.0
  H  H15  1  0.68852144  0.33410064  0.63473227  1.0
  H  H16  1  0.34581888  0.62715786  0.69042788  1.0
  H  H17  1  0.34154894  0.62703067  0.80266899  1.0
  H  H18  1  0.27584486  0.49664443  0.19088632  1.0
  H  H19  1  0.82214493  0.42183264  0.18964390  1.0
  H  H20  1  0.81302569  0.58246698  0.19114466  1.0
  H  H21  1  0.80823337  0.57644725  0.30451800  1.0
  H  H22  1  0.81652859  0.41609645  0.30171051  1.0
  H  H23  1  0.85735630  0.38409699  0.06788115  1.0
  H  H24  1  0.87768564  0.60613932  0.86193963  1.0
  H  H25  1  0.86560015  0.73261666  0.91144346  1.0
  H  H26  1  0.12546402  0.73945363  0.91690828  1.0
  H  H27  1  0.13717475  0.61218158  0.86791678  1.0
  H  H28  1  0.28323630  0.88646891  0.99496069  1.0
  H  H29  1  0.82440597  0.90359681  0.03649464  1.0
  H  H30  1  0.82741059  0.90607340  0.95636325  1.0
  H  H31  1  0.81343378  0.13175958  0.95724531  1.0
  H  H32  1  0.80901697  0.13062945  0.03734218  1.0
  H  H33  1  0.76989657  0.37811289  0.40607559  1.0
  H  H34  1  0.92652281  0.30586517  0.38923388  1.0
  H  H35  1  0.76084056  0.20278971  0.51127676  1.0
  H  H36  1  0.83876116  0.06164188  0.51630821  1.0
  H  H37  1  0.24273762  0.51720997  0.35120278  1.0
  H  H38  1  0.15973238  0.52170673  0.28277786  1.0
  H  H39  1  0.23086149  0.39322686  0.09026218  1.0
  H  H40  1  0.07475750  0.32212188  0.10996320  1.0
  H  H41  1  0.24000292  0.20942306  0.98657555  1.0
  H  H42  1  0.16034317  0.06876460  0.98210924  1.0
  C  C43  1  0.49463582  0.73745098  0.49654854  1.0
  C  C44  1  0.50661164  0.50285508  0.61634198  1.0
  C  C45  1  0.50808554  0.26618847  0.49969602  1.0
  C  C46  1  0.49495412  0.49277128  0.37880327  1.0
  C  C47  1  0.50358807  0.74172828  0.99658863  1.0
  C  C48  1  0.49472964  0.50414303  0.87750223  1.0
  C  C49  1  0.49350839  0.27005426  0.99478440  1.0
  C  C50  1  0.49732481  0.49761101  0.11499453  1.0
  C  C51  1  0.07006332  0.56027425  0.53815336  1.0
  C  C52  1  0.93482582  0.42961588  0.45691846  1.0
  C  C53  1  0.92868053  0.56432999  0.53355053  1.0
  C  C54  1  0.08082242  0.42664103  0.46176230  1.0
  C  C55  1  0.07442992  0.64787888  0.58991472  1.0
  C  C56  1  0.91171612  0.65325752  0.58450933  1.0
  C  C57  1  0.49698587  0.87208135  0.49757867  1.0
  C  C58  1  0.50929586  0.13297547  0.49872244  1.0
  C  C59  1  0.37821648  0.94318590  0.49677791  1.0
  C  C60  1  0.63183749  0.06111033  0.50071550  1.0
  C  C61  1  0.38641671  0.06825403  0.49654783  1.0
  C  C62  1  0.62197153  0.93389502  0.49926733  1.0
  C  C63  1  0.22250753  0.94249534  0.49546985  1.0
  C  C64  1  0.23203921  0.08471221  0.49463775  1.0
  C  C65  1  0.50080693  0.49587346  0.81035451  1.0
  C  C66  1  0.59378633  0.41672037  0.77942147  1.0
  C  C67  1  0.41265943  0.56859389  0.77811913  1.0
  C  C68  1  0.67890934  0.33350880  0.81021631  1.0
  C  C69  1  0.76172825  0.25577261  0.77849306  1.0
  C  C70  1  0.50684092  0.49653972  0.68351817  1.0
  C  C71  1  0.41532716  0.56889767  0.71515229  1.0
  C  C72  1  0.59692435  0.41744996  0.71473238  1.0
  C  C73  1  0.68492826  0.33552440  0.68359166  1.0
  C  C74  1  0.76486953  0.25671939  0.71508617  1.0
  C  C75  1  0.49560385  0.49438126  0.18204117  1.0
  C  C76  1  0.49166072  0.49068170  0.31229533  1.0
  C  C77  1  0.61614016  0.49359906  0.21527131  1.0
  C  C78  1  0.36691524  0.49314108  0.27869961  1.0
  C  C79  1  0.61271120  0.49098954  0.27768055  1.0
  C  C80  1  0.37241808  0.49387791  0.21517609  1.0
  C  C81  1  0.77121103  0.49950312  0.21113704  1.0
  C  C82  1  0.76797280  0.49600185  0.28205662  1.0
  C  C83  1  0.92518574  0.56318113  0.95625766  1.0
  C  C84  1  0.06385299  0.43962047  0.03942331  1.0
  C  C85  1  0.06667652  0.56661518  0.95946973  1.0
  C  C86  1  0.91775307  0.43665751  0.03570788  1.0
  C  C87  1  0.91839669  0.64680267  0.90286927  1.0
  C  C88  1  0.08143554  0.65102875  0.90643292  1.0
  C  C89  1  0.50262894  0.87625632  0.99570877  1.0
  C  C90  1  0.49172681  0.13694544  0.99538962  1.0
  C  C91  1  0.62196522  0.94629392  0.99622506  1.0
  C  C92  1  0.36861086  0.06621839  0.99442289  1.0
  C  C93  1  0.61446829  0.07142595  0.99636094  1.0
  C  C94  1  0.37792307  0.93895392  0.99479506  1.0
  C  C95  1  0.77773774  0.94440351  0.99669174  1.0
  C  C96  1  0.76905305  0.08672082  0.99698109  1.0
  N  N97  1  0.14890596  0.49251232  0.50191734  1.0
  N  N98  1  0.85635715  0.50179841  0.49388376  1.0
  N  N99  1  0.84811178  0.49857174  0.99452527  1.0
  N  N100  1  0.14084042  0.50703403  0.99974464  1.0
  N  N101  1  0.87083108  0.36154349  0.41595303  1.0
  N  N102  1  0.75993956  0.11300990  0.50174953  1.0
  N  N103  1  0.24000271  0.49189008  0.30718515  1.0
  N  N104  1  0.12906216  0.37640455  0.08208036  1.0
  N  N105  1  0.24094669  0.11923825  0.99524576  1.0
  O  O106  1  0.60919182  0.68344592  0.48754040  1.0
  O  O107  1  0.37885253  0.68636759  0.50472078  1.0
  O  O108  1  0.39003277  0.49337080  0.59177119  1.0
  O  O109  1  0.62141345  0.51861734  0.58940907  1.0
  O  O110  1  0.39324684  0.31902452  0.49217374  1.0
  O  O111  1  0.62204959  0.32193193  0.50823157  1.0
  O  O112  1  0.61066433  0.47431723  0.40408689  1.0
  O  O113  1  0.38325252  0.51430185  0.40790597  1.0
  O  O114  1  0.38718246  0.68890485  0.99967030  1.0
  O  O115  1  0.62011542  0.68954826  0.99443302  1.0
  O  O116  1  0.60834044  0.49979760  0.90505118  1.0
  O  O117  1  0.37639518  0.51697206  0.90171077  1.0
  O  O118  1  0.60983416  0.32159482  0.99948305  1.0
  O  O119  1  0.37895733  0.32667545  0.98930091  1.0
  O  O120  1  0.38247405  0.48985309  0.08799397  1.0
  O  O121  1  0.61384945  0.50829869  0.08922091  1.0
  F  F122  1  0.84269355  0.17516968  0.80750848  1.0
  F  F123  1  0.84846229  0.17699008  0.68592017  1.0
