# generated using pymatgen
data_Zr3H26(C21O8)2
_symmetry_space_group_name_H-M   'P 1'
_cell_length_a   19.13001890
_cell_length_b   19.13004556
_cell_length_c   19.12997426
_cell_angle_alpha   120.00009558
_cell_angle_beta   89.99949869
_cell_angle_gamma   120.00036123
_symmetry_Int_Tables_number   1
_chemical_formula_structural   Zr3H26(C21O8)2
_chemical_formula_sum   'Zr6 H52 C84 O32'
_cell_volume   4950.27918025
_cell_formula_units_Z   2
loop_
 _symmetry_equiv_pos_site_id
 _symmetry_equiv_pos_as_xyz
  1  'x, y, z'
loop_
 _atom_site_type_symbol
 _atom_site_label
 _atom_site_symmetry_multiplicity
 _atom_site_fract_x
 _atom_site_fract_y
 _atom_site_fract_z
 _atom_site_occupancy
  Zr  Zr0  1  0.09245744  0.50000104  0.40754288  1.0
  Zr  Zr1  1  0.90754588  0.50000086  0.59245579  1.0
  Zr  Zr2  1  0.90754359  0.31508485  0.40754138  1.0
  Zr  Zr3  1  0.09245908  0.68491497  0.59245587  1.0
  Zr  Zr4  1  0.90754210  0.49999994  0.40753940  1.0
  Zr  Zr5  1  0.09246248  0.50000094  0.59245909  1.0
  H  H6  1  0.92720280  0.35440256  0.28160025  1.0
  H  H7  1  0.92720365  0.64559851  0.57279817  1.0
  H  H8  1  0.92720157  0.35440269  0.57279899  1.0
  H  H9  1  0.21839969  0.64560026  0.57279645  1.0
  H  H10  1  0.88854999  0.50111282  0.82163870  1.0
  H  H11  1  0.88677020  0.49955177  0.94956640  1.0
  H  H12  1  0.11256346  0.50111113  0.17947125  1.0
  H  H13  1  0.11278432  0.49954921  0.04998148  1.0
  H  H14  1  0.88855168  0.50111176  0.17947126  1.0
  H  H15  1  0.88676674  0.49954987  0.04998108  1.0
  H  H16  1  0.11256113  0.50111130  0.82163546  1.0
  H  H17  1  0.11278650  0.49955032  0.94956335  1.0
  H  H18  1  0.67836293  0.49889019  0.61145036  1.0
  H  H19  1  0.55043568  0.50045238  0.61323266  1.0
  H  H20  1  0.32053087  0.49889044  0.38743484  1.0
  H  H21  1  0.45002026  0.50045260  0.38721627  1.0
  H  H22  1  0.32052868  0.49889106  0.61144799  1.0
  H  H23  1  0.45001742  0.50045217  0.61323319  1.0
  H  H24  1  0.67836447  0.49889026  0.38743819  1.0
  H  H25  1  0.55043660  0.50045333  0.38721450  1.0
  H  H26  1  0.11256208  0.29092446  0.61144843  1.0
  H  H27  1  0.11278634  0.16322047  0.61323325  1.0
  H  H28  1  0.88855138  0.70907787  0.38743782  1.0
  H  H29  1  0.88676625  0.83678273  0.38721457  1.0
  H  H30  1  0.11256347  0.93309013  0.61145031  1.0
  H  H31  1  0.11278414  0.06280046  0.61323325  1.0
  H  H32  1  0.88854872  0.06690905  0.38743613  1.0
  H  H33  1  0.88676845  0.93720111  0.38721759  1.0
  H  H34  1  0.67836221  0.29092409  0.17947198  1.0
  H  H35  1  0.55043516  0.16321778  0.04998279  1.0
  H  H36  1  0.32052774  0.70907851  0.82163623  1.0
  H  H37  1  0.45001566  0.83678082  0.94956386  1.0
  H  H38  1  0.32053024  0.93309415  0.82163919  1.0
  H  H39  1  0.45001945  0.06280120  0.94956665  1.0
  H  H40  1  0.67836356  0.06691244  0.17947211  1.0
  H  H41  1  0.55043651  0.93720143  0.04998292  1.0
  H  H42  1  0.11256371  0.93309010  0.82163779  1.0
  H  H43  1  0.11278569  0.06280157  0.94956572  1.0
  H  H44  1  0.88855101  0.06691276  0.17947198  1.0
  H  H45  1  0.88676690  0.93720128  0.04998333  1.0
  H  H46  1  0.11256336  0.29092437  0.17947007  1.0
  H  H47  1  0.11278315  0.16321682  0.04998118  1.0
  H  H48  1  0.88855137  0.70907781  0.82163729  1.0
  H  H49  1  0.88676815  0.83678344  0.94956502  1.0
  H  H50  1  0.67836510  0.06691376  0.38743935  1.0
  H  H51  1  0.55043741  0.93720210  0.38721636  1.0
  H  H52  1  0.32052807  0.93308802  0.61144865  1.0
  H  H53  1  0.45001854  0.06280156  0.61323439  1.0
  H  H54  1  0.32052967  0.70907768  0.38743619  1.0
  H  H55  1  0.45002016  0.83678550  0.38721675  1.0
  H  H56  1  0.67836413  0.29092444  0.61145081  1.0
  H  H57  1  0.55043579  0.16321695  0.61323159  1.0
  C  C58  1  0.00190514  0.50381017  0.26682258  1.0
  C  C59  1  0.76301556  0.49619104  0.49809428  1.0
  C  C60  1  0.00191006  0.50380888  0.73698428  1.0
  C  C61  1  0.23318054  0.49619403  0.49809919  1.0
  C  C62  1  0.00190451  0.26491829  0.26682266  1.0
  C  C63  1  0.23317797  0.73508166  0.49809382  1.0
  C  C64  1  0.00190702  0.73508183  0.73698441  1.0
  C  C65  1  0.76301732  0.26491828  0.49809373  1.0
  C  C66  1  0.76301461  0.26491887  0.26682258  1.0
  C  C67  1  0.00190657  0.26491952  0.49809600  1.0
  C  C68  1  0.23318019  0.73508052  0.73698558  1.0
  C  C69  1  0.00190671  0.73508328  0.49809449  1.0
  C  C70  1  0.00097559  0.50195356  0.81391418  1.0
  C  C71  1  0.00098104  0.50195546  0.18803637  1.0
  C  C72  1  0.93740392  0.50092468  0.85060986  1.0
  C  C73  1  0.93702839  0.49990119  0.92270827  1.0
  C  C74  1  0.06352515  0.50092478  0.15031187  1.0
  C  C75  1  0.06287504  0.49990017  0.07718890  1.0
  C  C76  1  0.93740397  0.50092464  0.15031134  1.0
  C  C77  1  0.93703107  0.49989991  0.07718902  1.0
  C  C78  1  0.06352446  0.50092245  0.85060837  1.0
  C  C79  1  0.06287236  0.49990115  0.92270754  1.0
  C  C80  1  0.99986279  0.49971865  0.96107124  1.0
  C  C81  1  0.99985945  0.49971792  0.03864240  1.0
  C  C82  1  0.68608456  0.49804529  0.49902288  1.0
  C  C83  1  0.31196627  0.49804938  0.49901838  1.0
  C  C84  1  0.64938992  0.49907617  0.56259804  1.0
  C  C85  1  0.57729197  0.50010147  0.56297189  1.0
  C  C86  1  0.34969082  0.49907908  0.43647623  1.0
  C  C87  1  0.42281314  0.50010252  0.43712530  1.0
  C  C88  1  0.34968976  0.49907901  0.56259892  1.0
  C  C89  1  0.42281208  0.50010258  0.56296913  1.0
  C  C90  1  0.64939162  0.49907810  0.43647737  1.0
  C  C91  1  0.57729430  0.50010226  0.43712849  1.0
  C  C92  1  0.53892933  0.50028517  0.50013963  1.0
  C  C93  1  0.46135867  0.50028592  0.50014325  1.0
  C  C94  1  0.00097477  0.18705767  0.49902041  1.0
  C  C95  1  0.00097995  0.81294228  0.49902295  1.0
  C  C96  1  0.06352424  0.21291309  0.56259952  1.0
  C  C97  1  0.06287224  0.14016170  0.56296952  1.0
  C  C98  1  0.93740291  0.78709015  0.43647694  1.0
  C  C99  1  0.93703055  0.85983906  0.43712844  1.0
  C  C100  1  0.06352455  0.91321125  0.56259800  1.0
  C  C101  1  0.06287497  0.98568456  0.56297239  1.0
  C  C102  1  0.93740196  0.08679044  0.43647704  1.0
  C  C103  1  0.93702782  0.01431755  0.43712618  1.0
  C  C104  1  0.99986218  0.03878929  0.50014232  1.0
  C  C105  1  0.99985879  0.96121458  0.50013950  1.0
  C  C106  1  0.68608437  0.18706053  0.18803648  1.0
  C  C107  1  0.31196518  0.81294506  0.81391574  1.0
  C  C108  1  0.64939076  0.21291109  0.15031173  1.0
  C  C109  1  0.57729226  0.14016365  0.07719063  1.0
  C  C110  1  0.34968806  0.78708777  0.85060954  1.0
  C  C111  1  0.42281092  0.85984000  0.92270854  1.0
  C  C112  1  0.34968959  0.91321166  0.85061100  1.0
  C  C113  1  0.42281244  0.98568526  0.92270999  1.0
  C  C114  1  0.64939116  0.08678961  0.15031212  1.0
  C  C115  1  0.57729203  0.01431790  0.07718900  1.0
  C  C116  1  0.53892872  0.03878588  0.03864271  1.0
  C  C117  1  0.46135737  0.96121296  0.96107154  1.0
  C  C118  1  0.00097923  0.81293982  0.81391591  1.0
  C  C119  1  0.00097949  0.18706338  0.18803556  1.0
  C  C120  1  0.06352377  0.91320993  0.85061021  1.0
  C  C121  1  0.06287384  0.98568111  0.92270768  1.0
  C  C122  1  0.93740145  0.08679022  0.15031144  1.0
  C  C123  1  0.93703023  0.01432059  0.07718910  1.0
  C  C124  1  0.06352351  0.21291209  0.15031080  1.0
  C  C125  1  0.06287379  0.14016370  0.07718858  1.0
  C  C126  1  0.93740300  0.78708883  0.85061008  1.0
  C  C127  1  0.93702901  0.85983745  0.92270838  1.0
  C  C128  1  0.99986035  0.96121602  0.96107249  1.0
  C  C129  1  0.99985786  0.03878501  0.03864320  1.0
  C  C130  1  0.68608797  0.18706336  0.49902591  1.0
  C  C131  1  0.31196460  0.81293947  0.49902053  1.0
  C  C132  1  0.64939232  0.08679131  0.43647794  1.0
  C  C133  1  0.57729409  0.01432180  0.43712817  1.0
  C  C134  1  0.34968908  0.91321047  0.56259715  1.0
  C  C135  1  0.42281164  0.98568091  0.56297044  1.0
  C  C136  1  0.34968989  0.78708976  0.43647584  1.0
  C  C137  1  0.42281311  0.85983956  0.43712700  1.0
  C  C138  1  0.64939277  0.21291278  0.56259846  1.0
  C  C139  1  0.57729328  0.14016441  0.56297242  1.0
  C  C140  1  0.53893049  0.03878658  0.50014037  1.0
  C  C141  1  0.46135900  0.96121694  0.50014202  1.0
  O  O142  1  0.06140466  0.50389796  0.29747830  1.0
  O  O143  1  0.79358267  0.49610312  0.55750572  1.0
  O  O144  1  0.94249632  0.50389597  0.70641691  1.0
  O  O145  1  0.20252488  0.49610593  0.43859705  1.0
  O  O146  1  0.94249485  0.23607883  0.29747887  1.0
  O  O147  1  0.20252138  0.76392290  0.55750370  1.0
  O  O148  1  0.06140546  0.76392407  0.70641672  1.0
  O  O149  1  0.79358620  0.23607741  0.43859666  1.0
  O  O150  1  0.79358390  0.35498599  0.29747737  1.0
  O  O151  1  0.06140370  0.35498560  0.55750561  1.0
  O  O152  1  0.20252364  0.64501537  0.70641497  1.0
  O  O153  1  0.94249538  0.64501608  0.43859578  1.0
  O  O154  1  0.94249479  0.23607477  0.43859652  1.0
  O  O155  1  0.20252706  0.76392726  0.70641706  1.0
  O  O156  1  0.06140620  0.76392661  0.55750551  1.0
  O  O157  1  0.79358432  0.23607704  0.29747837  1.0
  O  O158  1  0.06140350  0.35498508  0.29747735  1.0
  O  O159  1  0.79358473  0.35498580  0.55750463  1.0
  O  O160  1  0.94249554  0.64501532  0.70641661  1.0
  O  O161  1  0.20252219  0.64501556  0.43859431  1.0
  O  O162  1  0.20252514  0.49610924  0.55750827  1.0
  O  O163  1  0.94249365  0.50389645  0.29747757  1.0
  O  O164  1  0.79358434  0.49610431  0.43859635  1.0
  O  O165  1  0.06140477  0.50389374  0.70641377  1.0
  O  O166  1  0.15631923  0.60421301  0.55210374  1.0
  O  O167  1  0.94789506  0.39578932  0.55210520  1.0
  O  O168  1  0.94789559  0.60421157  0.55210570  1.0
  O  O169  1  0.94789653  0.39578920  0.34368181  1.0
  O  O170  1  0.88516025  0.42343976  0.46171719  1.0
  O  O171  1  0.03827992  0.57656108  0.46171828  1.0
  O  O172  1  0.03828386  0.57655999  0.61483964  1.0
  O  O173  1  0.03828152  0.42344055  0.46172029  1.0
