# generated using pymatgen
data_Dy3H40C68N7O19
_symmetry_space_group_name_H-M   'P 1'
_cell_length_a   10.31032766
_cell_length_b   19.04528862
_cell_length_c   19.70902648
_cell_angle_alpha   78.20922710
_cell_angle_beta   76.60684353
_cell_angle_gamma   81.42108741
_symmetry_Int_Tables_number   1
_chemical_formula_structural   Dy3H40C68N7O19
_chemical_formula_sum   'Dy6 H80 C136 N14 O38'
_cell_volume   3664.29975934
_cell_formula_units_Z   2
loop_
 _symmetry_equiv_pos_site_id
 _symmetry_equiv_pos_as_xyz
  1  'x, y, z'
loop_
 _atom_site_type_symbol
 _atom_site_label
 _atom_site_symmetry_multiplicity
 _atom_site_fract_x
 _atom_site_fract_y
 _atom_site_fract_z
 _atom_site_occupancy
  Dy  Dy0  1  0.36625699  0.94156632  0.57202152  1.0
  Dy  Dy1  1  0.81488185  0.48072582  0.56912910  1.0
  Dy  Dy2  1  0.84959698  0.58120988  0.96098801  1.0
  Dy  Dy3  1  0.63374266  0.05843241  0.42797894  1.0
  Dy  Dy4  1  0.18512124  0.51927560  0.43086837  1.0
  Dy  Dy5  1  0.15040644  0.41878993  0.03901127  1.0
  H  H6  1  0.88903015  0.00483196  0.56183708  1.0
  H  H7  1  0.57241449  0.00192096  0.74831462  1.0
  H  H8  1  0.74205609  0.99330936  0.82265356  1.0
  H  H9  1  0.98675300  0.98754917  0.76547019  1.0
  H  H10  1  0.69898167  0.72937658  0.53582342  1.0
  H  H11  1  0.01970445  0.71035738  0.35558356  1.0
  H  H12  1  0.96287710  0.83967321  0.30350534  1.0
  H  H13  1  0.77436258  0.91304726  0.36918741  1.0
  H  H14  1  0.99760726  0.48104142  0.25052860  1.0
  H  H15  1  0.65237153  0.58704666  0.17052433  1.0
  H  H16  1  0.53386969  0.60458570  0.29312191  1.0
  H  H17  1  0.65077118  0.56053187  0.39416419  1.0
  H  H18  1  0.60758083  0.42424334  0.00539711  1.0
  H  H19  1  0.51251819  0.21553251  0.99507695  1.0
  H  H20  1  0.75110987  0.16495716  0.99767120  1.0
  H  H21  1  0.91696408  0.24632929  0.00240264  1.0
  H  H22  1  0.16098631  0.87817320  0.49562361  1.0
  H  H23  1  0.02801622  0.77551112  0.50441820  1.0
  H  H24  1  0.03027795  0.67245119  0.60708323  1.0
  H  H25  1  0.10454912  0.62046266  0.72092865  1.0
  H  H26  1  0.21747868  0.63263646  0.81434916  1.0
  H  H27  1  0.35295501  0.70386472  0.86074906  1.0
  H  H28  1  0.47537004  0.81291751  0.84157412  1.0
  H  H29  1  0.48216101  0.90144614  0.72704833  1.0
  H  H30  1  0.64852540  0.40979312  0.47388297  1.0
  H  H31  1  0.55002885  0.29926700  0.47011126  1.0
  H  H32  1  0.55024744  0.19490119  0.57108754  1.0
  H  H33  1  0.60525428  0.14460118  0.69053259  1.0
  H  H34  1  0.68476535  0.16215049  0.79458283  1.0
  H  H35  1  0.76796511  0.24468005  0.85668866  1.0
  H  H36  1  0.84123228  0.36548517  0.85235075  1.0
  H  H37  1  0.84927153  0.45683138  0.74013705  1.0
  H  H38  1  0.00088192  0.74016620  0.89111453  1.0
  H  H39  1  0.01322873  0.84764621  0.79230028  1.0
  H  H40  1  0.88831907  0.85301230  0.69595944  1.0
  H  H41  1  0.73850675  0.79465397  0.64541831  1.0
  H  H42  1  0.59047429  0.69883109  0.66012025  1.0
  H  H43  1  0.47782573  0.59531462  0.73777875  1.0
  H  H44  1  0.46680499  0.49865149  0.84748939  1.0
  H  H45  1  0.62718334  0.49421009  0.92502855  1.0
  H  H46  1  0.11096817  0.99516839  0.43816271  1.0
  H  H47  1  0.42758427  0.99807722  0.25168505  1.0
  H  H48  1  0.25794168  0.00668882  0.17734573  1.0
  H  H49  1  0.01324753  0.01245011  0.23453006  1.0
  H  H50  1  0.30101997  0.27062217  0.46417731  1.0
  H  H51  1  0.98029631  0.28964082  0.64441739  1.0
  H  H52  1  0.03712555  0.16032553  0.69649376  1.0
  H  H53  1  0.22563884  0.08695257  0.63081313  1.0
  H  H54  1  0.00239229  0.51895784  0.74946975  1.0
  H  H55  1  0.34762791  0.41295314  0.82947442  1.0
  H  H56  1  0.46613163  0.39541465  0.70687650  1.0
  H  H57  1  0.34922726  0.43946793  0.60583418  1.0
  H  H58  1  0.39242159  0.57575647  0.99460128  1.0
  H  H59  1  0.48748266  0.78446517  0.00492714  1.0
  H  H60  1  0.24889365  0.83504213  0.00233021  1.0
  H  H61  1  0.08303813  0.75367160  0.99759556  1.0
  H  H62  1  0.83901224  0.12182606  0.50437586  1.0
  H  H63  1  0.97198011  0.22448922  0.49558183  1.0
  H  H64  1  0.96972159  0.32754809  0.39291715  1.0
  H  H65  1  0.89545230  0.37953716  0.27907037  1.0
  H  H66  1  0.78252263  0.36736390  0.18564976  1.0
  H  H67  1  0.64704642  0.29613509  0.13924996  1.0
  H  H68  1  0.52463172  0.18708069  0.15842519  1.0
  H  H69  1  0.51784064  0.09855260  0.27295190  1.0
  H  H70  1  0.35146838  0.59020508  0.52611933  1.0
  H  H71  1  0.44996813  0.70073013  0.52989138  1.0
  H  H72  1  0.44975453  0.80509593  0.42891348  1.0
  H  H73  1  0.39474945  0.85539704  0.30946902  1.0
  H  H74  1  0.31523419  0.83784879  0.20541906  1.0
  H  H75  1  0.23202822  0.75532031  0.14331325  1.0
  H  H76  1  0.15876404  0.63451518  0.14765030  1.0
  H  H77  1  0.15072712  0.54316735  0.25986354  1.0
  H  H78  1  0.99911850  0.25983362  0.10888613  1.0
  H  H79  1  0.98677358  0.15235415  0.20770004  1.0
  H  H80  1  0.11168303  0.14698913  0.30403968  1.0
  H  H81  1  0.26149646  0.20534692  0.35458028  1.0
  H  H82  1  0.40952138  0.30117250  0.33988022  1.0
  H  H83  1  0.52216883  0.40468952  0.26222225  1.0
  H  H84  1  0.53319079  0.50135157  0.15251118  1.0
  H  H85  1  0.37281798  0.50579026  0.07496986  1.0
  C  C86  1  0.95222168  0.99467229  0.66077778  1.0
  C  C87  1  0.85646443  0.00276116  0.61892795  1.0
  C  C88  1  0.71974263  0.00572380  0.65038223  1.0
  C  C89  1  0.67903924  0.00067644  0.72406340  1.0
  C  C90  1  0.77426049  0.99577826  0.76550591  1.0
  C  C91  1  0.91051144  0.99272532  0.73404849  1.0
  C  C92  1  0.09841595  0.98566783  0.62726176  1.0
  C  C93  1  0.61999283  0.01451149  0.60357402  1.0
  C  C94  1  0.72689680  0.82662442  0.45751923  1.0
  C  C95  1  0.75707655  0.75390898  0.48533700  1.0
  C  C96  1  0.86348059  0.71253639  0.44871739  1.0
  C  C97  1  0.93797614  0.74369756  0.38337309  1.0
  C  C98  1  0.90567726  0.81559256  0.35462232  1.0
  C  C99  1  0.80049002  0.85703712  0.39161980  1.0
  C  C100  1  0.61632534  0.87131364  0.49780965  1.0
  C  C101  1  0.89699221  0.63504010  0.47875059  1.0
  C  C102  1  0.83296428  0.52021934  0.32838749  1.0
  C  C103  1  0.89652474  0.50888441  0.26008698  1.0
  C  C104  1  0.83045046  0.53149571  0.20368516  1.0
  C  C105  1  0.70083097  0.56786153  0.21553750  1.0
  C  C106  1  0.63603826  0.57809850  0.28380918  1.0
  C  C107  1  0.70090336  0.55377147  0.34039382  1.0
  C  C108  1  0.90481235  0.49725267  0.38847080  1.0
  C  C109  1  0.89656618  0.51563558  0.13136962  1.0
  C  C110  1  0.77300763  0.34067270  0.00279211  1.0
  C  C111  1  0.64016583  0.36796850  0.00139191  1.0
  C  C112  1  0.54712546  0.32344812  0.99754868  1.0
  C  C113  1  0.58683925  0.24990717  0.99694317  1.0
  C  C114  1  0.71972609  0.22213953  0.99855010  1.0
  C  C115  1  0.81295646  0.26721014  0.00132395  1.0
  C  C116  1  0.86923904  0.39089829  0.00646052  1.0
  C  C117  1  0.40625454  0.35637032  0.99615779  1.0
  C  C118  1  0.15856690  0.83293653  0.53962545  1.0
  C  C119  1  0.08456636  0.77503715  0.54486462  1.0
  C  C120  1  0.08620288  0.71849443  0.60118188  1.0
  C  C121  1  0.15939223  0.72107708  0.65292510  1.0
  C  C122  1  0.23031039  0.78212569  0.64363059  1.0
  C  C123  1  0.15927385  0.66666667  0.71473660  1.0
  C  C124  1  0.22243810  0.67334423  0.76635010  1.0
  C  C125  1  0.29320682  0.73444637  0.75938553  1.0
  C  C126  1  0.35665982  0.74422448  0.81255461  1.0
  C  C127  1  0.42375965  0.80432602  0.80202498  1.0
  C  C128  1  0.42779960  0.85407793  0.73829881  1.0
  C  C129  1  0.30043289  0.78840418  0.69723277  1.0
  C  C130  1  0.64436837  0.36477064  0.51804417  1.0
  C  C131  1  0.58898747  0.30212505  0.51615664  1.0
  C  C132  1  0.58835798  0.24507270  0.57199414  1.0
  C  C133  1  0.63922008  0.25176965  0.63086111  1.0
  C  C134  1  0.68961947  0.31772638  0.62908414  1.0
  C  C135  1  0.64040667  0.19556460  0.69131987  1.0
  C  C136  1  0.68435584  0.20528357  0.74867662  1.0
  C  C137  1  0.72997576  0.27226129  0.75014383  1.0
  C  C138  1  0.77074868  0.28619130  0.80935012  1.0
  C  C139  1  0.81148903  0.35268600  0.80710592  1.0
  C  C140  1  0.81507422  0.40434105  0.74469696  1.0
  C  C141  1  0.73504548  0.32828150  0.68979616  1.0
  C  C142  1  0.94612413  0.74504030  0.84892113  1.0
  C  C143  1  0.95278227  0.80496422  0.79342457  1.0
  C  C144  1  0.88454649  0.80778494  0.74021195  1.0
  C  C145  1  0.80795937  0.75115840  0.74339771  1.0
  C  C146  1  0.80519441  0.69354530  0.80242771  1.0
  C  C147  1  0.73255786  0.75074857  0.69091550  1.0
  C  C148  1  0.65110633  0.69803088  0.69886949  1.0
  C  C149  1  0.63930727  0.64181221  0.75979498  1.0
  C  C150  1  0.54479549  0.59122392  0.77401761  1.0
  C  C151  1  0.53903054  0.53818468  0.83361486  1.0
  C  C152  1  0.62836731  0.53574294  0.87816013  1.0
  C  C153  1  0.72037302  0.63752762  0.81007802  1.0
  C  C154  1  0.04777621  0.00533021  0.33922010  1.0
  C  C155  1  0.14352958  0.99724080  0.38107152  1.0
  C  C156  1  0.28025360  0.99427708  0.34961720  1.0
  C  C157  1  0.32095831  0.99932283  0.27593671  1.0
  C  C158  1  0.22573784  0.00422209  0.23449338  1.0
  C  C159  1  0.08948888  0.00727503  0.26594954  1.0
  C  C160  1  0.90158138  0.01433252  0.37273815  1.0
  C  C161  1  0.38000494  0.98548670  0.39642679  1.0
  C  C162  1  0.27310871  0.17337488  0.54248245  1.0
  C  C163  1  0.24292708  0.24608977  0.51466400  1.0
  C  C164  1  0.13652183  0.28746343  0.55128253  1.0
  C  C165  1  0.06202650  0.25630118  0.61662651  1.0
  C  C166  1  0.09432339  0.18440618  0.64537802  1.0
  C  C167  1  0.19951239  0.14296272  0.60838214  1.0
  C  C168  1  0.38368027  0.12868513  0.50219314  1.0
  C  C169  1  0.10300999  0.36496080  0.52124862  1.0
  C  C170  1  0.16703459  0.47977831  0.67161278  1.0
  C  C171  1  0.10347303  0.49111379  0.73991433  1.0
  C  C172  1  0.16954931  0.46850247  0.79631388  1.0
  C  C173  1  0.29916869  0.43213720  0.78446094  1.0
  C  C174  1  0.36396339  0.42190023  0.71618902  1.0
  C  C175  1  0.29909718  0.44622780  0.65960491  1.0
  C  C176  1  0.09518798  0.50274767  0.61152672  1.0
  C  C177  1  0.10343758  0.48436261  0.86862894  1.0
  C  C178  1  0.22699568  0.65932765  0.99720607  1.0
  C  C179  1  0.35983760  0.63203131  0.99860636  1.0
  C  C180  1  0.45287795  0.67655171  0.00245162  1.0
  C  C181  1  0.41316239  0.75009158  0.00305858  1.0
  C  C182  1  0.28027323  0.77786083  0.00145110  1.0
  C  C183  1  0.18704574  0.73279076  0.99867475  1.0
  C  C184  1  0.13076217  0.60910260  0.99353830  1.0
  C  C185  1  0.59374888  0.64362951  0.00384201  1.0
  C  C186  1  0.84143154  0.16706328  0.46037393  1.0
  C  C187  1  0.91543097  0.22496321  0.45513580  1.0
  C  C188  1  0.91379556  0.28150538  0.39881801  1.0
  C  C189  1  0.84060720  0.27892273  0.34707467  1.0
  C  C190  1  0.76969004  0.21787412  0.35636855  1.0
  C  C191  1  0.84072669  0.33328262  0.28526315  1.0
  C  C192  1  0.77756344  0.32665504  0.23364901  1.0
  C  C193  1  0.70679693  0.26555182  0.24061354  1.0
  C  C194  1  0.64334493  0.25577371  0.18744434  1.0
  C  C195  1  0.57624621  0.19567163  0.19797293  1.0
  C  C196  1  0.57220515  0.14592027  0.26169963  1.0
  C  C197  1  0.69956954  0.21159564  0.30276664  1.0
  C  C198  1  0.35562850  0.63522702  0.48195787  1.0
  C  C199  1  0.41100930  0.69787315  0.48384529  1.0
  C  C200  1  0.41164000  0.75492442  0.42800788  1.0
  C  C201  1  0.36077956  0.74822909  0.36914038  1.0
  C  C202  1  0.31037708  0.68227290  0.37091760  1.0
  C  C203  1  0.35959508  0.80443361  0.30868146  1.0
  C  C204  1  0.31564480  0.79471517  0.25132424  1.0
  C  C205  1  0.27002367  0.72773854  0.24985746  1.0
  C  C206  1  0.22924775  0.71380853  0.19065305  1.0
  C  C207  1  0.18850740  0.64731382  0.19289573  1.0
  C  C208  1  0.18492333  0.59565822  0.25530365  1.0
  C  C209  1  0.26495506  0.67171778  0.31020460  1.0
  C  C210  1  0.05387608  0.25496060  0.15107883  1.0
  C  C211  1  0.04721982  0.19503722  0.20657506  1.0
  C  C212  1  0.11545460  0.19221649  0.25978779  1.0
  C  C213  1  0.19204073  0.24884303  0.25660164  1.0
  C  C214  1  0.19480458  0.30645667  0.19757217  1.0
  C  C215  1  0.26744002  0.24925394  0.30908390  1.0
  C  C216  1  0.34888823  0.30197325  0.30113202  1.0
  C  C217  1  0.36068629  0.35819192  0.24020614  1.0
  C  C218  1  0.45519985  0.40878129  0.22598257  1.0
  C  C219  1  0.46096601  0.46181945  0.16638539  1.0
  C  C220  1  0.37163058  0.46425956  0.12183877  1.0
  C  C221  1  0.27962486  0.36247489  0.18992240  1.0
  N  N222  1  0.78004307  0.39251079  0.68740064  1.0
  N  N223  1  0.69402476  0.37259668  0.57249747  1.0
  N  N224  1  0.23016072  0.83651799  0.58692640  1.0
  N  N225  1  0.36804830  0.84699870  0.68732764  1.0
  N  N226  1  0.87512533  0.69064916  0.85375708  1.0
  N  N227  1  0.71551012  0.58396823  0.86782971  1.0
  N  N228  1  0.55408321  0.55349682  0.61068485  1.0
  N  N229  1  0.21995547  0.60748849  0.31260036  1.0
  N  N230  1  0.30596990  0.62740205  0.42750411  1.0
  N  N231  1  0.76983971  0.16348182  0.41307173  1.0
  N  N232  1  0.63195523  0.15300058  0.31267175  1.0
  N  N233  1  0.12487388  0.30935173  0.14624199  1.0
  N  N234  1  0.28449076  0.41603428  0.13216832  1.0
  N  N235  1  0.44591734  0.44650731  0.38931289  1.0
  O  O236  1  0.13472254  0.98947844  0.56053594  1.0
  O  O237  1  0.18526016  0.97222295  0.66698322  1.0
  O  O238  1  0.51862341  0.97875009  0.62591971  1.0
  O  O239  1  0.64623169  0.05717218  0.54477497  1.0
  O  O240  1  0.52805893  0.84052440  0.54652741  1.0
  O  O241  1  0.61073375  0.94021017  0.48244215  1.0
  O  O242  1  0.81233644  0.60483971  0.52956696  1.0
  O  O243  1  0.00871978  0.60339499  0.45085957  1.0
  O  O244  1  0.83312558  0.48831055  0.45086803  1.0
  O  O245  1  0.03277158  0.48894550  0.37397256  1.0
  O  O246  1  0.85544483  0.55533277  0.07895978  1.0
  O  O247  1  0.98820902  0.46276572  0.12799257  1.0
  O  O248  1  0.83962841  0.45781705  0.98631503  1.0
  O  O249  1  0.97358242  0.36254941  0.03002108  1.0
  O  O250  1  0.31091312  0.31613674  0.01367387  1.0
  O  O251  1  0.38465954  0.42506646  0.98107448  1.0
  O  O252  1  0.58259844  0.52959355  0.55244402  1.0
  O  O253  1  0.63858769  0.53250314  0.65182508  1.0
  O  O254  1  0.45155442  0.59451267  0.62761118  1.0
  O  O255  1  0.86527467  0.01052245  0.43946489  1.0
  O  O256  1  0.81473561  0.02777524  0.33301833  1.0
  O  O257  1  0.48137524  0.02124865  0.37408139  1.0
  O  O258  1  0.35376408  0.94282601  0.45522556  1.0
  O  O259  1  0.47194978  0.15947384  0.45347714  1.0
  O  O260  1  0.38926788  0.05978859  0.51756112  1.0
  O  O261  1  0.18766178  0.39516117  0.47043173  1.0
  O  O262  1  0.99128065  0.39660483  0.54914059  1.0
  O  O263  1  0.16687652  0.51169088  0.54913058  1.0
  O  O264  1  0.96722732  0.51105699  0.62602369  1.0
  O  O265  1  0.14455914  0.44466434  0.92103846  1.0
  O  O266  1  0.01180026  0.53723466  0.87200843  1.0
  O  O267  1  0.16037479  0.54218384  0.01368305  1.0
  O  O268  1  0.02641889  0.63745095  0.96997937  1.0
  O  O269  1  0.68908930  0.68386308  0.98632605  1.0
  O  O270  1  0.61534376  0.57493391  0.01892775  1.0
  O  O271  1  0.41739845  0.47040895  0.44755550  1.0
  O  O272  1  0.36141563  0.46750207  0.34817211  1.0
  O  O273  1  0.54844535  0.40549038  0.37238789  1.0
