# generated using pymatgen
data_Zn4H28C32Br2O13
_symmetry_space_group_name_H-M   'P 1'
_cell_length_a   17.96730509
_cell_length_b   18.49462455
_cell_length_c   19.49373800
_cell_angle_alpha   63.72327322
_cell_angle_beta   63.66854689
_cell_angle_gamma   89.90844193
_symmetry_Int_Tables_number   1
_chemical_formula_structural   Zn4H28C32Br2O13
_chemical_formula_sum   'Zn8 H56 C64 Br4 O26'
_cell_volume   5050.50816595
_cell_formula_units_Z   2
loop_
 _symmetry_equiv_pos_site_id
 _symmetry_equiv_pos_as_xyz
  1  'x, y, z'
loop_
 _atom_site_type_symbol
 _atom_site_label
 _atom_site_symmetry_multiplicity
 _atom_site_fract_x
 _atom_site_fract_y
 _atom_site_fract_z
 _atom_site_occupancy
  Zn  Zn0  1  0.94551407  0.53243811  0.92377566  1.0
  Zn  Zn1  1  0.97123727  0.38263331  0.06844312  1.0
  Zn  Zn2  1  0.96959365  0.55873182  0.06219958  1.0
  Zn  Zn3  1  0.13122177  0.54312581  0.91287367  1.0
  Zn  Zn4  1  0.56107107  0.96870565  0.06207193  1.0
  Zn  Zn5  1  0.53632908  0.95155487  0.91926347  1.0
  Zn  Zn6  1  0.54531383  0.12604137  0.91441886  1.0
  Zn  Zn7  1  0.37826303  0.97138925  0.06758555  1.0
  H  H8  1  0.22297731  0.82907845  0.34791445  1.0
  H  H9  1  0.47320178  0.83931542  0.32299819  1.0
  H  H10  1  0.27857103  0.68086493  0.63556138  1.0
  H  H11  1  0.02827837  0.66865563  0.66083060  1.0
  H  H12  1  0.68363009  0.27607688  0.63889008  1.0
  H  H13  1  0.67831712  0.03669473  0.65486954  1.0
  H  H14  1  0.83433368  0.23336720  0.34366989  1.0
  H  H15  1  0.83919337  0.47273545  0.32763574  1.0
  H  H16  1  0.89869426  0.80036118  0.88424194  1.0
  H  H17  1  0.88179994  0.78494328  0.98687066  1.0
  H  H18  1  0.79506000  0.87962128  0.98124068  1.0
  H  H19  1  0.80987117  0.89185598  0.88039336  1.0
  H  H20  1  0.67537576  0.76623059  0.12493798  1.0
  H  H21  1  0.60247048  0.70085530  0.12652218  1.0
  H  H22  1  0.76100212  0.67032533  0.12850219  1.0
  H  H23  1  0.68912969  0.60732265  0.12646217  1.0
  H  H24  1  0.79654994  0.70822737  0.88091837  1.0
  H  H25  1  0.71245160  0.62806977  0.97962468  1.0
  H  H26  1  0.62214961  0.71915045  0.98136120  1.0
  H  H27  1  0.70542741  0.79839898  0.88109238  1.0
  H  H28  1  0.21530551  0.30707754  0.87606187  1.0
  H  H29  1  0.13247270  0.22898927  0.97975217  1.0
  H  H30  1  0.22203644  0.13723071  0.97912173  1.0
  H  H31  1  0.30479273  0.21622800  0.87609876  1.0
  H  H32  1  0.20726994  0.12180555  0.11948352  1.0
  H  H33  1  0.28004706  0.18772348  0.11730017  1.0
  H  H34  1  0.11917276  0.21514020  0.11949906  1.0
  H  H35  1  0.19340435  0.28145582  0.11524153  1.0
  H  H36  1  0.32136619  0.40416523  0.86879273  1.0
  H  H37  1  0.31252219  0.39516173  0.96577639  1.0
  H  H38  1  0.40058960  0.30201096  0.96841664  1.0
  H  H39  1  0.41054887  0.31221276  0.87058214  1.0
  H  H40  1  0.90554866  0.27228082  0.91737505  1.0
  H  H41  1  0.86872166  0.35638379  0.86333921  1.0
  H  H42  1  0.78251847  0.26571974  0.85914436  1.0
  H  H43  1  0.81896436  0.18193535  0.91412120  1.0
  H  H44  1  0.65322425  0.30417880  0.94520774  1.0
  H  H45  1  0.59620208  0.24692070  0.06131477  1.0
  H  H46  1  0.73866833  0.39392158  0.95163493  1.0
  H  H47  1  0.68250780  0.33466076  0.06768878  1.0
  H  H48  1  0.82581350  0.18852179  0.08484351  1.0
  H  H49  1  0.73532935  0.21459634  0.14588485  1.0
  H  H50  1  0.64767106  0.12520596  0.14178059  1.0
  H  H51  1  0.73809856  0.09854533  0.08141042  1.0
  H  H52  1  0.17947037  0.81288661  0.90596815  1.0
  H  H53  1  0.27232280  0.78530023  0.84895971  1.0
  H  H54  1  0.35477354  0.87993546  0.85235693  1.0
  H  H55  1  0.26108313  0.90406437  0.91304742  1.0
  H  H56  1  0.40666570  0.76060731  0.93114999  1.0
  H  H57  1  0.35282030  0.70335970  0.04722480  1.0
  H  H58  1  0.32027391  0.66592546  0.93107469  1.0
  H  H59  1  0.26521395  0.61087111  0.04718365  1.0
  H  H60  1  0.09857176  0.73446807  0.07347596  1.0
  H  H61  1  0.13112394  0.65024894  0.13185918  1.0
  H  H62  1  0.21978608  0.73965436  0.13491481  1.0
  H  H63  1  0.18381531  0.82312216  0.08054018  1.0
  C  C64  1  0.85743549  0.35896971  0.00339320  1.0
  C  C65  1  0.89185100  0.39793551  0.22894778  1.0
  C  C66  1  0.85507081  0.63641557  0.99814508  1.0
  C  C67  1  0.14904284  0.64600069  0.98664626  1.0
  C  C68  1  0.10974071  0.61985466  0.75516202  1.0
  C  C69  1  0.15007750  0.36921346  0.98748640  1.0
  C  C70  1  0.64014555  0.85948758  0.99485822  1.0
  C  C71  1  0.62799704  0.11145340  0.75370779  1.0
  C  C72  1  0.64562344  0.14101736  0.99498069  1.0
  C  C73  1  0.36670302  0.14602180  0.98903245  1.0
  C  C74  1  0.39295165  0.88832319  0.22838712  1.0
  C  C75  1  0.35964136  0.86865004  0.99178582  1.0
  C  C76  1  0.26283303  0.81286152  0.37873895  1.0
  C  C77  1  0.40408156  0.81825436  0.36549970  1.0
  C  C78  1  0.36773434  0.77277063  0.45540167  1.0
  C  C79  1  0.27720289  0.74414904  0.51228474  1.0
  C  C80  1  0.23865572  0.69681286  0.60482561  1.0
  C  C81  1  0.09737167  0.69029572  0.61835411  1.0
  C  C82  1  0.13364993  0.73646005  0.52843605  1.0
  C  C83  1  0.22419067  0.76542508  0.47135742  1.0
  C  C84  1  0.35099766  0.83868952  0.32673975  1.0
  C  C85  1  0.15056466  0.67026002  0.65698815  1.0
  C  C86  1  0.70076699  0.23931499  0.60581337  1.0
  C  C87  1  0.69812644  0.10404134  0.61418348  1.0
  C  C88  1  0.74285164  0.14180975  0.52395791  1.0
  C  C89  1  0.76972581  0.23009473  0.46948369  1.0
  C  C90  1  0.81690679  0.27011481  0.37675177  1.0
  C  C91  1  0.81931438  0.40539204  0.36836999  1.0
  C  C92  1  0.77348906  0.36761265  0.45856220  1.0
  C  C93  1  0.74704229  0.27932291  0.51303919  1.0
  C  C94  1  0.67703905  0.15351044  0.65541541  1.0
  C  C95  1  0.84149941  0.35589349  0.32720692  1.0
  C  C96  1  0.84893223  0.78377859  0.95130285  1.0
  C  C97  1  0.79053689  0.84547440  0.94876324  1.0
  C  C98  1  0.69633741  0.79786755  0.99561081  1.0
  C  C99  1  0.67019743  0.73339291  0.09155304  1.0
  C  C100  1  0.72779295  0.67093100  0.09273084  1.0
  C  C101  1  0.79490262  0.69431578  0.99764618  1.0
  C  C102  1  0.74876546  0.69203199  0.94833514  1.0
  C  C103  1  0.68917129  0.75240042  0.94845945  1.0
  C  C104  1  0.19988245  0.26259069  0.94376320  1.0
  C  C105  1  0.25933050  0.20160375  0.94379394  1.0
  C  C106  1  0.31006070  0.20765886  0.98857914  1.0
  C  C107  1  0.24510079  0.18594009  0.08364242  1.0
  C  C108  1  0.18685228  0.24777661  0.08297172  1.0
  C  C109  1  0.21061769  0.31123351  0.98753409  1.0
  C  C110  1  0.30469409  0.35881483  0.93648812  1.0
  C  C111  1  0.36347658  0.29746489  0.93770059  1.0
  C  C112  1  0.84762307  0.29361463  0.92003385  1.0
  C  C113  1  0.79013202  0.23361418  0.91751992  1.0
  C  C114  1  0.70067676  0.19811659  0.00090319  1.0
  C  C115  1  0.66080700  0.27152108  0.00352237  1.0
  C  C116  1  0.71804911  0.33063631  0.00726865  1.0
  C  C117  1  0.79788456  0.29852627  0.00559045  1.0
  C  C118  1  0.76919393  0.21106737  0.08508386  1.0
  C  C119  1  0.71120122  0.15160894  0.08252990  1.0
  C  C120  1  0.23570677  0.79088446  0.90817740  1.0
  C  C121  1  0.29099771  0.85252848  0.91117588  1.0
  C  C122  1  0.30132914  0.80720261  0.99373442  1.0
  C  C123  1  0.34305844  0.73485657  0.99004543  1.0
  C  C124  1  0.28552993  0.67297995  0.98950583  1.0
  C  C125  1  0.20552487  0.70395531  0.99050156  1.0
  C  C126  1  0.15527250  0.71221525  0.07330556  1.0
  C  C127  1  0.21259095  0.77181884  0.07623393  1.0
  Br  Br128  1  0.05870952  0.76137076  0.48038185  1.0
  Br  Br129  1  0.44257650  0.74794522  0.50355682  1.0
  Br  Br130  1  0.74523768  0.43708958  0.51065254  1.0
  Br  Br131  1  0.76890488  0.07238396  0.47176827  1.0
  O  O132  1  0.00640575  0.50369562  0.99092392  1.0
  O  O133  1  0.87559442  0.43537658  0.94600626  1.0
  O  O134  1  0.91312787  0.35166794  0.19399741  1.0
  O  O135  1  0.89066365  0.62830695  0.04429457  1.0
  O  O136  1  0.88626641  0.32929896  0.05677313  1.0
  O  O137  1  0.86674959  0.60152359  0.95181148  1.0
  O  O138  1  0.90922012  0.47717737  0.18857046  1.0
  O  O139  1  0.06867199  0.62983708  0.03714708  1.0
  O  O140  1  0.15915106  0.60343091  0.78817985  1.0
  O  O141  1  0.18551575  0.61922005  0.93260570  1.0
  O  O142  1  0.02811975  0.59767682  0.79729874  1.0
  O  O143  1  0.07041563  0.33451390  0.04076005  1.0
  O  O144  1  0.18272576  0.44685219  0.93426879  1.0
  O  O145  1  0.50346574  0.00522646  0.99178426  1.0
  O  O146  1  0.63830469  0.89819363  0.03581623  1.0
  O  O147  1  0.61134651  0.03219321  0.79420169  1.0
  O  O148  1  0.62311189  0.17539975  0.93654313  1.0
  O  O149  1  0.59938643  0.86839790  0.95338129  1.0
  O  O150  1  0.62707291  0.06326987  0.04778917  1.0
  O  O151  1  0.60687887  0.15766983  0.78874023  1.0
  O  O152  1  0.44684951  0.17604894  0.93613030  1.0
  O  O153  1  0.34496579  0.91150673  0.19416700  1.0
  O  O154  1  0.32921320  0.06890887  0.04190147  1.0
  O  O155  1  0.47443855  0.90298815  0.18724986  1.0
  O  O156  1  0.43751044  0.89392781  0.93015484  1.0
  O  O157  1  0.32736755  0.89090334  0.05008034  1.0
