# generated using pymatgen
data_ZnH34C44N2O9
_symmetry_space_group_name_H-M   'P 1'
_cell_length_a   13.75880836
_cell_length_b   15.22405370
_cell_length_c   28.04614176
_cell_angle_alpha   90.16562224
_cell_angle_beta   90.14852800
_cell_angle_gamma   89.95675326
_symmetry_Int_Tables_number   1
_chemical_formula_structural   ZnH34C44N2O9
_chemical_formula_sum   'Zn2 H68 C88 N4 O18'
_cell_volume   5874.63459785
_cell_formula_units_Z   2
loop_
 _symmetry_equiv_pos_site_id
 _symmetry_equiv_pos_as_xyz
  1  'x, y, z'
loop_
 _atom_site_type_symbol
 _atom_site_label
 _atom_site_symmetry_multiplicity
 _atom_site_fract_x
 _atom_site_fract_y
 _atom_site_fract_z
 _atom_site_occupancy
  Zn  Zn0  1  0.59765873  0.50186552  0.50108538  1.0
  Zn  Zn1  1  0.39725962  0.49963092  0.49955874  1.0
  H  H2  1  0.65200964  0.52292920  0.34932001  1.0
  H  H3  1  0.64827892  0.46808528  0.65288100  1.0
  H  H4  1  0.65398718  0.52038632  0.25957853  1.0
  H  H5  1  0.64650417  0.46759266  0.74265693  1.0
  H  H6  1  0.56138540  0.71483445  0.12325767  1.0
  H  H7  1  0.53533738  0.27699897  0.87679549  1.0
  H  H8  1  0.34309736  0.52444181  0.65102086  1.0
  H  H9  1  0.34383667  0.48288031  0.34775718  1.0
  H  H10  1  0.34048451  0.52418045  0.74073627  1.0
  H  H11  1  0.34462560  0.48140593  0.25808232  1.0
  H  H12  1  0.48181729  0.71557278  0.87906873  1.0
  H  H13  1  0.46596285  0.28226369  0.12153350  1.0
  H  H14  1  0.50622630  0.71830568  0.96689046  1.0
  H  H15  1  0.48659844  0.27770185  0.03357775  1.0
  H  H16  1  0.36535822  0.22261344  0.45668488  1.0
  H  H17  1  0.63178969  0.77869974  0.53874733  1.0
  H  H18  1  0.63934862  0.22387165  0.53014756  1.0
  H  H19  1  0.36058834  0.77665928  0.46308055  1.0
  H  H20  1  0.71612170  0.08294014  0.55552088  1.0
  H  H21  1  0.28749096  0.91778892  0.43416659  1.0
  H  H22  1  0.71273037  0.92020542  0.55905646  1.0
  H  H23  1  0.29072508  0.08033672  0.43086490  1.0
  H  H24  1  0.74784484  0.39771721  0.45368499  1.0
  H  H25  1  0.24769090  0.60353425  0.54892740  1.0
  H  H26  1  0.74949177  0.60798491  0.54789794  1.0
  H  H27  1  0.24557504  0.39560181  0.45320094  1.0
  H  H28  1  0.87024464  0.73065330  0.65232990  1.0
  H  H29  1  0.97877779  0.66666667  0.64797773  1.0
  H  H30  1  0.76918824  0.59604332  0.64216650  1.0
  H  H31  1  0.87489414  0.53134224  0.63459982  1.0
  H  H32  1  0.92865337  0.56770651  0.71857410  1.0
  H  H33  1  0.81222817  0.51767813  0.71800230  1.0
  H  H34  1  0.82245452  0.63267044  0.72664035  1.0
  H  H35  1  0.13172731  0.18364331  0.41282404  1.0
  H  H36  1  0.01436015  0.20374403  0.43772903  1.0
  H  H37  1  0.21071206  0.23228878  0.48862269  1.0
  H  H38  1  0.09671368  0.26174280  0.51251965  1.0
  H  H39  1  0.04260836  0.10393065  0.51059118  1.0
  H  H40  1  0.15123332  0.11649273  0.54436950  1.0
  H  H41  1  0.15653430  0.07221939  0.48613732  1.0
  H  H42  1  0.86933762  0.26418895  0.35273508  1.0
  H  H43  1  0.97932955  0.32608037  0.35701849  1.0
  H  H44  1  0.77136636  0.40104029  0.35725791  1.0
  H  H45  1  0.87767903  0.46454566  0.36581148  1.0
  H  H46  1  0.93724828  0.42148131  0.28384438  1.0
  H  H47  1  0.82204845  0.47360546  0.28089010  1.0
  H  H48  1  0.83039210  0.35790844  0.27475694  1.0
  H  H49  1  0.04116843  0.80458315  0.57105985  1.0
  H  H50  1  0.12598896  0.76509377  0.52773367  1.0
  H  H51  1  0.17837656  0.81802505  0.63031398  1.0
  H  H52  1  0.26075188  0.77870396  0.58687402  1.0
  H  H53  1  0.22459631  0.91028266  0.53476378  1.0
  H  H54  1  0.26723132  0.94350201  0.59152369  1.0
  H  H55  1  0.14127595  0.95019699  0.57806057  1.0
  H  H56  1  0.67191096  0.79831269  0.98890116  1.0
  H  H57  1  0.68785594  0.68220871  0.98988061  1.0
  H  H58  1  0.74275339  0.81191758  0.06979756  1.0
  H  H59  1  0.74769954  0.69653532  0.07579714  1.0
  H  H60  1  0.86870883  0.68599060  0.00896983  1.0
  H  H61  1  0.91230627  0.75712766  0.05444694  1.0
  H  H62  1  0.86409221  0.80156180  0.00096048  1.0
  H  H63  1  0.64340583  0.18566300  0.01076395  1.0
  H  H64  1  0.66983099  0.30013865  0.00941037  1.0
  H  H65  1  0.70998276  0.16647987  0.92938704  1.0
  H  H66  1  0.72641061  0.28099116  0.92348944  1.0
  H  H67  1  0.84968364  0.28081955  0.98993285  1.0
  H  H68  1  0.88469486  0.20662013  0.94418735  1.0
  H  H69  1  0.83338979  0.16610836  0.99776851  1.0
  C  C70  1  0.49481790  0.67138556  0.50268034  1.0
  C  C71  1  0.49983925  0.32962106  0.49579400  1.0
  C  C72  1  0.49657256  0.50322501  0.40695778  1.0
  C  C73  1  0.49770340  0.49701996  0.59356651  1.0
  C  C74  1  0.52082329  0.58060719  0.18010125  1.0
  C  C75  1  0.50564475  0.41408015  0.82024323  1.0
  C  C76  1  0.48658074  0.41904122  0.17941498  1.0
  C  C77  1  0.48751156  0.57779429  0.82109564  1.0
  C  C78  1  0.41165794  0.49026571  0.27829623  1.0
  C  C79  1  0.40752365  0.51191117  0.72122204  1.0
  C  C80  1  0.41116749  0.49102701  0.32792556  1.0
  C  C81  1  0.40901078  0.51222358  0.67157100  1.0
  C  C82  1  0.58546345  0.51329571  0.32885471  1.0
  C  C83  1  0.58161473  0.48061844  0.67263226  1.0
  C  C84  1  0.58647498  0.51193229  0.27927233  1.0
  C  C85  1  0.58056714  0.48039622  0.72219815  1.0
  C  C86  1  0.49952032  0.50056106  0.25430435  1.0
  C  C87  1  0.49351971  0.49611693  0.74615638  1.0
  C  C88  1  0.51619299  0.49809650  0.10187710  1.0
  C  C89  1  0.51155780  0.49647802  0.89845207  1.0
  C  C90  1  0.52778544  0.57771527  0.12747659  1.0
  C  C91  1  0.51447511  0.41625181  0.87281968  1.0
  C  C92  1  0.54940527  0.65426120  0.10329611  1.0
  C  C93  1  0.52989555  0.33824535  0.89683473  1.0
  C  C94  1  0.49573971  0.41965239  0.12687905  1.0
  C  C95  1  0.49782925  0.57630915  0.87358533  1.0
  C  C96  1  0.49786558  0.50258275  0.35347480  1.0
  C  C97  1  0.49589842  0.49670628  0.64703675  1.0
  C  C98  1  0.52337153  0.57849728  0.97418068  1.0
  C  C99  1  0.51688227  0.41560820  0.02609050  1.0
  C  C100  1  0.52777879  0.41406226  0.97424021  1.0
  C  C101  1  0.53669613  0.57907499  0.02593083  1.0
  C  C102  1  0.52130047  0.49603807  0.94927555  1.0
  C  C103  1  0.52375527  0.49786080  0.05098440  1.0
  C  C104  1  0.50810348  0.65591503  0.94802237  1.0
  C  C105  1  0.49531205  0.33966458  0.05238908  1.0
  C  C106  1  0.49427949  0.65491319  0.89874010  1.0
  C  C107  1  0.48359359  0.34169232  0.10176675  1.0
  C  C108  1  0.55603503  0.65533479  0.05345071  1.0
  C  C109  1  0.53876030  0.33660808  0.94661267  1.0
  C  C110  1  0.42468954  0.18569006  0.47294362  1.0
  C  C111  1  0.57320247  0.81555373  0.52183080  1.0
  C  C112  1  0.50163722  0.23148321  0.49405128  1.0
  C  C113  1  0.49556755  0.76956987  0.50147545  1.0
  C  C114  1  0.57952791  0.18638714  0.51464510  1.0
  C  C115  1  0.41974416  0.81454330  0.47889616  1.0
  C  C116  1  0.57982026  0.09438732  0.51658094  1.0
  C  C117  1  0.42065462  0.90639677  0.47574687  1.0
  C  C118  1  0.50096827  0.04706792  0.49530548  1.0
  C  C119  1  0.49921559  0.95391095  0.49717964  1.0
  C  C120  1  0.42378132  0.09365025  0.47222723  1.0
  C  C121  1  0.57616046  0.90748666  0.52052215  1.0
  C  C122  1  0.65630273  0.04610096  0.53946309  1.0
  C  C123  1  0.34589058  0.95464525  0.45147208  1.0
  C  C124  1  0.65443134  0.95654112  0.54144805  1.0
  C  C125  1  0.34759824  0.04426121  0.44970138  1.0
  C  C126  1  0.79266031  0.44362650  0.47387105  1.0
  C  C127  1  0.20276838  0.55897306  0.52790737  1.0
  C  C128  1  0.79360400  0.56173671  0.52766690  1.0
  C  C129  1  0.20159409  0.44110471  0.47399938  1.0
  C  C130  1  0.89527621  0.56373056  0.52945060  1.0
  C  C131  1  0.09992019  0.43845962  0.47279168  1.0
  C  C132  1  0.89429383  0.43992352  0.47258972  1.0
  C  C133  1  0.10109232  0.56250014  0.52934745  1.0
  C  C134  1  0.94642965  0.50166560  0.50096146  1.0
  C  C135  1  0.04888873  0.50111079  0.50086420  1.0
  C  C136  1  0.94852516  0.62484112  0.55895108  1.0
  C  C137  1  0.04694875  0.37432069  0.44536984  1.0
  C  C138  1  0.94634462  0.37662419  0.44412980  1.0
  C  C139  1  0.04906350  0.62496159  0.55826761  1.0
  C  C140  1  0.90186012  0.67045074  0.63722208  1.0
  C  C141  1  0.84573355  0.58955184  0.65312167  1.0
  C  C142  1  0.85277519  0.57633249  0.70705330  1.0
  C  C143  1  0.09132016  0.22355574  0.43878084  1.0
  C  C144  1  0.13323369  0.21437728  0.48880541  1.0
  C  C145  1  0.11997795  0.12160520  0.50842525  1.0
  C  C146  1  0.90177371  0.32503112  0.36662972  1.0
  C  C147  1  0.84877815  0.40562169  0.34780586  1.0
  C  C148  1  0.86034321  0.41500478  0.29386179  1.0
  C  C149  1  0.11110101  0.77021136  0.56629445  1.0
  C  C150  1  0.19354910  0.81692522  0.59178890  1.0
  C  C151  1  0.20715514  0.91029657  0.57299626  1.0
  C  C152  1  0.67493156  0.74060877  0.01235602  1.0
  C  C153  1  0.75433479  0.75039845  0.04987805  1.0
  C  C154  1  0.85536365  0.74879119  0.02732033  1.0
  C  C155  1  0.65101063  0.24276222  0.98714978  1.0
  C  C156  1  0.72818421  0.22666263  0.94932597  1.0
  C  C157  1  0.82949562  0.21957870  0.97152748  1.0
  N  N158  1  0.50168618  0.50007368  0.20288914  1.0
  N  N159  1  0.49424056  0.49592911  0.79757656  1.0
  N  N160  1  0.74552707  0.50316248  0.50061876  1.0
  N  N161  1  0.24970161  0.49999598  0.50074027  1.0
  O  O162  1  0.57472976  0.63324778  0.51285130  1.0
  O  O163  1  0.41736144  0.36557634  0.50228044  1.0
  O  O164  1  0.58093660  0.36891125  0.49126417  1.0
  O  O165  1  0.41472028  0.63335335  0.49308266  1.0
  O  O166  1  0.57654529  0.51881728  0.42836943  1.0
  O  O167  1  0.41751412  0.51174845  0.57218849  1.0
  O  O168  1  0.57921465  0.48260074  0.57364853  1.0
  O  O169  1  0.41526777  0.48788377  0.42681472  1.0
  O  O170  1  0.53147650  0.64868757  0.20325918  1.0
  O  O171  1  0.50887245  0.34551370  0.79697298  1.0
  O  O172  1  0.47494225  0.64593106  0.79839634  1.0
  O  O173  1  0.46772256  0.35222130  0.20214825  1.0
  O  O174  1  0.89604610  0.68336640  0.58574790  1.0
  O  O175  1  0.10016043  0.31313645  0.42066782  1.0
  O  O176  1  0.89251124  0.31757307  0.41828432  1.0
  O  O177  1  0.10299741  0.68169817  0.58566561  1.0
  O  O178  1  0.57891571  0.73541227  0.03363345  1.0
  O  O179  1  0.55520493  0.25505224  0.96624787  1.0
