# generated using pymatgen
data_Zn2H36C41N11O4
_symmetry_space_group_name_H-M   'P 1'
_cell_length_a   19.85151592
_cell_length_b   19.89358309
_cell_length_c   20.03991096
_cell_angle_alpha   110.76673026
_cell_angle_beta   106.76036271
_cell_angle_gamma   110.42075471
_symmetry_Int_Tables_number   1
_chemical_formula_structural   Zn2H36C41N11O4
_chemical_formula_sum   'Zn4 H72 C82 N22 O8'
_cell_volume   6120.22209562
_cell_formula_units_Z   2
loop_
 _symmetry_equiv_pos_site_id
 _symmetry_equiv_pos_as_xyz
  1  'x, y, z'
loop_
 _atom_site_type_symbol
 _atom_site_label
 _atom_site_symmetry_multiplicity
 _atom_site_fract_x
 _atom_site_fract_y
 _atom_site_fract_z
 _atom_site_occupancy
  Zn  Zn0  1  0.01130345  0.08270726  0.60413907  1.0
  Zn  Zn1  1  0.00147221  0.86785909  0.36827241  1.0
  Zn  Zn2  1  0.90728878  0.86830235  0.49310964  1.0
  Zn  Zn3  1  0.10615801  0.08554568  0.48636244  1.0
  H  H4  1  0.01750252  0.13435802  0.76962321  1.0
  H  H5  1  0.16898436  0.48790138  0.51193507  1.0
  H  H6  1  0.18386708  0.86767409  0.41306016  1.0
  H  H7  1  0.84796416  0.08835816  0.58522556  1.0
  H  H8  1  0.03307446  0.85197136  0.62199003  1.0
  H  H9  1  0.06052328  0.19565900  0.42991660  1.0
  H  H10  1  0.26549719  0.28669818  0.61350395  1.0
  H  H11  1  0.74349136  0.82591799  0.35921341  1.0
  H  H12  1  0.23159793  0.07988088  0.62356447  1.0
  H  H13  1  0.73298234  0.82702838  0.51403883  1.0
  H  H14  1  0.43848802  0.45428499  0.95375621  1.0
  H  H15  1  0.88075485  0.88788941  0.23724180  1.0
  H  H16  1  0.49674975  0.73100175  0.99393949  1.0
  H  H17  1  0.35501577  0.45708239  0.02969244  1.0
  H  H18  1  0.31654260  0.52702160  0.04411479  1.0
  H  H19  1  0.37373953  0.57376806  0.19281201  1.0
  H  H20  1  0.30456952  0.46425110  0.13196529  1.0
  H  H21  1  0.41165251  0.50360427  0.17775392  1.0
  H  H22  1  0.61959225  0.66386963  0.91243816  1.0
  H  H23  1  0.57745042  0.72953439  0.91175723  1.0
  H  H24  1  0.52893776  0.66807363  0.76159472  1.0
  H  H25  1  0.63641512  0.71393387  0.81646659  1.0
  H  H26  1  0.58585837  0.57578074  0.97981519  1.0
  H  H27  1  0.57213808  0.60341703  0.76288633  1.0
  H  H28  1  0.07596624  0.46881454  0.69662124  1.0
  H  H29  1  0.06426514  0.55141593  0.73548602  1.0
  H  H30  1  0.23402608  0.69882042  0.55096174  1.0
  H  H31  1  0.24474358  0.61553625  0.51234932  1.0
  H  H32  1  0.92995207  0.15710046  0.92405358  1.0
  H  H33  1  0.95553947  0.21256161  0.02298926  1.0
  H  H34  1  0.81468742  0.86998444  0.03356126  1.0
  H  H35  1  0.78012018  0.81433744  0.93214690  1.0
  H  H36  1  0.07007888  0.20732374  0.11990769  1.0
  H  H37  1  0.35007466  0.61015641  0.96846980  1.0
  H  H38  1  0.05438451  0.15043392  0.17083485  1.0
  H  H39  1  0.05891961  0.26898595  0.27921844  1.0
  H  H40  1  0.15029901  0.30418766  0.27058550  1.0
  H  H41  1  0.07379852  0.32544239  0.22801587  1.0
  H  H42  1  0.73072813  0.89986950  0.76582012  1.0
  H  H43  1  0.66565562  0.83838177  0.79228910  1.0
  H  H44  1  0.67303762  0.71411883  0.70528428  1.0
  H  H45  1  0.62994543  0.75368319  0.64888690  1.0
  H  H46  1  0.73226002  0.77720681  0.67606728  1.0
  H  H47  1  0.09930256  0.66404331  0.43611416  1.0
  H  H48  1  0.39120840  0.84238054  0.55997302  1.0
  H  H49  1  0.18222124  0.76179637  0.46836750  1.0
  H  H50  1  0.15599638  0.71297829  0.32380418  1.0
  H  H51  1  0.17056183  0.64290544  0.35425434  1.0
  H  H52  1  0.07058596  0.61686386  0.29168613  1.0
  H  H53  1  0.88518333  0.24612940  0.55828113  1.0
  H  H54  1  0.97571655  0.34191273  0.63430346  1.0
  H  H55  1  0.94992808  0.31256594  0.74150132  1.0
  H  H56  1  0.87205159  0.32260594  0.68201814  1.0
  H  H57  1  0.85498745  0.22214972  0.66334399  1.0
  H  H58  1  0.17178915  0.36151293  0.82355365  1.0
  H  H59  1  0.64965688  0.10839929  0.68806562  1.0
  H  H60  1  0.24413112  0.34147297  0.87648270  1.0
  H  H61  1  0.13892587  0.25536882  0.90419892  1.0
  H  H62  1  0.16045562  0.36020302  0.94543697  1.0
  H  H63  1  0.06907042  0.28022296  0.85459811  1.0
  H  H64  1  0.75872474  0.75157198  0.09654796  1.0
  H  H65  1  0.71836512  0.64951520  0.08192160  1.0
  H  H66  1  0.82361085  0.63291167  0.04162595  1.0
  H  H67  1  0.76192341  0.65427856  0.97760131  1.0
  H  H68  1  0.86267953  0.73466659  0.05469842  1.0
  H  H69  1  0.87626340  0.84415031  0.70421653  1.0
  H  H70  1  0.51501516  0.84007836  0.55814627  1.0
  H  H71  1  0.90842984  0.81052939  0.63657080  1.0
  H  H72  1  0.08873766  0.14746170  0.28413359  1.0
  H  H73  1  0.16424348  0.15371047  0.35642694  1.0
  H  H74  1  0.52582684  0.11050398  0.68980890  1.0
  H  H75  1  0.08467468  0.65007419  0.68705601  1.0
  C  C76  1  0.99428808  0.06808385  0.73478942  1.0
  C  C77  1  0.40256192  0.60240639  0.97136349  1.0
  C  C78  1  0.45273859  0.51659439  0.96443245  1.0
  C  C79  1  0.48400198  0.66950817  0.98503534  1.0
  C  C80  1  0.28513235  0.38807018  0.77336960  1.0
  C  C81  1  0.67428331  0.73816697  0.18088896  1.0
  C  C82  1  0.48256203  0.59956807  0.91427992  1.0
  C  C83  1  0.45307162  0.58577369  0.03401544  1.0
  C  C84  1  0.40059629  0.53140557  0.90069231  1.0
  C  C85  1  0.53568519  0.65339957  0.04800426  1.0
  C  C86  1  0.33384657  0.46037371  0.82717386  1.0
  C  C87  1  0.94045718  0.94324525  0.27116229  1.0
  C  C88  1  0.60892682  0.70735801  0.12228089  1.0
  C  C89  1  0.51716894  0.89918188  0.58730131  1.0
  C  C90  1  0.52388491  0.05141873  0.66154689  1.0
  C  C91  1  0.18349063  0.91910046  0.45615554  1.0
  C  C92  1  0.82969925  0.02327492  0.56351545  1.0
  C  C93  1  0.59004245  0.97403632  0.61981280  1.0
  C  C94  1  0.44891683  0.97653642  0.62189549  1.0
  C  C95  1  0.59298868  0.05022813  0.66042988  1.0
  C  C96  1  0.44815148  0.90050432  0.58841043  1.0
  C  C97  1  0.65523197  0.97187705  0.60591090  1.0
  C  C98  1  0.23918952  0.97492195  0.53915941  1.0
  C  C99  1  0.37486698  0.97690141  0.60608118  1.0
  C  C100  1  0.31171744  0.97816434  0.58077298  1.0
  C  C101  1  0.70611610  0.96746604  0.58457010  1.0
  C  C102  1  0.10475384  0.61485055  0.65027782  1.0
  C  C103  1  0.15222258  0.52486960  0.55157188  1.0
  C  C104  1  0.13722071  0.64524947  0.60642255  1.0
  C  C105  1  0.11140429  0.49014884  0.58820532  1.0
  C  C106  1  0.16801429  0.60273954  0.56176696  1.0
  C  C107  1  0.09331203  0.53917872  0.64387204  1.0
  C  C108  1  0.12968385  0.70979373  0.59691021  1.0
  C  C109  1  0.76375454  0.96079071  0.55965565  1.0
  C  C110  1  0.08476971  0.40663105  0.56767131  1.0
  C  C111  1  0.05446706  0.33262268  0.54623131  1.0
  C  C112  1  0.10709533  0.75024889  0.57221105  1.0
  C  C113  1  0.91496584  0.09083909  0.05045911  1.0
  C  C114  1  0.82549557  0.93681124  0.90752639  1.0
  C  C115  1  0.03285205  0.82935822  0.56408207  1.0
  C  C116  1  0.03798402  0.19060258  0.47233400  1.0
  C  C117  1  0.88074878  0.01707307  0.05303489  1.0
  C  C118  1  0.86926126  0.00990381  0.90719356  1.0
  C  C119  1  0.83087824  0.93891490  0.97950839  1.0
  C  C120  1  0.07022536  0.78543574  0.53564590  1.0
  C  C121  1  0.90940933  0.08879160  0.97858044  1.0
  C  C122  1  0.90408737  0.01894011  0.12751034  1.0
  C  C123  1  0.88282606  0.00548882  0.84095359  1.0
  C  C124  1  0.91095845  0.00611359  0.79404664  1.0
  C  C125  1  0.93084394  0.01300407  0.18716738  1.0
  C  C126  1  0.22989748  0.26095179  0.63942813  1.0
  C  C127  1  0.77702236  0.80977089  0.32825003  1.0
  C  C128  1  0.05062993  0.77585277  0.45711422  1.0
  C  C129  1  0.99797256  0.20999457  0.56656190  1.0
  C  C130  1  0.17372485  0.23853671  0.71574960  1.0
  C  C131  1  0.02781562  0.24977125  0.52667251  1.0
  C  C132  1  0.81961025  0.76476934  0.23995529  1.0
  C  C133  1  0.20771290  0.02693954  0.56459941  1.0
  C  C134  1  0.77041645  0.88934716  0.52677904  1.0
  C  C135  1  0.93526927  0.93094400  0.68036202  1.0
  C  C136  1  0.05022980  0.06281395  0.31746102  1.0
  C  C137  1  0.94374545  0.00306911  0.74079628  1.0
  C  C138  1  0.96892396  0.00762116  0.25438148  1.0
  C  C139  1  0.36496878  0.51660004  0.07420220  1.0
  C  C140  1  0.36375841  0.51455963  0.14869676  1.0
  C  C141  1  0.57102487  0.66915563  0.87445952  1.0
  C  C142  1  0.23227953  0.30346595  0.71417256  1.0
  C  C143  1  0.57740832  0.66308306  0.79927188  1.0
  C  C144  1  0.04503337  0.19823985  0.16054245  1.0
  C  C145  1  0.08418361  0.27883804  0.23923630  1.0
  C  C146  1  0.71384748  0.84542531  0.77383205  1.0
  C  C147  1  0.68598638  0.76801545  0.69679419  1.0
  C  C148  1  0.12309108  0.70869713  0.41730826  1.0
  C  C149  1  0.13040317  0.66832826  0.34215062  1.0
  C  C150  1  0.93406155  0.27976770  0.62088092  1.0
  C  C151  1  0.90079034  0.28420915  0.68037171  1.0
  C  C152  1  0.17858399  0.31689464  0.84126058  1.0
  C  C153  1  0.75094539  0.76955529  0.24434515  1.0
  C  C154  1  0.13389549  0.30178326  0.88880522  1.0
  C  C155  1  0.77389703  0.70351598  0.09717866  1.0
  C  C156  1  0.80791612  0.68016273  0.03969918  1.0
  C  C157  1  0.53289185  0.58262306  0.97644649  1.0
  N  N158  1  0.01317633  0.03699409  0.67581507  1.0
  N  N159  1  0.99361250  0.13570094  0.53921883  1.0
  N  N160  1  0.14057654  0.16489508  0.64849737  1.0
  N  N161  1  0.87960170  0.79911017  0.31448856  1.0
  N  N162  1  0.13918689  0.00372047  0.50145308  1.0
  N  N163  1  0.83541200  0.90967459  0.51380820  1.0
  N  N164  1  0.97573411  0.95121581  0.64094512  1.0
  N  N165  1  0.06801863  0.03293213  0.36683808  1.0
  N  N166  1  0.05824852  0.50743052  0.68509215  1.0
  N  N167  1  0.20639895  0.63567946  0.52299418  1.0
  N  N168  1  0.95038088  0.16228397  0.97932325  1.0
  N  N169  1  0.99893814  0.95727656  0.33692600  1.0
  N  N170  1  0.79029914  0.86563399  0.97903784  1.0
  N  N171  1  0.88852431  0.84932637  0.65978640  1.0
  N  N172  1  0.10505695  0.13898671  0.33217988  1.0
  N  N173  1  0.12454905  0.93685670  0.43431965  1.0
  N  N174  1  0.87248912  0.99196531  0.53629826  1.0
  N  N175  1  0.99436983  0.84315264  0.50747279  1.0
  N  N176  1  0.01916628  0.12349639  0.48138583  1.0
  N  N177  1  0.17585015  0.17963822  0.60135395  1.0
  N  N178  1  0.85309640  0.82687907  0.36965937  1.0
  N  N179  1  0.00597541  0.81081215  0.44155658  1.0
  O  O180  1  0.44311923  0.58312706  0.09853136  1.0
  O  O181  1  0.49270765  0.60233194  0.84993205  1.0
  O  O182  1  0.95842893  0.16751761  0.12137828  1.0
  O  O183  1  0.78420123  0.85951129  0.83791486  1.0
  O  O184  1  0.06751268  0.73895808  0.39852542  1.0
  O  O185  1  0.97781660  0.23481973  0.62622457  1.0
  O  O186  1  0.14466905  0.23818626  0.76917282  1.0
  O  O187  1  0.83534305  0.73520065  0.17776885  1.0
