# generated using pymatgen
data_ZnH6C11O6
_symmetry_space_group_name_H-M   'P 1'
_cell_length_a   8.91267261
_cell_length_b   13.61089098
_cell_length_c   16.96444040
_cell_angle_alpha   89.89331383
_cell_angle_beta   89.41318723
_cell_angle_gamma   87.06473737
_symmetry_Int_Tables_number   1
_chemical_formula_structural   ZnH6C11O6
_chemical_formula_sum   'Zn4 H24 C44 O24'
_cell_volume   2055.13674740
_cell_formula_units_Z   4
loop_
 _symmetry_equiv_pos_site_id
 _symmetry_equiv_pos_as_xyz
  1  'x, y, z'
loop_
 _atom_site_type_symbol
 _atom_site_label
 _atom_site_symmetry_multiplicity
 _atom_site_fract_x
 _atom_site_fract_y
 _atom_site_fract_z
 _atom_site_occupancy
  Zn  Zn0  1  0.35303797  0.01329674  0.50483264  1.0
  Zn  Zn1  1  0.65308407  0.99277285  0.49949828  1.0
  Zn  Zn2  1  0.64838310  0.49948619  0.00151264  1.0
  Zn  Zn3  1  0.34637094  0.50479612  0.00156671  1.0
  H  H4  1  0.69771517  0.70919215  0.16168766  1.0
  H  H5  1  0.12949549  0.65965083  0.25056654  1.0
  H  H6  1  0.10136952  0.76711773  0.19112969  1.0
  H  H7  1  0.13893732  0.87348822  0.30842218  1.0
  H  H8  1  0.16396307  0.76735665  0.36905906  1.0
  H  H9  1  0.71130460  0.27899943  0.85231808  1.0
  H  H10  1  0.16654000  0.37091159  0.73671568  1.0
  H  H11  1  0.12301988  0.26580750  0.79435088  1.0
  H  H12  1  0.18718662  0.15510233  0.68207746  1.0
  H  H13  1  0.22618299  0.25761235  0.62098302  1.0
  H  H14  1  0.76510206  0.29038711  0.20421848  1.0
  H  H15  1  0.17978390  0.26564352  0.14130391  1.0
  H  H16  1  0.17233294  0.37198533  0.20270489  1.0
  H  H17  1  0.14028231  0.26347595  0.32245654  1.0
  H  H18  1  0.15310468  0.15777522  0.26145324  1.0
  H  H19  1  0.28593932  0.69362378  0.82622976  1.0
  H  H20  1  0.87509841  0.65755872  0.75619875  1.0
  H  H21  1  0.87033930  0.76299311  0.81867187  1.0
  H  H22  1  0.82426066  0.87253796  0.70293882  1.0
  H  H23  1  0.83292787  0.76907202  0.63907380  1.0
  H  H24  1  0.80191813  0.70234543  0.34114694  1.0
  H  H25  1  0.81724111  0.11359375  0.64391409  1.0
  H  H26  1  0.79488607  0.05454759  0.28317884  1.0
  H  H27  1  0.22717251  0.72229496  0.61256740  1.0
  C  C28  1  0.46226949  0.87867542  0.61232857  1.0
  C  C29  1  0.51963858  0.87930711  0.38746604  1.0
  C  C30  1  0.47575449  0.13085971  0.39311538  1.0
  C  C31  1  0.56145628  0.12100547  0.61795865  1.0
  C  C32  1  0.54209403  0.37628401  0.11286276  1.0
  C  C33  1  0.44776773  0.63358367  0.10858165  1.0
  C  C34  1  0.54278156  0.62502456  0.88988227  1.0
  C  C35  1  0.45477257  0.37434584  0.89454876  1.0
  C  C36  1  0.45856339  0.70180150  0.17687066  1.0
  C  C37  1  0.50018968  0.82129272  0.31454426  1.0
  C  C38  1  0.33859356  0.73494104  0.22439624  1.0
  C  C39  1  0.62246116  0.79083710  0.26480077  1.0
  C  C40  1  0.35936227  0.79332442  0.29097669  1.0
  C  C41  1  0.60154870  0.73267428  0.19843721  1.0
  C  C42  1  0.17065438  0.73270111  0.23770871  1.0
  C  C43  1  0.19384376  0.79955379  0.31207609  1.0
  C  C44  1  0.47654903  0.30536701  0.82682800  1.0
  C  C45  1  0.54841284  0.18117425  0.69138389  1.0
  C  C46  1  0.36699164  0.28108732  0.77370208  1.0
  C  C47  1  0.66201626  0.20339523  0.74724815  1.0
  C  C48  1  0.40335259  0.22048522  0.70890236  1.0
  C  C49  1  0.62180678  0.26369269  0.81176347  1.0
  C  C50  1  0.20336425  0.29498876  0.75198909  1.0
  C  C51  1  0.24274954  0.22521306  0.67978128  1.0
  C  C52  1  0.52817389  0.30915269  0.18168396  1.0
  C  C53  1  0.49362206  0.18980069  0.32039931  1.0
  C  C54  1  0.38737670  0.28383447  0.20958025  1.0
  C  C55  1  0.63832011  0.21297648  0.29141321  1.0
  C  C56  1  0.37113863  0.22571081  0.27681405  1.0
  C  C57  1  0.65340471  0.27146773  0.22404380  1.0
  C  C58  1  0.21935983  0.29609408  0.19679732  1.0
  C  C59  1  0.20130347  0.22916284  0.27226921  1.0
  C  C60  1  0.52746423  0.68998333  0.81923504  1.0
  C  C61  1  0.47825501  0.81220665  0.68160498  1.0
  C  C62  1  0.64632786  0.72493639  0.77551420  1.0
  C  C63  1  0.35628240  0.77702769  0.72601032  1.0
  C  C64  1  0.62138791  0.78489608  0.70925544  1.0
  C  C65  1  0.38181529  0.71855818  0.79283325  1.0
  C  C66  1  0.81555222  0.72852386  0.76897770  1.0
  C  C67  1  0.78718638  0.79751398  0.69527956  1.0
  C  C68  1  0.77898391  0.82110803  0.28089411  1.0
  C  C69  1  0.82837088  0.17048618  0.74885579  1.0
  C  C70  1  0.78344197  0.18526633  0.33311563  1.0
  C  C71  1  0.19452129  0.80061527  0.70611863  1.0
  O  O72  1  0.33272298  0.91622279  0.59307924  1.0
  O  O73  1  0.58564699  0.89437498  0.57668887  1.0
  O  O74  1  0.65348416  0.89768712  0.40843194  1.0
  O  O75  1  0.39917152  0.90663914  0.42398186  1.0
  O  O76  1  0.59795724  0.10160407  0.42630009  1.0
  O  O77  1  0.34336832  0.11222642  0.41753675  1.0
  O  O78  1  0.43887065  0.10643998  0.58377392  1.0
  O  O79  1  0.68976715  0.08577444  0.59060962  1.0
  O  O80  1  0.67225150  0.40190450  0.08977405  1.0
  O  O81  1  0.41710653  0.40516728  0.08264678  1.0
  O  O82  1  0.31818795  0.60717837  0.08696192  1.0
  O  O83  1  0.57303394  0.60474835  0.07757102  1.0
  O  O84  1  0.41970384  0.60307451  0.92262167  1.0
  O  O85  1  0.67441082  0.59477156  0.91262218  1.0
  O  O86  1  0.57539326  0.39864124  0.92727236  1.0
  O  O87  1  0.32194980  0.40637329  0.91526760  1.0
  O  O88  1  0.86480141  0.75509639  0.32364901  1.0
  O  O89  1  0.83315332  0.89470291  0.25435085  1.0
  O  O90  1  0.89355211  0.12783421  0.68549274  1.0
  O  O91  1  0.90330025  0.18526042  0.80747337  1.0
  O  O92  1  0.85449652  0.09724223  0.31569679  1.0
  O  O93  1  0.84435853  0.24321179  0.37531988  1.0
  O  O94  1  0.14281588  0.75640900  0.63988097  1.0
  O  O95  1  0.10888831  0.84954984  0.74806421  1.0
