# generated using pymatgen
data_ZnH8C23NO4F5
_symmetry_space_group_name_H-M   'P 1'
_cell_length_a   16.51989682
_cell_length_b   17.94288714
_cell_length_c   33.19873576
_cell_angle_alpha   90.26275138
_cell_angle_beta   89.65136968
_cell_angle_gamma   89.98430994
_symmetry_Int_Tables_number   1
_chemical_formula_structural   ZnH8C23NO4F5
_chemical_formula_sum   'Zn4 H32 C92 N4 O16 F20'
_cell_volume   9840.30535816
_cell_formula_units_Z   4
loop_
 _symmetry_equiv_pos_site_id
 _symmetry_equiv_pos_as_xyz
  1  'x, y, z'
loop_
 _atom_site_type_symbol
 _atom_site_label
 _atom_site_symmetry_multiplicity
 _atom_site_fract_x
 _atom_site_fract_y
 _atom_site_fract_z
 _atom_site_occupancy
  Zn  Zn0  1  0.58304376  0.49993352  0.50080644  1.0
  Zn  Zn1  1  0.41604425  0.49990688  0.50113496  1.0
  Zn  Zn2  1  0.41699388  0.50220522  0.96127709  1.0
  Zn  Zn3  1  0.58390124  0.50209812  0.96100779  1.0
  H  H4  1  0.28609117  0.58190839  0.54505252  1.0
  H  H5  1  0.28775317  0.41815065  0.45551313  1.0
  H  H6  1  0.71219447  0.58220858  0.54502640  1.0
  H  H7  1  0.71264764  0.41800822  0.45570843  1.0
  H  H8  1  0.63071834  0.73840414  0.50020405  1.0
  H  H9  1  0.36938677  0.73839891  0.50006572  1.0
  H  H10  1  0.63087380  0.26130912  0.49992071  1.0
  H  H11  1  0.36954473  0.26170799  0.49986705  1.0
  H  H12  1  0.36795871  0.50048937  0.63011326  1.0
  H  H13  1  0.29462837  0.50068221  0.69483272  1.0
  H  H14  1  0.62639443  0.50003967  0.62685351  1.0
  H  H15  1  0.63232000  0.50134178  0.83197567  1.0
  H  H16  1  0.70558499  0.50098563  0.76727223  1.0
  H  H17  1  0.37387409  0.50143090  0.83526231  1.0
  H  H18  1  0.36904262  0.50237860  0.09010711  1.0
  H  H19  1  0.63044793  0.50241240  0.08945044  1.0
  H  H20  1  0.36941825  0.50029819  0.37268202  1.0
  H  H21  1  0.63082083  0.50055096  0.37191501  1.0
  H  H22  1  0.71346824  0.58413149  0.91742070  1.0
  H  H23  1  0.71251930  0.42076809  0.00635293  1.0
  H  H24  1  0.28799559  0.58437256  0.91739644  1.0
  H  H25  1  0.28722704  0.42051136  0.00607562  1.0
  H  H26  1  0.36923618  0.74093002  0.96124750  1.0
  H  H27  1  0.63057782  0.74059024  0.96133200  1.0
  H  H28  1  0.36923673  0.26367713  0.96179126  1.0
  H  H29  1  0.63055307  0.26386397  0.96176347  1.0
  H  H30  1  0.23275201  0.45162148  0.76558534  1.0
  H  H31  1  0.27300119  0.50128103  0.80699423  1.0
  H  H32  1  0.23257810  0.55029770  0.76561974  1.0
  H  H33  1  0.76748089  0.45110086  0.69636322  1.0
  H  H34  1  0.72710514  0.50035112  0.65508527  1.0
  H  H35  1  0.76755645  0.54978613  0.69654231  1.0
  C  C36  1  0.50014704  0.64639783  0.50097354  1.0
  C  C37  1  0.49736002  0.50069198  0.57979335  1.0
  C  C38  1  0.50037042  0.35350905  0.49974205  1.0
  C  C39  1  0.50001900  0.49949634  0.42196843  1.0
  C  C40  1  0.49972583  0.64869533  0.96105139  1.0
  C  C41  1  0.50294461  0.50232685  0.88231636  1.0
  C  C42  1  0.49975472  0.35572410  0.96200846  1.0
  C  C43  1  0.49992859  0.50187164  0.04011556  1.0
  C  C44  1  0.25074333  0.54596625  0.52528643  1.0
  C  C45  1  0.16681556  0.54688004  0.52557439  1.0
  C  C46  1  0.12152458  0.50014689  0.49996218  1.0
  C  C47  1  0.16776780  0.45339443  0.47448389  1.0
  C  C48  1  0.25169787  0.45419996  0.47513007  1.0
  C  C49  1  0.03650476  0.50009833  0.49990050  1.0
  C  C50  1  0.96283600  0.50006645  0.49993802  1.0
  C  C51  1  0.87781793  0.50009546  0.50004881  1.0
  C  C52  1  0.83189686  0.54686588  0.52565449  1.0
  C  C53  1  0.74796980  0.54603713  0.52534560  1.0
  C  C54  1  0.74820251  0.45413421  0.47528293  1.0
  C  C55  1  0.83214982  0.45333893  0.47460573  1.0
  C  C56  1  0.50006185  0.72998465  0.50047575  1.0
  C  C57  1  0.57368463  0.76873358  0.50028412  1.0
  C  C58  1  0.57236153  0.84574830  0.50008063  1.0
  C  C59  1  0.50000412  0.88770351  0.50001192  1.0
  C  C60  1  0.42768470  0.84572833  0.49999601  1.0
  C  C61  1  0.42640180  0.76871201  0.50020621  1.0
  C  C62  1  0.49995456  0.96598816  0.49997406  1.0
  C  C63  1  0.49990587  0.03392042  0.49998447  1.0
  C  C64  1  0.49998477  0.11220173  0.49991500  1.0
  C  C65  1  0.57239094  0.15405541  0.49989851  1.0
  C  C66  1  0.57381085  0.23106457  0.49979464  1.0
  C  C67  1  0.50023238  0.26991912  0.49970957  1.0
  C  C68  1  0.42652409  0.23129550  0.49976311  1.0
  C  C69  1  0.42771080  0.15427288  0.49985541  1.0
  C  C70  1  0.42494685  0.50068934  0.64648700  1.0
  C  C71  1  0.42505479  0.50076363  0.68873079  1.0
  C  C72  1  0.35141480  0.50080767  0.71158082  1.0
  C  C73  1  0.57169665  0.50044980  0.64521598  1.0
  C  C74  1  0.57541607  0.50059107  0.68743633  1.0
  C  C75  1  0.65105646  0.50061351  0.70923943  1.0
  C  C76  1  0.57530739  0.50154309  0.81561466  1.0
  C  C77  1  0.57517298  0.50117675  0.77336783  1.0
  C  C78  1  0.64881247  0.50090476  0.75051999  1.0
  C  C79  1  0.42855160  0.50159426  0.81689579  1.0
  C  C80  1  0.42479898  0.50123953  0.77467893  1.0
  C  C81  1  0.34916176  0.50101811  0.75286543  1.0
  C  C82  1  0.49775347  0.50064583  0.62489752  1.0
  C  C83  1  0.50049921  0.50082012  0.70966387  1.0
  C  C84  1  0.50251331  0.50187251  0.83720749  1.0
  C  C85  1  0.49971462  0.50109964  0.75244077  1.0
  C  C86  1  0.49975288  0.50196361  0.08523872  1.0
  C  C87  1  0.42604855  0.50199944  0.10633669  1.0
  C  C88  1  0.42726551  0.50179270  0.14795246  1.0
  C  C89  1  0.49960392  0.50163766  0.17040281  1.0
  C  C90  1  0.57202152  0.50178680  0.14757961  1.0
  C  C91  1  0.57338813  0.50199346  0.10596470  1.0
  C  C92  1  0.49965981  0.50141713  0.21268579  1.0
  C  C93  1  0.50000508  0.50116075  0.24938955  1.0
  C  C94  1  0.50011854  0.50080314  0.29167630  1.0
  C  C95  1  0.42774506  0.50056317  0.31452782  1.0
  C  C96  1  0.42644997  0.50018376  0.35614398  1.0
  C  C97  1  0.50012059  0.49996837  0.37683498  1.0
  C  C98  1  0.57379212  0.50032599  0.35571209  1.0
  C  C99  1  0.57249757  0.50070270  0.31410019  1.0
  C  C100  1  0.74898498  0.54840052  0.93706051  1.0
  C  C101  1  0.83290623  0.54955943  0.93676473  1.0
  C  C102  1  0.87843421  0.50304411  0.96217787  1.0
  C  C103  1  0.83236387  0.45626665  0.98748128  1.0
  C  C104  1  0.74842390  0.45683216  0.98686089  1.0
  C  C105  1  0.96346199  0.50315005  0.96220472  1.0
  C  C106  1  0.03714466  0.50304094  0.96219336  1.0
  C  C107  1  0.12217545  0.50287429  0.96209849  1.0
  C  C108  1  0.16821122  0.54944547  0.93667779  1.0
  C  C109  1  0.25214423  0.54838987  0.93695849  1.0
  C  C110  1  0.25174284  0.45665764  0.98665122  1.0
  C  C111  1  0.16778417  0.45606461  0.98732823  1.0
  C  C112  1  0.49988991  0.73229418  0.96107812  1.0
  C  C113  1  0.42630683  0.77114655  0.96109335  1.0
  C  C114  1  0.42768886  0.84815297  0.96108564  1.0
  C  C115  1  0.50009177  0.89000334  0.96113151  1.0
  C  C116  1  0.57238704  0.84796171  0.96115527  1.0
  C  C117  1  0.57357956  0.77094239  0.96114938  1.0
  C  C118  1  0.50016037  0.96828808  0.96122804  1.0
  C  C119  1  0.50013908  0.03622320  0.96135919  1.0
  C  C120  1  0.50006380  0.11449739  0.96156895  1.0
  C  C121  1  0.42765924  0.15637855  0.96165740  1.0
  C  C122  1  0.42628617  0.23338457  0.96187209  1.0
  C  C123  1  0.49988000  0.27216319  0.96197428  1.0
  C  C124  1  0.57357898  0.23349192  0.96185500  1.0
  C  C125  1  0.57237083  0.15647874  0.96166051  1.0
  C  C126  1  0.26815099  0.50107275  0.77413462  1.0
  C  C127  1  0.73203412  0.50045853  0.68793815  1.0
  N  N128  1  0.29123722  0.50001333  0.50031041  1.0
  N  N129  1  0.70801374  0.50003489  0.50042204  1.0
  N  N130  1  0.70868007  0.50243253  0.96186414  1.0
  N  N131  1  0.29202304  0.50237975  0.96169134  1.0
  O  O132  1  0.56893979  0.61429388  0.50104825  1.0
  O  O133  1  0.43147153  0.61416169  0.50124663  1.0
  O  O134  1  0.42869059  0.50080755  0.56242240  1.0
  O  O135  1  0.56594073  0.50053878  0.56184492  1.0
  O  O136  1  0.43169183  0.38577931  0.50003919  1.0
  O  O137  1  0.56916566  0.38558139  0.49952676  1.0
  O  O138  1  0.56868635  0.49949106  0.43922879  1.0
  O  O139  1  0.43124935  0.49922962  0.43950663  1.0
  O  O140  1  0.43091723  0.61665077  0.96110803  1.0
  O  O141  1  0.56837734  0.61638398  0.96104368  1.0
  O  O142  1  0.57161197  0.50268055  0.89968779  1.0
  O  O143  1  0.43436583  0.50225657  0.90026698  1.0
  O  O144  1  0.56842784  0.38795634  0.96173024  1.0
  O  O145  1  0.43096442  0.38783603  0.96225487  1.0
  O  O146  1  0.43129152  0.50203463  0.02282628  1.0
  O  O147  1  0.56872384  0.50162786  0.02260383  1.0
  F  F148  1  0.12915394  0.40701430  0.44907918  1.0
  F  F149  1  0.12723848  0.59327471  0.55088987  1.0
  F  F150  1  0.87132597  0.40695527  0.44917546  1.0
  F  F151  1  0.87086944  0.59324658  0.55096566  1.0
  F  F152  1  0.35665979  0.88369937  0.49980499  1.0
  F  F153  1  0.64337174  0.88371766  0.49998278  1.0
  F  F154  1  0.35663100  0.11641831  0.49992988  1.0
  F  F155  1  0.64334531  0.11597620  0.50002557  1.0
  F  F156  1  0.64296629  0.50171284  0.16792789  1.0
  F  F157  1  0.35623404  0.50170452  0.16865623  1.0
  F  F158  1  0.64348486  0.50101156  0.29335968  1.0
  F  F159  1  0.35676198  0.50073133  0.29421357  1.0
  F  F160  1  0.87114019  0.41007828  0.01270518  1.0
  F  F161  1  0.87222854  0.59597681  0.91160637  1.0
  F  F162  1  0.12853815  0.40979668  0.01255028  1.0
  F  F163  1  0.12936094  0.59584681  0.91154456  1.0
  F  F164  1  0.64345733  0.88583807  0.96119654  1.0
  F  F165  1  0.35670694  0.88619711  0.96104742  1.0
  F  F166  1  0.64343098  0.11854317  0.96148224  1.0
  F  F167  1  0.35668770  0.11835107  0.96145231  1.0
