# generated using pymatgen
data_AlH6C19N(Cl3O5)2
_symmetry_space_group_name_H-M   'P 1'
_cell_length_a   6.85903964
_cell_length_b   25.19517744
_cell_length_c   28.80149769
_cell_angle_alpha   90.53557800
_cell_angle_beta   90.96734873
_cell_angle_gamma   90.14321290
_symmetry_Int_Tables_number   1
_chemical_formula_structural   AlH6C19N(Cl3O5)2
_chemical_formula_sum   'Al4 H24 C76 N4 Cl24 O40'
_cell_volume   4976.37840842
_cell_formula_units_Z   4
loop_
 _symmetry_equiv_pos_site_id
 _symmetry_equiv_pos_as_xyz
  1  'x, y, z'
loop_
 _atom_site_type_symbol
 _atom_site_label
 _atom_site_symmetry_multiplicity
 _atom_site_fract_x
 _atom_site_fract_y
 _atom_site_fract_z
 _atom_site_occupancy
  Al  Al0  1  0.77971005  0.25194449  0.25302850  1.0
  Al  Al1  1  0.21262059  0.74640895  0.74816020  1.0
  Al  Al2  1  0.27830793  0.25032557  0.25257024  1.0
  Al  Al3  1  0.71491886  0.74482863  0.74650798  1.0
  H  H4  1  0.67181394  0.89266053  0.51097482  1.0
  H  H5  1  0.24290829  0.09034971  0.47624081  1.0
  H  H6  1  0.72396473  0.09330883  0.54459645  1.0
  H  H7  1  0.23480671  0.89971445  0.45225252  1.0
  H  H8  1  0.87100152  0.81357965  0.90471709  1.0
  H  H9  1  0.13355799  0.18099669  0.09298716  1.0
  H  H10  1  0.19341140  0.97726233  0.92234791  1.0
  H  H11  1  0.93062852  0.05657079  0.07860781  1.0
  H  H12  1  0.09653779  0.91704729  0.83650795  1.0
  H  H13  1  0.91286002  0.08299251  0.16163995  1.0
  H  H14  1  0.35773108  0.33842348  0.32951843  1.0
  H  H15  1  0.65428401  0.65875664  0.66495167  1.0
  H  H16  1  0.71665311  0.30788828  0.15583725  1.0
  H  H17  1  0.28299522  0.69406373  0.84698047  1.0
  H  H18  1  0.61629429  0.36576046  0.06620236  1.0
  H  H19  1  0.39541505  0.63218591  0.93643579  1.0
  H  H20  1  0.40669689  0.45343430  0.07309934  1.0
  H  H21  1  0.56093955  0.55220843  0.88150768  1.0
  H  H22  1  0.44069477  0.41304948  0.15915444  1.0
  H  H23  1  0.65426022  0.64398922  0.81161062  1.0
  H  H24  1  0.52035890  0.31879096  0.23768088  1.0
  H  H25  1  0.45175764  0.67704085  0.73344989  1.0
  H  H26  1  0.02452021  0.18109978  0.25780654  1.0
  H  H27  1  0.96137082  0.81300378  0.76115035  1.0
  C  C28  1  0.53561531  0.18944498  0.31503022  1.0
  C  C29  1  0.45596712  0.80668195  0.68473222  1.0
  C  C30  1  0.52256423  0.18825065  0.18994476  1.0
  C  C31  1  0.47519209  0.80845798  0.80955796  1.0
  C  C32  1  0.02787374  0.31463454  0.19042666  1.0
  C  C33  1  0.97034527  0.68317653  0.81183901  1.0
  C  C34  1  0.03728277  0.31287624  0.31760613  1.0
  C  C35  1  0.96495556  0.68422992  0.68234355  1.0
  C  C36  1  0.86066334  0.36018381  0.38169248  1.0
  C  C37  1  0.16074056  0.63941488  0.62042682  1.0
  C  C38  1  0.85714018  0.40837096  0.40719065  1.0
  C  C39  1  0.17487187  0.59128602  0.59509878  1.0
  C  C40  1  0.03056066  0.42301454  0.43085588  1.0
  C  C41  1  0.00865455  0.57499914  0.56933859  1.0
  C  C42  1  0.20438937  0.39700061  0.42034921  1.0
  C  C43  1  0.82942198  0.59943278  0.57731574  1.0
  C  C44  1  0.21198859  0.37044084  0.37676456  1.0
  C  C45  1  0.81007257  0.62679434  0.62013932  1.0
  C  C46  1  0.03634456  0.34727302  0.35937134  1.0
  C  C47  1  0.97833439  0.65111126  0.64013264  1.0
  C  C48  1  0.02175820  0.53324320  0.53324497  1.0
  C  C49  1  0.02822579  0.46284780  0.46864739  1.0
  C  C50  1  0.86842551  0.35585991  0.12120412  1.0
  C  C51  1  0.13545088  0.64566075  0.88198414  1.0
  C  C52  1  0.86816746  0.39054442  0.08353362  1.0
  C  C53  1  0.13854210  0.61022862  0.91899346  1.0
  C  C54  1  0.02727210  0.42418133  0.07626977  1.0
  C  C55  1  0.98111215  0.57574960  0.92590465  1.0
  C  C56  1  0.18947969  0.42090852  0.10643614  1.0
  C  C57  1  0.81687657  0.57785835  0.89633913  1.0
  C  C58  1  0.19343035  0.38583029  0.14395788  1.0
  C  C59  1  0.80887820  0.61424684  0.85992527  1.0
  C  C60  1  0.03098582  0.35253940  0.15204675  1.0
  C  C61  1  0.97024394  0.64805072  0.85168890  1.0
  C  C62  1  0.12757713  0.45622875  0.99767773  1.0
  C  C63  1  0.88404842  0.54441737  0.00480481  1.0
  C  C64  1  0.11212134  0.49207066  0.96075212  1.0
  C  C65  1  0.89638333  0.50786308  0.04124981  1.0
  C  C66  1  0.99133762  0.53684240  0.96416432  1.0
  C  C67  1  0.01846479  0.46324691  0.03807354  1.0
  C  C68  1  0.56692044  0.83633886  0.60585063  1.0
  C  C69  1  0.39140338  0.15452961  0.38885122  1.0
  C  C70  1  0.56877314  0.87341527  0.56965092  1.0
  C  C71  1  0.37833717  0.11579395  0.42352238  1.0
  C  C72  1  0.45329230  0.91930252  0.57242057  1.0
  C  C73  1  0.51131087  0.07357024  0.42463579  1.0
  C  C74  1  0.33539426  0.92743528  0.61118398  1.0
  C  C75  1  0.65595733  0.07016145  0.39098797  1.0
  C  C76  1  0.33702779  0.89129758  0.64791549  1.0
  C  C77  1  0.66597047  0.10760960  0.35533318  1.0
  C  C78  1  0.45323086  0.84534313  0.64519171  1.0
  C  C79  1  0.53273202  0.15020653  0.35411916  1.0
  C  C80  1  0.56585687  0.00697911  0.54138923  1.0
  C  C81  1  0.39719104  0.98552866  0.45524989  1.0
  C  C82  1  0.58051110  0.04477119  0.50607615  1.0
  C  C83  1  0.37911863  0.94813002  0.49086161  1.0
  C  C84  1  0.49554357  0.03390239  0.46213393  1.0
  C  C85  1  0.46520508  0.95881983  0.53474359  1.0
  C  C86  1  0.63878447  0.84576149  0.88210955  1.0
  C  C87  1  0.37031945  0.15103417  0.11562258  1.0
  C  C88  1  0.64335095  0.88273249  0.91881145  1.0
  C  C89  1  0.37224926  0.11414326  0.07871605  1.0
  C  C90  1  0.49725354  0.92099648  0.92417232  1.0
  C  C91  1  0.52581172  0.07841886  0.07251131  1.0
  C  C92  1  0.34231463  0.92135426  0.89230138  1.0
  C  C93  1  0.68210117  0.08043384  0.10397409  1.0
  C  C94  1  0.33207464  0.88441774  0.85534142  1.0
  C  C95  1  0.68102480  0.11557203  0.14240790  1.0
  C  C96  1  0.48138168  0.84661358  0.84936489  1.0
  C  C97  1  0.52534133  0.15136552  0.14889265  1.0
  C  C98  1  0.61012959  0.00868907  0.95679275  1.0
  C  C99  1  0.41648128  0.99059064  0.04011012  1.0
  C  C100  1  0.61616926  0.04698814  0.99257463  1.0
  C  C101  1  0.41023048  0.95218007  0.00436106  1.0
  C  C102  1  0.52008907  0.03822618  0.03448984  1.0
  C  C103  1  0.50606557  0.96104121  0.96230416  1.0
  N  N104  1  0.16571155  0.50141407  0.46788189  1.0
  N  N105  1  0.89149732  0.49304575  0.53554679  1.0
  N  N106  1  0.16207787  0.53778405  0.50121560  1.0
  N  N107  1  0.89479123  0.45674576  0.50220392  1.0
  Cl  Cl108  1  0.68635924  0.31230119  0.38636183  1.0
  Cl  Cl109  1  0.33049191  0.68899484  0.61874517  1.0
  Cl  Cl110  1  0.23693999  0.48032321  0.91047225  1.0
  Cl  Cl111  1  0.76399743  0.51810495  0.09068865  1.0
  Cl  Cl112  1  0.70472596  0.77994686  0.59917293  1.0
  Cl  Cl113  1  0.23270671  0.20699645  0.39231906  1.0
  Cl  Cl114  1  0.18733478  0.98252539  0.61289189  1.0
  Cl  Cl115  1  0.82196390  0.01905883  0.39442367  1.0
  Cl  Cl116  1  0.20537997  0.90537680  0.69694405  1.0
  Cl  Cl117  1  0.83518737  0.09818546  0.31242552  1.0
  Cl  Cl118  1  0.67912342  0.02185657  0.59398363  1.0
  Cl  Cl119  1  0.29532320  0.96947564  0.40160616  1.0
  Cl  Cl120  1  0.83724677  0.88038877  0.95817828  1.0
  Cl  Cl121  1  0.17377854  0.11343154  0.04001054  1.0
  Cl  Cl122  1  0.66575745  0.45176140  0.40599216  1.0
  Cl  Cl123  1  0.36764523  0.54869930  0.59962344  1.0
  Cl  Cl124  1  0.73143839  0.01936932  0.90600771  1.0
  Cl  Cl125  1  0.29591765  0.97976965  0.09091439  1.0
  Cl  Cl126  1  0.73750358  0.10599957  0.98485862  1.0
  Cl  Cl127  1  0.29017195  0.89315177  0.01219827  1.0
  Cl  Cl128  1  0.38057485  0.38952350  0.46278030  1.0
  Cl  Cl129  1  0.65340554  0.60063854  0.53440937  1.0
  Cl  Cl130  1  0.28140482  0.40233096  0.99343204  1.0
  Cl  Cl131  1  0.73898059  0.59956911  0.01014822  1.0
  O  O132  1  0.35617325  0.20272704  0.20408865  1.0
  O  O133  1  0.63769257  0.79145013  0.79485820  1.0
  O  O134  1  0.69931506  0.20816659  0.30359046  1.0
  O  O135  1  0.29144552  0.78996915  0.69776215  1.0
  O  O136  1  0.87673884  0.30273104  0.29689769  1.0
  O  O137  1  0.12024868  0.69469109  0.70520415  1.0
  O  O138  1  0.68754221  0.20143702  0.20740120  1.0
  O  O139  1  0.30790382  0.79584674  0.79297444  1.0
  O  O140  1  0.85792134  0.29663691  0.20218935  1.0
  O  O141  1  0.13496228  0.70326077  0.79988235  1.0
  O  O142  1  0.37100475  0.19963529  0.29639938  1.0
  O  O143  1  0.62259511  0.79513204  0.70159403  1.0
  O  O144  1  0.52829151  0.28421428  0.25229408  1.0
  O  O145  1  0.46333769  0.71184488  0.74797306  1.0
  O  O146  1  0.18728389  0.30127771  0.20972873  1.0
  O  O147  1  0.80769677  0.69166147  0.78988088  1.0
  O  O148  1  0.20603889  0.29746169  0.30318336  1.0
  O  O149  1  0.79267176  0.69857973  0.69570364  1.0
  O  O150  1  0.02752181  0.21918975  0.25342889  1.0
  O  O151  1  0.96276868  0.77756894  0.74762019  1.0
  O  O152  1  0.68601898  0.86361099  0.53306599  1.0
  O  O153  1  0.23525339  0.12066401  0.45530736  1.0
  O  O154  1  0.67742730  0.09144093  0.51222981  1.0
  O  O155  1  0.28026181  0.90165588  0.48469781  1.0
  O  O156  1  0.78016476  0.80858549  0.87835191  1.0
  O  O157  1  0.22378285  0.18652747  0.11934956  1.0
  O  O158  1  0.19149826  0.95739208  0.89314575  1.0
  O  O159  1  0.83732342  0.04504591  0.10194013  1.0
  O  O160  1  0.17744955  0.88772627  0.82533635  1.0
  O  O161  1  0.83182661  0.11235346  0.17312242  1.0
  O  O162  1  0.37851457  0.36651192  0.35412993  1.0
  O  O163  1  0.63855975  0.63029633  0.64059051  1.0
  O  O164  1  0.70425253  0.32578455  0.12506559  1.0
  O  O165  1  0.29610536  0.67720379  0.87798966  1.0
  O  O166  1  0.70814887  0.39197707  0.05428717  1.0
  O  O167  1  0.29634818  0.60829503  0.94859692  1.0
  O  O168  1  0.35016063  0.45412553  0.10403457  1.0
  O  O169  1  0.66610877  0.54352538  0.90344963  1.0
  O  O170  1  0.35330045  0.38652680  0.17268417  1.0
  O  O171  1  0.64371403  0.61333323  0.83294654  1.0
