# generated using pymatgen
data_LaH14(C11O4)2
_symmetry_space_group_name_H-M   'P 1'
_cell_length_a   8.75115840
_cell_length_b   14.31114199
_cell_length_c   14.35553579
_cell_angle_alpha   112.44213891
_cell_angle_beta   89.99184047
_cell_angle_gamma   107.80918618
_symmetry_Int_Tables_number   1
_chemical_formula_structural   LaH14(C11O4)2
_chemical_formula_sum   'La2 H28 C44 O16'
_cell_volume   1568.13058265
_cell_formula_units_Z   2
loop_
 _symmetry_equiv_pos_site_id
 _symmetry_equiv_pos_as_xyz
  1  'x, y, z'
loop_
 _atom_site_type_symbol
 _atom_site_label
 _atom_site_symmetry_multiplicity
 _atom_site_fract_x
 _atom_site_fract_y
 _atom_site_fract_z
 _atom_site_occupancy
  La  La0  1  0.05067188  0.55034343  0.00338099  1.0
  La  La1  1  0.50026002  0.44971319  0.99665297  1.0
  H  H2  1  0.21543840  0.67334363  0.79395708  1.0
  H  H3  1  0.54177012  0.32618975  0.20585251  1.0
  H  H4  1  0.21468480  0.69026843  0.62789259  1.0
  H  H5  1  0.52396833  0.30938961  0.37192115  1.0
  H  H6  1  0.57978403  0.53737436  0.55116153  1.0
  H  H7  1  0.04187572  0.46264096  0.44884722  1.0
  H  H8  1  0.57773506  0.52071503  0.71634099  1.0
  H  H9  1  0.05658559  0.47915475  0.28360907  1.0
  H  H10  1  0.32688605  0.76423638  0.52636327  1.0
  H  H11  1  0.56231781  0.23568683  0.47377491  1.0
  H  H12  1  0.28208646  0.75758009  0.35295776  1.0
  H  H13  1  0.52435446  0.24236918  0.64721674  1.0
  H  H14  1  0.40749705  0.47025460  0.22704668  1.0
  H  H15  1  0.93675561  0.52990631  0.77295937  1.0
  H  H16  1  0.44726547  0.47372746  0.39822457  1.0
  H  H17  1  0.97290789  0.52640972  0.60175985  1.0
  H  H18  1  0.81621836  0.22184352  0.72355511  1.0
  H  H19  1  0.59478031  0.77822656  0.27645644  1.0
  H  H20  1  0.73890627  0.06843661  0.55767162  1.0
  H  H21  1  0.67051666  0.93158458  0.44237740  1.0
  H  H22  1  0.22307448  0.05221858  0.57083279  1.0
  H  H23  1  0.17114664  0.94817509  0.42941665  1.0
  H  H24  1  0.29867506  0.20867611  0.73594847  1.0
  H  H25  1  0.09044985  0.79161860  0.26434097  1.0
  H  H26  1  0.76146006  0.65815272  0.89756389  1.0
  H  H27  1  0.10365296  0.34180391  0.10178876  1.0
  H  H28  1  0.96571421  0.85296222  0.04809114  1.0
  H  H29  1  0.11292276  0.14666279  0.95170092  1.0
  C  C30  1  0.38838033  0.58051054  0.86305697  1.0
  C  C31  1  0.80753167  0.41938974  0.13688409  1.0
  C  C32  1  0.39615321  0.59581144  0.76552072  1.0
  C  C33  1  0.79997309  0.40394584  0.23435446  1.0
  C  C34  1  0.29534824  0.64450951  0.74017780  1.0
  C  C35  1  0.65048686  0.35514228  0.25965917  1.0
  C  C36  1  0.29624281  0.65414778  0.64740381  1.0
  C  C37  1  0.64166635  0.34555590  0.35245614  1.0
  C  C38  1  0.39623829  0.61434757  0.57657446  1.0
  C  C39  1  0.78136278  0.38557218  0.42340297  1.0
  C  C40  1  0.49873149  0.56711392  0.60350764  1.0
  C  C41  1  0.93109682  0.43284433  0.39648906  1.0
  C  C42  1  0.49919314  0.55841114  0.69675883  1.0
  C  C43  1  0.94032400  0.44142246  0.30317618  1.0
  C  C44  1  0.38698847  0.61807635  0.47539211  1.0
  C  C45  1  0.76842337  0.38193386  0.52464143  1.0
  C  C46  1  0.34329840  0.69892316  0.46085349  1.0
  C  C47  1  0.64406727  0.30102980  0.53923858  1.0
  C  C48  1  0.31990210  0.69637341  0.36408807  1.0
  C  C49  1  0.62328330  0.30359734  0.63601996  1.0
  C  C50  1  0.34065390  0.61339016  0.27857198  1.0
  C  C51  1  0.72699788  0.38663945  0.72149959  1.0
  C  C52  1  0.39103733  0.53520898  0.29270272  1.0
  C  C53  1  0.85533951  0.46493011  0.70733952  1.0
  C  C54  1  0.41362097  0.53753321  0.38955093  1.0
  C  C55  1  0.87552234  0.46259707  0.61046853  1.0
  C  C56  1  0.29633358  0.60560377  0.17495733  1.0
  C  C57  1  0.69053964  0.39439498  0.82514910  1.0
  C  C58  1  0.10959229  0.32036106  0.83896823  1.0
  C  C59  1  0.78999689  0.67982645  0.16120015  1.0
  C  C60  1  0.06216509  0.22519420  0.73995213  1.0
  C  C61  1  0.83747099  0.77505633  0.26020696  1.0
  C  C62  1  0.90450064  0.18417767  0.68900758  1.0
  C  C63  1  0.72069147  0.81600759  0.31107462  1.0
  C  C64  1  0.86195329  0.09701365  0.59570949  1.0
  C  C65  1  0.76514076  0.90315413  0.40438562  1.0
  C  C66  1  0.97428196  0.04674322  0.54979409  1.0
  C  C67  1  0.92772650  0.95356124  0.45033221  1.0
  C  C68  1  0.13220607  0.08878625  0.60268093  1.0
  C  C69  1  0.04374174  0.91158746  0.39751832  1.0
  C  C70  1  0.17588187  0.17625880  0.69595234  1.0
  C  C71  1  0.00006381  0.82405575  0.30428968  1.0
  C  C72  1  0.87802501  0.71558553  0.94272538  1.0
  C  C73  1  0.16269146  0.28421927  0.05679735  1.0
  O  O74  1  0.26976022  0.59500627  0.91138987  1.0
  O  O75  1  0.67443161  0.40510214  0.08869419  1.0
  O  O76  1  0.49875348  0.55283230  0.89212061  1.0
  O  O77  1  0.94557539  0.44701832  0.10777385  1.0
  O  O78  1  0.29592559  0.52224950  0.09593113  1.0
  O  O79  1  0.77353432  0.47775255  0.90414654  1.0
  O  O80  1  0.24644208  0.67648551  0.16582094  1.0
  O  O81  1  0.56970768  0.32352442  0.83431197  1.0
  O  O82  1  0.01110007  0.37164815  0.87029431  1.0
  O  O83  1  0.64028700  0.62833679  0.12984745  1.0
  O  O84  1  0.24802140  0.34561989  0.88774544  1.0
  O  O85  1  0.90334250  0.65477227  0.11246162  1.0
  O  O86  1  0.00725855  0.69785748  0.93838118  1.0
  O  O87  1  0.30961732  0.30181838  0.06129575  1.0
  O  O88  1  0.86141044  0.80804681  0.00500255  1.0
  O  O89  1  0.05358663  0.19171862  0.99463351  1.0
