# generated using pymatgen
data_Zr3H32(C21O8)2
_symmetry_space_group_name_H-M   'P 1'
_cell_length_a   18.16725994
_cell_length_b   20.44344418
_cell_length_c   20.44980649
_cell_angle_alpha   67.08723265
_cell_angle_beta   87.42317474
_cell_angle_gamma   87.42278818
_symmetry_Int_Tables_number   1
_chemical_formula_structural   Zr3H32(C21O8)2
_chemical_formula_sum   'Zr6 H64 C84 O32'
_cell_volume   6985.63665428
_cell_formula_units_Z   2
loop_
 _symmetry_equiv_pos_site_id
 _symmetry_equiv_pos_as_xyz
  1  'x, y, z'
loop_
 _atom_site_type_symbol
 _atom_site_label
 _atom_site_symmetry_multiplicity
 _atom_site_fract_x
 _atom_site_fract_y
 _atom_site_fract_z
 _atom_site_occupancy
  Zr  Zr0  1  0.09251813  0.90651631  0.09706476  1.0
  Zr  Zr1  1  0.89684257  0.91945222  0.09597945  1.0
  Zr  Zr2  1  0.10155440  0.06446947  0.94191421  1.0
  Zr  Zr3  1  0.90585999  0.07417649  0.93765639  1.0
  Zr  Zr4  1  0.00095898  0.91746075  0.94444180  1.0
  Zr  Zr5  1  0.99749025  0.06485989  0.09182831  1.0
  H  H6  1  0.99885045  0.91457515  0.20204766  1.0
  H  H7  1  0.83781780  0.94107914  0.96872669  1.0
  H  H8  1  0.99772003  0.17512686  0.94174598  1.0
  H  H9  1  0.16279056  0.93416769  0.96082058  1.0
  H  H10  1  0.75585444  0.93936741  0.11693704  1.0
  H  H11  1  0.77035126  0.11904513  0.95436560  1.0
  H  H12  1  0.90240589  0.16970083  0.80772208  1.0
  H  H13  1  0.14190859  0.19727055  0.84445404  1.0
  H  H14  1  0.24189397  0.07817016  0.95624973  1.0
  H  H15  1  0.23900444  0.85554314  0.10955220  1.0
  H  H16  1  0.09734188  0.77686065  0.19319692  1.0
  H  H17  1  0.85781829  0.82007151  0.23095789  1.0
  H  H18  1  0.12192003  0.14671272  0.80595436  1.0
  H  H19  1  0.22624371  0.91951878  0.13459103  1.0
  H  H20  1  0.87909351  0.78396488  0.17639751  1.0
  H  H21  1  0.76086434  0.09203869  0.89239343  1.0
  H  H22  1  0.17897731  0.99268998  0.51134561  1.0
  H  H23  1  0.38413631  0.99160120  0.60889077  1.0
  H  H24  1  0.38403326  0.99418108  0.39714102  1.0
  H  H25  1  0.81821786  0.99537508  0.52046564  1.0
  H  H26  1  0.61607400  0.99379187  0.63901330  1.0
  H  H27  1  0.61045221  0.99310273  0.42880312  1.0
  H  H28  1  0.18025986  0.48513710  0.01711373  1.0
  H  H29  1  0.38531583  0.58015133  0.02162225  1.0
  H  H30  1  0.38508516  0.36971012  0.02063968  1.0
  H  H31  1  0.81881850  0.49262237  0.02475471  1.0
  H  H32  1  0.61702046  0.61300321  0.01952879  1.0
  H  H33  1  0.61089242  0.40101646  0.02336080  1.0
  H  H34  1  0.50224883  0.56829315  0.01713496  1.0
  H  H35  1  0.49718919  0.41504365  0.02506367  1.0
  H  H36  1  0.49576014  0.99584795  0.44304801  1.0
  H  H37  1  0.50189188  0.99003713  0.59538674  1.0
  H  H38  1  0.76158053  0.07832893  0.76359411  1.0
  H  H39  1  0.91333898  0.91831642  0.74670082  1.0
  H  H40  1  0.84563179  0.91749698  0.64341391  1.0
  H  H41  1  0.69171927  0.07613100  0.66254149  1.0
  H  H42  1  0.75010019  0.92125734  0.27804448  1.0
  H  H43  1  0.90275833  0.07000455  0.29021028  1.0
  H  H44  1  0.83816851  0.06905845  0.40077298  1.0
  H  H45  1  0.68472600  0.91989966  0.38816730  1.0
  H  H46  1  0.08761674  0.91778063  0.73903740  1.0
  H  H47  1  0.23708683  0.06742569  0.75452510  1.0
  H  H48  1  0.30761761  0.06662560  0.64732340  1.0
  H  H49  1  0.15668759  0.91727055  0.63101224  1.0
  H  H50  1  0.09036671  0.07289144  0.28187069  1.0
  H  H51  1  0.24468796  0.91460966  0.26519036  1.0
  H  H52  1  0.31028220  0.91373265  0.36984992  1.0
  H  H53  1  0.15450488  0.07151855  0.38788321  1.0
  H  H54  1  0.75074075  0.25069127  0.95063939  1.0
  H  H55  1  0.90144813  0.26062421  0.10191610  1.0
  H  H56  1  0.83735937  0.37159175  0.10062428  1.0
  H  H57  1  0.68551732  0.36070211  0.94946491  1.0
  H  H58  1  0.91788777  0.71575325  0.94701111  1.0
  H  H59  1  0.76271356  0.74082876  0.10070112  1.0
  H  H60  1  0.69139698  0.63978418  0.09951175  1.0
  H  H61  1  0.84840495  0.61327229  0.94673984  1.0
  H  H62  1  0.08798669  0.25883577  0.09330847  1.0
  H  H63  1  0.24716622  0.23721179  0.94099842  1.0
  H  H64  1  0.31338805  0.34136429  0.94089996  1.0
  H  H65  1  0.15297593  0.36400641  0.09300767  1.0
  H  H66  1  0.09382188  0.71625240  0.94117698  1.0
  H  H67  1  0.23622186  0.72227406  0.10038562  1.0
  H  H68  1  0.30580129  0.61511425  0.09896369  1.0
  H  H69  1  0.16152889  0.60744431  0.94066779  1.0
  C  C70  1  0.12012046  0.79058580  0.02159011  1.0
  C  C71  1  0.87014991  0.99510117  0.21218894  1.0
  C  C72  1  0.88581354  0.79513607  0.02519086  1.0
  C  C73  1  0.12514161  0.99427473  0.20393136  1.0
  C  C74  1  0.12441941  0.17912731  0.01719844  1.0
  C  C75  1  0.88188612  0.99886235  0.82333058  1.0
  C  C76  1  0.86928307  0.18321002  0.02602153  1.0
  C  C77  1  0.11639254  0.99455196  0.81677530  1.0
  C  C78  1  0.27694634  0.99251352  0.44755388  1.0
  C  C79  1  0.23911284  0.99256484  0.50874520  1.0
  C  C80  1  0.27758456  0.99253992  0.56693032  1.0
  C  C81  1  0.35470853  0.99275063  0.56312106  1.0
  C  C82  1  0.39423553  0.99291516  0.50227056  1.0
  C  C83  1  0.35413288  0.99264904  0.44520721  1.0
  C  C84  1  0.71808325  0.99384119  0.46768593  1.0
  C  C85  1  0.75813615  0.99489693  0.52449139  1.0
  C  C86  1  0.72188135  0.99546090  0.58617573  1.0
  C  C87  1  0.64467052  0.99471102  0.59055762  1.0
  C  C88  1  0.60304069  0.99318576  0.53492373  1.0
  C  C89  1  0.64107150  0.99282631  0.47356730  1.0
  C  C90  1  0.27809800  0.42074385  0.01792564  1.0
  C  C91  1  0.24034099  0.48196198  0.01807994  1.0
  C  C92  1  0.27887024  0.53934958  0.01975157  1.0
  C  C93  1  0.35588819  0.53493412  0.02132999  1.0
  C  C94  1  0.39537299  0.47427648  0.02096625  1.0
  C  C95  1  0.35526349  0.41777405  0.01930698  1.0
  C  C96  1  0.71856669  0.43985732  0.02361133  1.0
  C  C97  1  0.75875339  0.49695532  0.02381206  1.0
  C  C98  1  0.72273165  0.55936641  0.02288226  1.0
  C  C99  1  0.64551532  0.56406624  0.02163678  1.0
  C  C100  1  0.60378591  0.50793212  0.02134691  1.0
  C  C101  1  0.64161970  0.44601833  0.02229654  1.0
  C  C102  1  0.52358808  0.51630328  0.02013467  1.0
  C  C103  1  0.47555944  0.46686558  0.02226740  1.0
  C  C104  1  0.47443718  0.99363504  0.49476171  1.0
  C  C105  1  0.52285725  0.99214255  0.54360734  1.0
  C  C106  1  0.77904845  0.04267513  0.73740985  1.0
  C  C107  1  0.84157907  0.99836949  0.76141728  1.0
  C  C108  1  0.86522685  0.95327202  0.72712063  1.0
  C  C109  1  0.82729801  0.95308704  0.66955793  1.0
  C  C110  1  0.76378111  0.99659538  0.64600072  1.0
  C  C111  1  0.74016985  0.04125249  0.68101413  1.0
  C  C112  1  0.76874202  0.95361011  0.30531680  1.0
  C  C113  1  0.83047910  0.99551460  0.27760335  1.0
  C  C114  1  0.85514509  0.03706513  0.31249179  1.0
  C  C115  1  0.81908953  0.03602509  0.37434007  1.0
  C  C116  1  0.75687201  0.99436492  0.40234942  1.0
  C  C117  1  0.73217196  0.95338373  0.36658095  1.0
  C  C118  1  0.13523349  0.95100577  0.71769340  1.0
  C  C119  1  0.15737685  0.99388498  0.75215917  1.0
  C  C120  1  0.21981572  0.03521923  0.72651923  1.0
  C  C121  1  0.25932683  0.03394133  0.66716681  1.0
  C  C122  1  0.23662069  0.99243699  0.63115642  1.0
  C  C123  1  0.17393250  0.95100670  0.65742824  1.0
  C  C124  1  0.13851051  0.03810136  0.30185664  1.0
  C  C125  1  0.16428509  0.99454952  0.26650980  1.0
  C  C126  1  0.22624848  0.94976330  0.29164257  1.0
  C  C127  1  0.26255384  0.94935062  0.35017295  1.0
  C  C128  1  0.23718336  0.99288417  0.38591956  1.0
  C  C129  1  0.17423177  0.03684324  0.36115923  1.0
  C  C130  1  0.76844707  0.27688788  0.98429716  1.0
  C  C131  1  0.82951063  0.24843926  0.02691839  1.0
  C  C132  1  0.85410450  0.28317756  0.06866485  1.0
  C  C133  1  0.81843861  0.34533084  0.06736621  1.0
  C  C134  1  0.75682768  0.37396908  0.02501771  1.0
  C  C135  1  0.73227797  0.33845971  0.98373557  1.0
  C  C136  1  0.86887963  0.69776668  0.98111866  1.0
  C  C137  1  0.84513199  0.73341604  0.02494828  1.0
  C  C138  1  0.78104713  0.71208665  0.06755116  1.0
  C  C139  1  0.74116329  0.65620997  0.06611304  1.0
  C  C140  1  0.76516209  0.61925054  0.02333025  1.0
  C  C141  1  0.82988691  0.64069032  0.98113702  1.0
  C  C142  1  0.13709995  0.27790847  0.05973630  1.0
  C  C143  1  0.16361512  0.24182204  0.01712391  1.0
  C  C144  1  0.22721107  0.26527943  0.97429597  1.0
  C  C145  1  0.26418168  0.32316902  0.97472265  1.0
  C  C146  1  0.23789868  0.35982773  0.01711658  1.0
  C  C147  1  0.17341986  0.33661562  0.05915529  1.0
  C  C148  1  0.13985214  0.69303642  0.97605335  1.0
  C  C149  1  0.16081333  0.72571346  0.02093367  1.0
  C  C150  1  0.22080334  0.69709224  0.06504613  1.0
  C  C151  1  0.25953216  0.63729884  0.06402599  1.0
  C  C152  1  0.23831024  0.60362321  0.01987384  1.0
  C  C153  1  0.17771156  0.63232730  0.97612307  1.0
  O  O154  1  0.13564608  0.81210770  0.07016136  1.0
  O  O155  1  0.07322434  0.81997925  0.97348379  1.0
  O  O156  1  0.85294385  0.94766664  0.18970329  1.0
  O  O157  1  0.91876801  0.04172527  0.18391142  1.0
  O  O158  1  0.87567803  0.81251351  0.07843733  1.0
  O  O159  1  0.92666880  0.82763697  0.97051017  1.0
  O  O160  1  0.14924767  0.95221162  0.17494731  1.0
  O  O161  1  0.06828752  0.03563101  0.18458119  1.0
  O  O162  1  0.09398581  0.82459901  0.19259135  1.0
  O  O163  1  0.22390549  0.90555266  0.09356027  1.0
  O  O164  1  0.89741504  0.81368011  0.20002850  1.0
  O  O165  1  0.78608842  0.91563045  0.09196277  1.0
  O  O166  1  0.99834013  0.89337769  0.05209588  1.0
  O  O167  1  0.99611715  0.93845714  0.15077882  1.0
  O  O168  1  0.14329915  0.15603201  0.96885412  1.0
  O  O169  1  0.07466595  0.15342342  0.06538319  1.0
  O  O170  1  0.86450906  0.04834657  0.84528988  1.0
  O  O171  1  0.93029769  0.94954892  0.85010429  1.0
  O  O172  1  0.84682534  0.15520123  0.98503300  1.0
  O  O173  1  0.92507015  0.16082866  0.06562737  1.0
  O  O174  1  0.12471462  0.04719696  0.83409577  1.0
  O  O175  1  0.07693850  0.94098377  0.85125525  1.0
  O  O176  1  0.10249608  0.17000734  0.83750676  1.0
  O  O177  1  0.21261621  0.05543827  0.93300745  1.0
  O  O178  1  0.90501163  0.16923949  0.85518901  1.0
  O  O179  1  0.77450551  0.07702842  0.94176879  1.0
  O  O180  1  0.00064353  0.12368985  0.96541696  1.0
  O  O181  1  0.00140645  0.02495923  0.92054545  1.0
  O  O182  1  0.08051962  0.02009702  0.04953090  1.0
  O  O183  1  0.88477095  0.95542881  0.97898714  1.0
  O  O184  1  0.11536141  0.94679110  0.97729929  1.0
  O  O185  1  0.91645764  0.02617449  0.05077898  1.0
