# generated using pymatgen
data_Zn2H7C24N2O8F7
_symmetry_space_group_name_H-M   'P 1'
_cell_length_a   9.68938568
_cell_length_b   11.07388382
_cell_length_c   29.00603359
_cell_angle_alpha   90.13749075
_cell_angle_beta   89.66415831
_cell_angle_gamma   89.94544058
_symmetry_Int_Tables_number   1
_chemical_formula_structural   Zn2H7C24N2O8F7
_chemical_formula_sum   'Zn4 H14 C48 N4 O16 F14'
_cell_volume   3112.25832701
_cell_formula_units_Z   2
loop_
 _symmetry_equiv_pos_site_id
 _symmetry_equiv_pos_as_xyz
  1  'x, y, z'
loop_
 _atom_site_type_symbol
 _atom_site_label
 _atom_site_symmetry_multiplicity
 _atom_site_fract_x
 _atom_site_fract_y
 _atom_site_fract_z
 _atom_site_occupancy
  Zn  Zn0  1  0.64183680  0.49578004  0.49968466  1.0
  Zn  Zn1  1  0.36021935  0.50337818  0.49971123  1.0
  Zn  Zn2  1  0.35839240  0.49852987  0.11745801  1.0
  Zn  Zn3  1  0.63993998  0.50564478  0.11744725  1.0
  H  H4  1  0.14455172  0.36256585  0.45294999  1.0
  H  H5  1  0.85701337  0.63680186  0.54535838  1.0
  H  H6  1  0.28870243  0.87518196  0.49906920  1.0
  H  H7  1  0.71263798  0.12413350  0.50019958  1.0
  H  H8  1  0.26881531  0.49894462  0.96895824  1.0
  H  H9  1  0.71478053  0.50313591  0.97143359  1.0
  H  H10  1  0.28545246  0.50229707  0.64564945  1.0
  H  H11  1  0.73141259  0.49731811  0.64808410  1.0
  H  H12  1  0.72240242  0.50378323  0.26610103  1.0
  H  H13  1  0.27778942  0.50226064  0.35106885  1.0
  H  H14  1  0.85614090  0.36531088  0.16411810  1.0
  H  H15  1  0.14267519  0.63900827  0.07183779  1.0
  H  H16  1  0.71155616  0.87723195  0.11765643  1.0
  H  H17  1  0.28772711  0.12702560  0.11696248  1.0
  C  C18  1  0.51303158  0.73563734  0.49977035  1.0
  C  C19  1  0.51212630  0.49969224  0.58986970  1.0
  C  C20  1  0.48923736  0.26368969  0.49935753  1.0
  C  C21  1  0.49066906  0.50059103  0.40948413  1.0
  C  C22  1  0.48711987  0.73812013  0.11734862  1.0
  C  C23  1  0.48804864  0.50135968  0.02723054  1.0
  C  C24  1  0.51121821  0.26617012  0.11763397  1.0
  C  C25  1  0.50941855  0.50316458  0.20767659  1.0
  C  C26  1  0.93642435  0.42152664  0.47217999  1.0
  C  C27  1  0.06505494  0.57752954  0.52621061  1.0
  C  C28  1  0.08014159  0.42357324  0.47328246  1.0
  C  C29  1  0.92144820  0.57573578  0.52505030  1.0
  C  C30  1  0.49091596  0.12814215  0.49933198  1.0
  C  C31  1  0.51048831  0.87116425  0.49976019  1.0
  C  C32  1  0.37293101  0.05459262  0.49898906  1.0
  C  C33  1  0.62846878  0.94474991  0.50016658  1.0
  C  C34  1  0.38208317  0.92972404  0.49922673  1.0
  C  C35  1  0.61928682  0.06957876  0.49991133  1.0
  C  C36  1  0.49151461  0.50132073  0.97560768  1.0
  C  C37  1  0.36754278  0.50021910  0.95094084  1.0
  C  C38  1  0.37279128  0.50036575  0.90331628  1.0
  C  C39  1  0.49779335  0.50150074  0.87799171  1.0
  C  C40  1  0.61947770  0.50237806  0.90460009  1.0
  C  C41  1  0.61858413  0.50237969  0.95227493  1.0
  C  C42  1  0.50010681  0.50151054  0.82955127  1.0
  C  C43  1  0.50023591  0.50131989  0.78751305  1.0
  C  C44  1  0.50250845  0.50090889  0.73907608  1.0
  C  C45  1  0.38078827  0.50191529  0.71248669  1.0
  C  C46  1  0.38163576  0.50148653  0.66481394  1.0
  C  C47  1  0.50870651  0.50001070  0.64148028  1.0
  C  C48  1  0.63270937  0.49885746  0.66612125  1.0
  C  C49  1  0.62749337  0.49929867  0.71374664  1.0
  C  C50  1  0.49873328  0.50180063  0.35778539  1.0
  C  C51  1  0.50145543  0.50313522  0.25938073  1.0
  C  C52  1  0.62284043  0.50232170  0.33238945  1.0
  C  C53  1  0.37735227  0.50273697  0.28478333  1.0
  C  C54  1  0.62434585  0.50311281  0.28461001  1.0
  C  C55  1  0.37584660  0.50224476  0.33256097  1.0
  C  C56  1  0.06404585  0.42437503  0.14493372  1.0
  C  C57  1  0.93486554  0.57975085  0.09098739  1.0
  C  C58  1  0.92032628  0.42621959  0.14381511  1.0
  C  C59  1  0.07847650  0.57806796  0.09212697  1.0
  C  C60  1  0.50947768  0.13060507  0.11759109  1.0
  C  C61  1  0.48976100  0.87365251  0.11727059  1.0
  C  C62  1  0.62741633  0.05680565  0.11779744  1.0
  C  C63  1  0.37181759  0.94748714  0.11698084  1.0
  C  C64  1  0.61819994  0.93194637  0.11759693  1.0
  C  C65  1  0.38105888  0.07229765  0.11716542  1.0
  N  N66  1  0.85888147  0.49554926  0.49747453  1.0
  N  N67  1  0.14272041  0.50353401  0.50095522  1.0
  N  N68  1  0.14134205  0.49821161  0.11966283  1.0
  N  N69  1  0.85744174  0.50587816  0.11618947  1.0
  O  O70  1  0.62901124  0.68239222  0.50169179  1.0
  O  O71  1  0.39545974  0.68421450  0.49775617  1.0
  O  O72  1  0.39627332  0.49785097  0.56925283  1.0
  O  O73  1  0.63048659  0.50128396  0.57041596  1.0
  O  O74  1  0.37369264  0.31778261  0.49659642  1.0
  O  O75  1  0.60685530  0.31431973  0.50218386  1.0
  O  O76  1  0.60438703  0.49976791  0.43110444  1.0
  O  O77  1  0.37075087  0.50043438  0.42777846  1.0
  O  O78  1  0.37115247  0.68504809  0.11529832  1.0
  O  O79  1  0.60464786  0.68651559  0.11954658  1.0
  O  O80  1  0.60388909  0.49978752  0.04786157  1.0
  O  O81  1  0.36968346  0.50296469  0.04668372  1.0
  O  O82  1  0.62678719  0.32007216  0.12035716  1.0
  O  O83  1  0.39358508  0.31700525  0.11493763  1.0
  O  O84  1  0.39566911  0.50333031  0.18606745  1.0
  O  O85  1  0.62930935  0.50289230  0.18936364  1.0
  F  F86  1  0.87173708  0.34277362  0.44509353  1.0
  F  F87  1  0.12985561  0.65567213  0.55362905  1.0
  F  F88  1  0.24407996  0.10339707  0.49854186  1.0
  F  F89  1  0.75739496  0.89616399  0.50081969  1.0
  F  F90  1  0.74745034  0.50205483  0.35360350  1.0
  F  F91  1  0.25273435  0.50273022  0.26356870  1.0
  F  F92  1  0.12900742  0.34604171  0.17202502  1.0
  F  F93  1  0.86982509  0.65769225  0.06364658  1.0
  F  F94  1  0.75630468  0.10531332  0.11811259  1.0
  F  F95  1  0.24287192  0.89914382  0.11654457  1.0
  F  F96  1  0.74201572  0.50316962  0.88186258  1.0
  F  F97  1  0.25336360  0.49921828  0.87927020  1.0
  F  F98  1  0.74694496  0.49801699  0.73777498  1.0
  F  F99  1  0.25828331  0.50333254  0.73524029  1.0
