# generated using pymatgen
data_Zn5Si2H48C62(NO10)2
_symmetry_space_group_name_H-M   'P 1'
_cell_length_a   13.93064543
_cell_length_b   14.15756681
_cell_length_c   14.67938865
_cell_angle_alpha   107.51290401
_cell_angle_beta   113.45076205
_cell_angle_gamma   100.65133155
_symmetry_Int_Tables_number   1
_chemical_formula_structural   Zn5Si2H48C62(NO10)2
_chemical_formula_sum   'Zn5 Si2 H48 C62 N2 O20'
_cell_volume   2374.43280885
_cell_formula_units_Z   1
loop_
 _symmetry_equiv_pos_site_id
 _symmetry_equiv_pos_as_xyz
  1  'x, y, z'
loop_
 _atom_site_type_symbol
 _atom_site_label
 _atom_site_symmetry_multiplicity
 _atom_site_fract_x
 _atom_site_fract_y
 _atom_site_fract_z
 _atom_site_occupancy
  Zn  Zn0  1  0.47300941  0.80374979  0.56192149  1.0
  Zn  Zn1  1  0.69538079  0.00532920  0.73497974  1.0
  Zn  Zn2  1  0.52699435  0.19625186  0.43808094  1.0
  Zn  Zn3  1  0.30461848  0.99467088  0.26501984  1.0
  Zn  Zn4  1  0.49999840  0.00000045  0.50000018  1.0
  Si  Si5  1  0.76329049  0.63406032  0.12087537  1.0
  Si  Si6  1  0.23670820  0.36593817  0.87912284  1.0
  H  H7  1  0.12210041  0.74943326  0.46544349  1.0
  H  H8  1  0.91512608  0.68888793  0.35248846  1.0
  H  H9  1  0.95382211  0.71167741  0.08174272  1.0
  H  H10  1  0.15957833  0.77872957  0.19738778  1.0
  H  H11  1  0.52178886  0.60860627  0.74483212  1.0
  H  H12  1  0.58231116  0.53839361  0.88692832  1.0
  H  H13  1  0.84657084  0.83929113  0.11215047  1.0
  H  H14  1  0.78870975  0.90501467  0.96677566  1.0
  H  H15  1  0.50869685  0.25108127  0.90644901  1.0
  H  H16  1  0.55146679  0.44034474  0.01345784  1.0
  H  H17  1  0.89575210  0.50362917  0.08613226  1.0
  H  H18  1  0.85028578  0.31357763  0.97894445  1.0
  H  H19  1  0.57061104  0.60764819  0.34792119  1.0
  H  H20  1  0.64300403  0.53225957  0.22241166  1.0
  H  H21  1  0.74407684  0.83649375  0.21593966  1.0
  H  H22  1  0.67088201  0.90900340  0.34038715  1.0
  H  H23  1  0.78213770  0.83584531  0.66022101  1.0
  H  H24  1  0.84883310  0.73367709  0.57742121  1.0
  H  H25  1  0.85951678  0.76358770  0.47151532  1.0
  H  H26  1  0.98323532  0.79662924  0.59630516  1.0
  H  H27  1  0.00759964  0.96574728  0.57510508  1.0
  H  H28  1  0.87975756  0.99159585  0.52253089  1.0
  H  H29  1  0.97532317  0.05547718  0.66492469  1.0
  H  H30  1  0.51570062  0.00267361  0.68600740  1.0
  H  H31  1  0.87790012  0.25056601  0.53455770  1.0
  H  H32  1  0.08487415  0.31111054  0.64751442  1.0
  H  H33  1  0.04617519  0.28831947  0.91825926  1.0
  H  H34  1  0.84041694  0.22126813  0.80260890  1.0
  H  H35  1  0.47821149  0.39139461  0.25516674  1.0
  H  H36  1  0.41768626  0.46160568  0.11306897  1.0
  H  H37  1  0.15342971  0.16070817  0.88784732  1.0
  H  H38  1  0.21129187  0.09498542  0.03322345  1.0
  H  H39  1  0.49130388  0.74891641  0.09355314  1.0
  H  H40  1  0.44853238  0.55965296  0.98654237  1.0
  H  H41  1  0.10424746  0.49637169  0.91386901  1.0
  H  H42  1  0.14971349  0.68642245  0.02105513  1.0
  H  H43  1  0.42938948  0.39235741  0.65208049  1.0
  H  H44  1  0.35699404  0.46774365  0.77759043  1.0
  H  H45  1  0.25592732  0.16351107  0.78406113  1.0
  H  H46  1  0.32912243  0.09100220  0.65961602  1.0
  H  H47  1  0.21786236  0.16415478  0.33977751  1.0
  H  H48  1  0.15116696  0.26632299  0.42257799  1.0
  H  H49  1  0.14048249  0.23641238  0.52848359  1.0
  H  H50  1  0.01676415  0.20336927  0.40369268  1.0
  H  H51  1  0.99240178  0.03425438  0.42489510  1.0
  H  H52  1  0.12024464  0.00840581  0.47746959  1.0
  H  H53  1  0.02467796  0.94452369  0.33507515  1.0
  H  H54  1  0.48429893  0.99732724  0.31399388  1.0
  C  C55  1  0.27704398  0.80588040  0.40716824  1.0
  C  C56  1  0.15301873  0.76865979  0.33855847  1.0
  C  C57  1  0.08389667  0.74273100  0.38187448  1.0
  C  C58  1  0.96841210  0.70835467  0.31792838  1.0
  C  C59  1  0.91899480  0.69588794  0.20882909  1.0
  C  C60  1  0.98974091  0.72120124  0.16643124  1.0
  C  C61  1  0.10544392  0.75851480  0.23072596  1.0
  C  C62  1  0.62095927  0.80152901  0.76121854  1.0
  C  C63  1  0.65205867  0.76056822  0.84754139  1.0
  C  C64  1  0.59285973  0.65794249  0.82583874  1.0
  C  C65  1  0.62680039  0.61982721  0.90631319  1.0
  C  C66  1  0.71815221  0.68393373  0.01088174  1.0
  C  C67  1  0.77496015  0.78771366  0.03193948  1.0
  C  C68  1  0.74344377  0.82542051  0.95121324  1.0
  C  C69  1  0.64735217  0.15865688  0.86118876  1.0
  C  C70  1  0.67657768  0.27112671  0.93507456  1.0
  C  C71  1  0.59327311  0.30727115  0.94681640  1.0
  C  C72  1  0.61835553  0.41407777  0.00687081  1.0
  C  C73  1  0.72693824  0.48740581  0.05661839  1.0
  C  C74  1  0.81042426  0.44908544  0.04721966  1.0
  C  C75  1  0.78579682  0.34254973  0.98741384  1.0
  C  C76  1  0.57665135  0.81121396  0.42872988  1.0
  C  C77  1  0.61857014  0.76319966  0.35299036  1.0
  C  C78  1  0.60972436  0.65683832  0.31876626  1.0
  C  C79  1  0.65011504  0.61526936  0.24819004  1.0
  C  C80  1  0.69961973  0.67882935  0.21015919  1.0
  C  C81  1  0.70751996  0.78552085  0.24532431  1.0
  C  C82  1  0.66759459  0.82734895  0.31545335  1.0
  C  C83  1  0.82302801  0.90600709  0.65370318  1.0
  C  C84  1  0.89540472  0.79118016  0.56042867  1.0
  C  C85  1  0.94089881  0.98202164  0.59157881  1.0
  C  C86  1  0.72295401  0.19411412  0.59283330  1.0
  C  C87  1  0.84698200  0.23133790  0.66144301  1.0
  C  C88  1  0.91610299  0.25726591  0.61812567  1.0
  C  C89  1  0.03158580  0.29164383  0.68207021  1.0
  C  C90  1  0.08100349  0.30410738  0.79117076  1.0
  C  C91  1  0.01025854  0.27879724  0.83357066  1.0
  C  C92  1  0.89455612  0.24148527  0.76927528  1.0
  C  C93  1  0.37904040  0.19846792  0.23877891  1.0
  C  C94  1  0.34794130  0.23942950  0.15245571  1.0
  C  C95  1  0.40714034  0.34205759  0.17415910  1.0
  C  C96  1  0.37319996  0.38017366  0.09368567  1.0
  C  C97  1  0.28184756  0.31606555  0.98911712  1.0
  C  C98  1  0.22503884  0.21228564  0.96805773  1.0
  C  C99  1  0.25655835  0.17457879  0.04878515  1.0
  C  C100  1  0.35264680  0.84134239  0.13881318  1.0
  C  C101  1  0.32342334  0.72887177  0.06492726  1.0
  C  C102  1  0.40672586  0.69272813  0.05318351  1.0
  C  C103  1  0.38164316  0.58592072  0.99312808  1.0
  C  C104  1  0.27305917  0.51259347  0.94338093  1.0
  C  C105  1  0.18957470  0.55091382  0.95278229  1.0
  C  C106  1  0.21420341  0.65744875  0.01258836  1.0
  C  C107  1  0.42334597  0.18878929  0.57126717  1.0
  C  C108  1  0.38142717  0.23680358  0.64700872  1.0
  C  C109  1  0.39027304  0.34316729  0.68123355  1.0
  C  C110  1  0.34988460  0.38473386  0.75181197  1.0
  C  C111  1  0.30038228  0.32117389  0.78984100  1.0
  C  C112  1  0.29248448  0.21448476  0.75467751  1.0
  C  C113  1  0.33240643  0.17265587  0.68454761  1.0
  C  C114  1  0.17697205  0.09399299  0.34629602  1.0
  C  C115  1  0.10459504  0.20881912  0.43957087  1.0
  C  C116  1  0.05910202  0.01797843  0.40842136  1.0
  N  N117  1  0.88688349  0.89372602  0.60682735  1.0
  N  N118  1  0.11311705  0.10627327  0.39317180  1.0
  O  O119  1  0.31192005  0.76861794  0.47953011  1.0
  O  O120  1  0.33811217  0.86875724  0.39023459  1.0
  O  O121  1  0.69573743  0.88055577  0.77595491  1.0
  O  O122  1  0.52299779  0.75373102  0.67859506  1.0
  O  O123  1  0.73157352  0.13341825  0.85731624  1.0
  O  O124  1  0.54729906  0.09808448  0.80645966  1.0
  O  O125  1  0.53757521  0.75218446  0.46660998  1.0
  O  O126  1  0.58573011  0.90707011  0.45183345  1.0
  O  O127  1  0.53473254  0.96117293  0.63082420  1.0
  O  O128  1  0.81021612  0.99313464  0.68884412  1.0
  O  O129  1  0.68808226  0.23137343  0.52047011  1.0
  O  O130  1  0.66188961  0.13124122  0.60977024  1.0
  O  O131  1  0.30426440  0.11944273  0.22404314  1.0
  O  O132  1  0.47700177  0.24626984  0.32140487  1.0
  O  O133  1  0.26842467  0.86658103  0.14268405  1.0
  O  O134  1  0.45269834  0.90191478  0.19354169  1.0
  O  O135  1  0.46242494  0.24781800  0.53338859  1.0
  O  O136  1  0.41426953  0.09293312  0.54816856  1.0
  O  O137  1  0.46526730  0.03882871  0.36917742  1.0
  O  O138  1  0.18978394  0.00686544  0.31115508  1.0
