# generated using pymatgen
data_ZnH4C14I2NO5
_symmetry_space_group_name_H-M   'P 1'
_cell_length_a   12.03295396
_cell_length_b   12.98318120
_cell_length_c   14.58826591
_cell_angle_alpha   93.43458458
_cell_angle_beta   95.53806246
_cell_angle_gamma   90.09879283
_symmetry_Int_Tables_number   1
_chemical_formula_structural   ZnH4C14I2NO5
_chemical_formula_sum   'Zn2 H8 C28 I4 N2 O10'
_cell_volume   2264.28970096
_cell_formula_units_Z   2
loop_
 _symmetry_equiv_pos_site_id
 _symmetry_equiv_pos_as_xyz
  1  'x, y, z'
loop_
 _atom_site_type_symbol
 _atom_site_label
 _atom_site_symmetry_multiplicity
 _atom_site_fract_x
 _atom_site_fract_y
 _atom_site_fract_z
 _atom_site_occupancy
  Zn  Zn0  1  0.37492030  0.48630804  0.48136701  1.0
  Zn  Zn1  1  0.62507525  0.51369113  0.51862327  1.0
  H  H2  1  0.63446547  0.82487186  0.49653370  1.0
  H  H3  1  0.36547324  0.17513381  0.50349034  1.0
  H  H4  1  0.27828178  0.81069699  0.49641081  1.0
  H  H5  1  0.72166799  0.18929387  0.50357420  1.0
  H  H6  1  0.01938514  0.63809869  0.65414875  1.0
  H  H7  1  0.98061816  0.36190708  0.34585807  1.0
  H  H8  1  0.28520592  0.54793069  0.63123643  1.0
  H  H9  1  0.71480991  0.45208834  0.36875323  1.0
  C  C10  1  0.53705247  0.30723120  0.50471725  1.0
  C  C11  1  0.14962249  0.51741045  0.54686004  1.0
  C  C12  1  0.96986735  0.47220446  0.46276203  1.0
  C  C13  1  0.03014909  0.52780159  0.53723739  1.0
  C  C14  1  0.50215386  0.49161932  0.31646640  1.0
  C  C15  1  0.49788860  0.50838053  0.68353300  1.0
  C  C16  1  0.50654439  0.49182300  0.21819802  1.0
  C  C17  1  0.49350912  0.50816555  0.78179746  1.0
  C  C18  1  0.50512240  0.49455250  0.13415621  1.0
  C  C19  1  0.49499402  0.50546657  0.86585412  1.0
  C  C20  1  0.50209227  0.49807016  0.04228706  1.0
  C  C21  1  0.46289332  0.69276432  0.49527937  1.0
  C  C22  1  0.49799543  0.50189009  0.95771070  1.0
  C  C23  1  0.45782293  0.80794458  0.49626709  1.0
  C  C24  1  0.54212901  0.19205751  0.50374871  1.0
  C  C25  1  0.65119029  0.03613768  0.49985606  1.0
  C  C26  1  0.34876799  0.96386367  0.50014639  1.0
  C  C27  1  0.64662411  0.14222691  0.50268045  1.0
  C  C28  1  0.35332706  0.85777051  0.49733304  1.0
  C  C29  1  0.44483356  0.13500768  0.50286161  1.0
  C  C30  1  0.55511160  0.86499807  0.49715393  1.0
  C  C31  1  0.44700483  0.02623947  0.50091179  1.0
  C  C32  1  0.55293662  0.97376522  0.49908839  1.0
  C  C33  1  0.97337292  0.59243567  0.59818329  1.0
  C  C34  1  0.02664265  0.40757034  0.40181470  1.0
  C  C35  1  0.85875198  0.59627862  0.58421483  1.0
  C  C36  1  0.14126620  0.40372205  0.41578172  1.0
  C  C37  1  0.85039401  0.48259173  0.45313785  1.0
  I  I38  1  0.81032709  0.96784384  0.49622590  1.0
  I  I39  1  0.18963658  0.03216136  0.50376334  1.0
  I  I40  1  0.22211273  0.30062676  0.32812085  1.0
  I  I41  1  0.77789640  0.69934831  0.67188500  1.0
  N  N42  1  0.20337645  0.46037388  0.48507761  1.0
  N  N43  1  0.79663359  0.53962197  0.51492165  1.0
  O  O44  1  0.43980998  0.34673442  0.49877159  1.0
  O  O45  1  0.79700007  0.43274391  0.38058155  1.0
  O  O46  1  0.56015334  0.65326710  0.50129632  1.0
  O  O47  1  0.62903905  0.35691517  0.51110294  1.0
  O  O48  1  0.37091718  0.64308123  0.48881551  1.0
  O  O49  1  0.40605400  0.49449795  0.34487510  1.0
  O  O50  1  0.59400008  0.50541744  0.65512892  1.0
  O  O51  1  0.59475734  0.48950471  0.36755096  1.0
  O  O52  1  0.40530686  0.51060362  0.63243734  1.0
  O  O53  1  0.20301213  0.56726198  0.61941486  1.0
