# generated using pymatgen
data_CdH12C18(N3O2)2
_symmetry_space_group_name_H-M   'P 1'
_cell_length_a   8.35711732
_cell_length_b   17.70730339
_cell_length_c   19.15976340
_cell_angle_alpha   90.00008935
_cell_angle_beta   90.00002586
_cell_angle_gamma   89.99993450
_symmetry_Int_Tables_number   1
_chemical_formula_structural   CdH12C18(N3O2)2
_chemical_formula_sum   'Cd4 H48 C72 N24 O16'
_cell_volume   2835.30033452
_cell_formula_units_Z   4
loop_
 _symmetry_equiv_pos_site_id
 _symmetry_equiv_pos_as_xyz
  1  'x, y, z'
loop_
 _atom_site_type_symbol
 _atom_site_label
 _atom_site_symmetry_multiplicity
 _atom_site_fract_x
 _atom_site_fract_y
 _atom_site_fract_z
 _atom_site_occupancy
  Cd  Cd0  1  0.51962969  0.08593131  0.96843804  1.0
  Cd  Cd1  1  0.48036746  0.58593045  0.03156201  1.0
  Cd  Cd2  1  0.48037068  0.08593260  0.46843708  1.0
  Cd  Cd3  1  0.51963365  0.58593311  0.53156140  1.0
  H  H4  1  0.35464534  0.08333908  0.13332332  1.0
  H  H5  1  0.64535541  0.58333725  0.86667463  1.0
  H  H6  1  0.64535709  0.08334054  0.63332535  1.0
  H  H7  1  0.35464246  0.58333974  0.36667521  1.0
  H  H8  1  0.84120420  0.11028824  0.08537134  1.0
  H  H9  1  0.15879767  0.61028902  0.91462874  1.0
  H  H10  1  0.15879930  0.11029053  0.58537118  1.0
  H  H11  1  0.84120138  0.61029124  0.41462838  1.0
  H  H12  1  0.01468966  0.04305355  0.16196975  1.0
  H  H13  1  0.98531238  0.54305376  0.83802867  1.0
  H  H14  1  0.98531050  0.04305032  0.66197028  1.0
  H  H15  1  0.01468915  0.54305586  0.33803075  1.0
  H  H16  1  0.23227191  0.04378886  0.25235868  1.0
  H  H17  1  0.76772773  0.54379129  0.74764183  1.0
  H  H18  1  0.76772355  0.04379026  0.75235708  1.0
  H  H19  1  0.23227250  0.54379102  0.24764239  1.0
  H  H20  1  0.90080026  0.12544438  0.40514827  1.0
  H  H21  1  0.09919679  0.62544805  0.59485184  1.0
  H  H22  1  0.09919038  0.12545010  0.90514654  1.0
  H  H23  1  0.90080069  0.62544177  0.09484939  1.0
  H  H24  1  0.68120176  0.12678618  0.31525100  1.0
  H  H25  1  0.31879648  0.62678706  0.68474911  1.0
  H  H26  1  0.31879357  0.12678783  0.81525088  1.0
  H  H27  1  0.68120109  0.62678316  0.18474714  1.0
  H  H28  1  0.58960093  0.25600115  0.86892650  1.0
  H  H29  1  0.41039940  0.75599823  0.13107484  1.0
  H  H30  1  0.41041568  0.25600078  0.36891875  1.0
  H  H31  1  0.58960140  0.75600199  0.63107372  1.0
  H  H32  1  0.20009116  0.19782763  0.99684084  1.0
  H  H33  1  0.79990572  0.69782823  0.00316041  1.0
  H  H34  1  0.79991376  0.19782874  0.49684203  1.0
  H  H35  1  0.20008910  0.69782825  0.50315870  1.0
  H  H36  1  0.28632034  0.44284681  0.96152013  1.0
  H  H37  1  0.71367355  0.94284640  0.03847991  1.0
  H  H38  1  0.71368395  0.44284459  0.46152079  1.0
  H  H39  1  0.28631712  0.94284749  0.53848187  1.0
  H  H40  1  0.05918212  0.53192822  0.98949234  1.0
  H  H41  1  0.94080918  0.03192895  0.01050868  1.0
  H  H42  1  0.94081720  0.53192700  0.48949251  1.0
  H  H43  1  0.05918367  0.03192961  0.51051059  1.0
  H  H44  1  0.72455052  0.34919439  0.97384959  1.0
  H  H45  1  0.27544480  0.84919588  0.02615345  1.0
  H  H46  1  0.27545641  0.34919861  0.47384911  1.0
  H  H47  1  0.72455327  0.84919618  0.52615132  1.0
  H  H48  1  0.94703163  0.25958325  0.94518896  1.0
  H  H49  1  0.05296510  0.75958492  0.05481342  1.0
  H  H50  1  0.05298266  0.25958647  0.44518792  1.0
  H  H51  1  0.94702963  0.75958453  0.55481238  1.0
  C  C52  1  0.48336197  0.08773893  0.13945442  1.0
  C  C53  1  0.51663877  0.58773773  0.86054459  1.0
  C  C54  1  0.51663925  0.08774159  0.63945538  1.0
  C  C55  1  0.48335909  0.58774014  0.36054467  1.0
  C  C56  1  0.72967654  0.10069281  0.11285444  1.0
  C  C57  1  0.27032536  0.60069066  0.88714563  1.0
  C  C58  1  0.27032343  0.10069392  0.61285482  1.0
  C  C59  1  0.72967488  0.60069295  0.38714524  1.0
  C  C60  1  0.83809079  0.08829969  0.23361271  1.0
  C  C61  1  0.16190994  0.58829966  0.76638682  1.0
  C  C62  1  0.16190574  0.08829973  0.73361256  1.0
  C  C63  1  0.83808781  0.58829850  0.26638697  1.0
  C  C64  1  0.99122256  0.06356973  0.21468346  1.0
  C  C65  1  0.00878062  0.56356868  0.78531551  1.0
  C  C66  1  0.00877760  0.06356702  0.71468380  1.0
  C  C67  1  0.99121960  0.56357026  0.28531674  1.0
  C  C68  1  0.11195409  0.06339663  0.26478368  1.0
  C  C69  1  0.88804551  0.56339898  0.73521738  1.0
  C  C70  1  0.88804134  0.06339797  0.76478106  1.0
  C  C71  1  0.11195347  0.56339821  0.23521739  1.0
  C  C72  1  0.08004477  0.08774710  0.33301314  1.0
  C  C73  1  0.91995477  0.58775214  0.66698848  1.0
  C  C74  1  0.91994828  0.08775294  0.83301000  1.0
  C  C75  1  0.08004527  0.58774856  0.16698692  1.0
  C  C76  1  0.92474750  0.10979259  0.35125250  1.0
  C  C77  1  0.07525078  0.60979467  0.64874758  1.0
  C  C78  1  0.07524312  0.10979776  0.85125024  1.0
  C  C79  1  0.92474919  0.60979177  0.14874671  1.0
  C  C80  1  0.80280830  0.11016475  0.30194186  1.0
  C  C81  1  0.19719118  0.61016628  0.69805822  1.0
  C  C82  1  0.19718705  0.11016815  0.80194171  1.0
  C  C83  1  0.80280764  0.61016231  0.19805628  1.0
  C  C84  1  0.21092485  0.09069618  0.38626955  1.0
  C  C85  1  0.78907348  0.59070007  0.61373259  1.0
  C  C86  1  0.78906705  0.09070096  0.88626534  1.0
  C  C87  1  0.21092769  0.59069698  0.11373210  1.0
  C  C88  1  0.47718898  0.25907282  0.89715492  1.0
  C  C89  1  0.52281134  0.75907092  0.10284799  1.0
  C  C90  1  0.52282766  0.25907295  0.39714614  1.0
  C  C91  1  0.47718822  0.75907530  0.60284581  1.0
  C  C92  1  0.28036639  0.22777849  0.96199858  1.0
  C  C93  1  0.71962922  0.72777694  0.03800272  1.0
  C  C94  1  0.71963961  0.22777683  0.46199715  1.0
  C  C95  1  0.28036796  0.72777917  0.53800102  1.0
  C  C96  1  0.12785432  0.34775896  0.95110343  1.0
  C  C97  1  0.87214100  0.84775961  0.04889805  1.0
  C  C98  1  0.87215258  0.34775778  0.45110150  1.0
  C  C99  1  0.12785231  0.84775966  0.54890049  1.0
  C  C100  1  0.16227281  0.42385751  0.96293923  1.0
  C  C101  1  0.83772113  0.92385815  0.03706184  1.0
  C  C102  1  0.83772914  0.42385521  0.46293834  1.0
  C  C103  1  0.16227318  0.92385762  0.53706533  1.0
  C  C104  1  0.03659664  0.47270689  0.97768265  1.0
  C  C105  1  0.96339837  0.97270744  0.02231953  1.0
  C  C106  1  0.96340281  0.47270566  0.47768283  1.0
  C  C107  1  0.03660059  0.97270811  0.52232144  1.0
  C  C108  1  0.87893259  0.44598492  0.98096772  1.0
  C  C109  1  0.12106250  0.94598705  0.01903598  1.0
  C  C110  1  0.12107052  0.44598640  0.48096617  1.0
  C  C111  1  0.87893653  0.94598670  0.51903440  1.0
  C  C112  1  0.84765275  0.36910252  0.97040699  1.0
  C  C113  1  0.15234372  0.86910465  0.02959713  1.0
  C  C114  1  0.15235293  0.36910511  0.47040805  1.0
  C  C115  1  0.84765550  0.86910432  0.52959345  1.0
  C  C116  1  0.97182839  0.31932640  0.95475698  1.0
  C  C117  1  0.02816819  0.81932806  0.04524602  1.0
  C  C118  1  0.02818098  0.31932793  0.45475593  1.0
  C  C119  1  0.97182638  0.81932766  0.54524550  1.0
  C  C120  1  0.74587708  0.50050428  0.99531813  1.0
  C  C121  1  0.25411908  0.00050594  0.00468231  1.0
  C  C122  1  0.25412352  0.50050682  0.49531713  1.0
  C  C123  1  0.74588221  0.00050623  0.50468279  1.0
  N  N124  1  0.58460617  0.09828704  0.08412233  1.0
  N  N125  1  0.41539574  0.59828656  0.91587721  1.0
  N  N126  1  0.41539497  0.09829033  0.58412327  1.0
  N  N127  1  0.58460454  0.59828892  0.41587679  1.0
  N  N128  1  0.71509022  0.09101212  0.18251343  1.0
  N  N129  1  0.28490931  0.59101154  0.81748610  1.0
  N  N130  1  0.28490865  0.09101209  0.68251434  1.0
  N  N131  1  0.71508849  0.59101214  0.31748571  1.0
  N  N132  1  0.55751317  0.08343226  0.20034296  1.0
  N  N133  1  0.44248638  0.58343100  0.79965656  1.0
  N  N134  1  0.44248573  0.08343271  0.70034338  1.0
  N  N135  1  0.55751142  0.58343281  0.29965666  1.0
  N  N136  1  0.41896684  0.20148702  0.93743460  1.0
  N  N137  1  0.58102764  0.70148559  0.06256666  1.0
  N  N138  1  0.58103801  0.20148826  0.43743105  1.0
  N  N139  1  0.41896723  0.70148887  0.56256603  1.0
  N  N140  1  0.25726264  0.29797833  0.93689759  1.0
  N  N141  1  0.74273400  0.79797794  0.06310277  1.0
  N  N142  1  0.74274916  0.29797665  0.43689460  1.0
  N  N143  1  0.25725944  0.79797905  0.56310367  1.0
  N  N144  1  0.38270297  0.31915483  0.89546339  1.0
  N  N145  1  0.61729481  0.81915345  0.10453752  1.0
  N  N146  1  0.61731471  0.31915435  0.39545828  1.0
  N  N147  1  0.38270102  0.81915619  0.60453741  1.0
  O  O148  1  0.34203469  0.05666554  0.37134973  1.0
  O  O149  1  0.65796373  0.55667009  0.62865132  1.0
  O  O150  1  0.65795967  0.05667095  0.87134758  1.0
  O  O151  1  0.34203755  0.55666693  0.12865085  1.0
  O  O152  1  0.18919845  0.12680337  0.44298896  1.0
  O  O153  1  0.81080100  0.62680658  0.55701271  1.0
  O  O154  1  0.81079941  0.12680870  0.94298580  1.0
  O  O155  1  0.18920003  0.62680182  0.05701170  1.0
  O  O156  1  0.77089040  0.57062787  0.98544019  1.0
  O  O157  1  0.22910559  0.07063013  0.01456140  1.0
  O  O158  1  0.22910643  0.57063043  0.48544127  1.0
  O  O159  1  0.77089195  0.07063040  0.51456032  1.0
  O  O160  1  0.61197636  0.47378628  0.01655706  1.0
  O  O161  1  0.38801506  0.97378592  0.98344251  1.0
  O  O162  1  0.38802380  0.47378788  0.51655590  1.0
  O  O163  1  0.61198557  0.97378657  0.48344106  1.0
