# generated using pymatgen
data_ZnH20C35N(Cl3O)4
_symmetry_space_group_name_H-M   'P 1'
_cell_length_a   15.11933491
_cell_length_b   18.85926363
_cell_length_c   19.04051502
_cell_angle_alpha   91.11480780
_cell_angle_beta   92.82900472
_cell_angle_gamma   92.27095264
_symmetry_Int_Tables_number   1
_chemical_formula_structural   ZnH20C35N(Cl3O)4
_chemical_formula_sum   'Zn2 H40 C70 N2 Cl24 O8'
_cell_volume   5417.08069672
_cell_formula_units_Z   2
loop_
 _symmetry_equiv_pos_site_id
 _symmetry_equiv_pos_as_xyz
  1  'x, y, z'
loop_
 _atom_site_type_symbol
 _atom_site_label
 _atom_site_symmetry_multiplicity
 _atom_site_fract_x
 _atom_site_fract_y
 _atom_site_fract_z
 _atom_site_occupancy
  Zn  Zn0  1  0.50019289  0.41644355  0.50188329  1.0
  Zn  Zn1  1  0.50056759  0.58503672  0.49783039  1.0
  H  H2  1  0.05907051  0.42751844  0.72197424  1.0
  H  H3  1  0.16513363  0.43651294  0.68613838  1.0
  H  H4  1  0.15151346  0.46272272  0.77470820  1.0
  H  H5  1  0.15617890  0.57259417  0.70610444  1.0
  H  H6  1  0.05025430  0.55602675  0.73695693  1.0
  H  H7  1  0.96202915  0.42665306  0.22872338  1.0
  H  H8  1  0.86584469  0.39141981  0.26706626  1.0
  H  H9  1  0.85544903  0.45144656  0.19653448  1.0
  H  H10  1  0.83065810  0.51659947  0.30692306  1.0
  H  H11  1  0.92806923  0.54908556  0.27286685  1.0
  H  H12  1  0.93477952  0.69666509  0.60407298  1.0
  H  H13  1  0.82924099  0.65199974  0.59989623  1.0
  H  H14  1  0.86264851  0.70597112  0.67449692  1.0
  H  H15  1  0.88079584  0.58004559  0.70678558  1.0
  H  H16  1  0.98328842  0.62708684  0.70623019  1.0
  H  H17  1  0.12309241  0.61925711  0.33492640  1.0
  H  H18  1  0.21125884  0.56209940  0.35373102  1.0
  H  H19  1  0.18680891  0.58692698  0.26590494  1.0
  H  H20  1  0.12650802  0.46336314  0.28355158  1.0
  H  H21  1  0.04391820  0.52182175  0.26076933  1.0
  H  H22  1  0.52066452  0.31696532  0.33593099  1.0
  H  H23  1  0.46218436  0.23401627  0.31767110  1.0
  H  H24  1  0.41651365  0.31455492  0.28868238  1.0
  H  H25  1  0.33960279  0.27574880  0.39474900  1.0
  H  H26  1  0.40109411  0.35535467  0.41282345  1.0
  H  H27  1  0.64880688  0.75387917  0.67203437  1.0
  H  H28  1  0.57694061  0.67676722  0.66555356  1.0
  H  H29  1  0.69348927  0.66812172  0.67430555  1.0
  H  H30  1  0.64455554  0.64174440  0.55119336  1.0
  H  H31  1  0.70976095  0.72111791  0.55573634  1.0
  H  H32  1  0.54235712  0.28898292  0.69961041  1.0
  H  H33  1  0.64533814  0.24691741  0.69844635  1.0
  H  H34  1  0.64239146  0.33867259  0.71948124  1.0
  H  H35  1  0.68843621  0.31677545  0.59444604  1.0
  H  H36  1  0.59875684  0.37149680  0.60366494  1.0
  H  H37  1  0.37083137  0.74996807  0.32385994  1.0
  H  H38  1  0.43647469  0.67330745  0.32844830  1.0
  H  H39  1  0.31941100  0.66367986  0.31615153  1.0
  H  H40  1  0.36224690  0.63734292  0.43949334  1.0
  H  H41  1  0.30152807  0.71492591  0.43634855  1.0
  C  C42  1  0.48604151  0.52144465  0.63117803  1.0
  C  C43  1  0.51033807  0.51592671  0.36478900  1.0
  C  C44  1  0.96488189  0.55370699  0.61945854  1.0
  C  C45  1  0.04096422  0.49022271  0.36791127  1.0
  C  C46  1  0.61375931  0.55108385  0.26920171  1.0
  C  C47  1  0.45936155  0.45607148  0.74475418  1.0
  C  C48  1  0.45631313  0.58231687  0.74973800  1.0
  C  C49  1  0.47181371  0.49354590  0.23516664  1.0
  C  C50  1  0.63633972  0.55081381  0.19841988  1.0
  C  C51  1  0.47969316  0.45495328  0.81711528  1.0
  C  C52  1  0.47021238  0.58019352  0.82311031  1.0
  C  C53  1  0.49216607  0.49724344  0.16427405  1.0
  C  C54  1  0.57536258  0.52475963  0.14535713  1.0
  C  C55  1  0.50921586  0.51943041  0.85487004  1.0
  C  C56  1  0.53304754  0.51921930  0.28810503  1.0
  C  C57  1  0.46636311  0.52067965  0.70787106  1.0
  C  C58  1  0.60808394  0.46553009  0.03068940  1.0
  C  C59  1  0.58300517  0.58919752  0.95842145  1.0
  C  C60  1  0.59682812  0.46365197  0.95728846  1.0
  C  C61  1  0.58876978  0.59094576  0.03225250  1.0
  C  C62  1  0.56053822  0.52331612  0.92127285  1.0
  C  C63  1  0.59222851  0.52762662  0.06957713  1.0
  C  C64  1  0.45623390  0.26345419  0.45992906  1.0
  C  C65  1  0.57362491  0.73602925  0.53238207  1.0
  C  C66  1  0.56473361  0.27137502  0.55470065  1.0
  C  C67  1  0.43801114  0.73390220  0.46386280  1.0
  C  C68  1  0.45340376  0.18904857  0.46320628  1.0
  C  C69  1  0.57665440  0.81059261  0.53314526  1.0
  C  C70  1  0.57226623  0.19728433  0.55071442  1.0
  C  C71  1  0.43854803  0.80849679  0.46673539  1.0
  C  C72  1  0.51349507  0.15470412  0.50750291  1.0
  C  C73  1  0.50844986  0.84809338  0.50101732  1.0
  C  C74  1  0.66873679  0.48670330  0.49799992  1.0
  C  C75  1  0.33083319  0.47804214  0.49958404  1.0
  C  C76  1  0.47005153  0.03771189  0.55784411  1.0
  C  C77  1  0.55572071  0.96518301  0.45256404  1.0
  C  C78  1  0.55840643  0.03966596  0.45488624  1.0
  C  C79  1  0.46826908  0.96321108  0.55601034  1.0
  C  C80  1  0.51065893  0.92680757  0.50313508  1.0
  C  C81  1  0.51496242  0.07609773  0.50719873  1.0
  C  C82  1  0.17778935  0.46307978  0.44189723  1.0
  C  C83  1  0.81777015  0.51808185  0.55676668  1.0
  C  C84  1  0.23090639  0.48054909  0.50219685  1.0
  C  C85  1  0.76863721  0.49258624  0.49687918  1.0
  C  C86  1  0.19219329  0.50878902  0.56118482  1.0
  C  C87  1  0.81221842  0.47440413  0.43642005  1.0
  C  C88  1  0.09888787  0.51474554  0.56431438  1.0
  C  C89  1  0.90432697  0.48826696  0.43152534  1.0
  C  C90  1  0.04840645  0.50369805  0.49839139  1.0
  C  C91  1  0.95399757  0.50791972  0.49590280  1.0
  C  C92  1  0.08935434  0.48375203  0.43492274  1.0
  C  C93  1  0.91119307  0.52816240  0.55843367  1.0
  C  C94  1  0.05368500  0.53730618  0.62596025  1.0
  C  C95  1  0.94956515  0.48994550  0.36598715  1.0
  C  C96  1  0.09720979  0.53708129  0.69961522  1.0
  C  C97  1  0.11980063  0.46147384  0.72146034  1.0
  C  C98  1  0.89809879  0.50191674  0.29705125  1.0
  C  C99  1  0.89537361  0.43927289  0.24429633  1.0
  C  C100  1  0.92804918  0.60517846  0.67210431  1.0
  C  C101  1  0.88598713  0.66837841  0.63534428  1.0
  C  C102  1  0.09142030  0.50887115  0.30331099  1.0
  C  C103  1  0.15697955  0.57277284  0.31549462  1.0
  C  C104  1  0.40742033  0.29895407  0.40079934  1.0
  C  C105  1  0.45480032  0.29015827  0.33163674  1.0
  C  C106  1  0.64579619  0.69699037  0.57000445  1.0
  C  C107  1  0.64071937  0.69951267  0.65047256  1.0
  C  C108  1  0.61857774  0.31669303  0.60849067  1.0
  C  C109  1  0.61161362  0.29566079  0.68571063  1.0
  C  C110  1  0.36489641  0.69260877  0.42305181  1.0
  C  C111  1  0.37385285  0.69554303  0.34292307  1.0
  N  N112  1  0.50821201  0.30229144  0.50765874  1.0
  N  N113  1  0.50482368  0.69986649  0.49751038  1.0
  Cl  Cl114  1  0.22482292  0.41322409  0.37704848  1.0
  Cl  Cl115  1  0.75724061  0.52251878  0.63233339  1.0
  Cl  Cl116  1  0.41644521  0.08266440  0.62130479  1.0
  Cl  Cl117  1  0.60694268  0.92006953  0.38785303  1.0
  Cl  Cl118  1  0.61432963  0.08705588  0.39377763  1.0
  Cl  Cl119  1  0.41390106  0.91576912  0.61798415  1.0
  Cl  Cl120  1  0.26805545  0.53968725  0.62721704  1.0
  Cl  Cl121  1  0.74998802  0.42621622  0.37147430  1.0
  Cl  Cl122  1  0.68411013  0.59293513  0.33180576  1.0
  Cl  Cl123  1  0.41333521  0.38126094  0.70249929  1.0
  Cl  Cl124  1  0.41905439  0.65959484  0.71448937  1.0
  Cl  Cl125  1  0.36875742  0.46265645  0.25761987  1.0
  Cl  Cl126  1  0.73889287  0.58277288  0.17580838  1.0
  Cl  Cl127  1  0.45028977  0.38003363  0.86180143  1.0
  Cl  Cl128  1  0.42484274  0.64470552  0.87336567  1.0
  Cl  Cl129  1  0.41423388  0.46963929  0.09951482  1.0
  Cl  Cl130  1  0.64051850  0.39179106  0.07533750  1.0
  Cl  Cl131  1  0.61462943  0.66443139  0.91544577  1.0
  Cl  Cl132  1  0.64011403  0.39487219  0.91175080  1.0
  Cl  Cl133  1  0.58769954  0.67115871  0.07653398  1.0
  Cl  Cl134  1  0.37803446  0.13864904  0.41037006  1.0
  Cl  Cl135  1  0.66577066  0.85809709  0.57341501  1.0
  Cl  Cl136  1  0.65606745  0.15605796  0.59689810  1.0
  Cl  Cl137  1  0.35213488  0.85334441  0.42807668  1.0
  O  O138  1  0.50628670  0.46328600  0.60317517  1.0
  O  O139  1  0.50069170  0.57655170  0.39305577  1.0
  O  O140  1  0.50455139  0.45586940  0.39246309  1.0
  O  O141  1  0.48728106  0.58143448  0.60144378  1.0
  O  O142  1  0.63292087  0.42489232  0.49889963  1.0
  O  O143  1  0.36967394  0.53684006  0.48816730  1.0
  O  O144  1  0.36663312  0.41860174  0.50758606  1.0
  O  O145  1  0.63005460  0.54501791  0.49721541  1.0
