# generated using pymatgen
data_ZnH17C25NO4
_symmetry_space_group_name_H-M   'P 1'
_cell_length_a   9.55284408
_cell_length_b   15.78736003
_cell_length_c   15.87924340
_cell_angle_alpha   89.66927498
_cell_angle_beta   89.98473918
_cell_angle_gamma   89.15310203
_symmetry_Int_Tables_number   1
_chemical_formula_structural   ZnH17C25NO4
_chemical_formula_sum   'Zn2 H34 C50 N2 O8'
_cell_volume   2394.51367323
_cell_formula_units_Z   2
loop_
 _symmetry_equiv_pos_site_id
 _symmetry_equiv_pos_as_xyz
  1  'x, y, z'
loop_
 _atom_site_type_symbol
 _atom_site_label
 _atom_site_symmetry_multiplicity
 _atom_site_fract_x
 _atom_site_fract_y
 _atom_site_fract_z
 _atom_site_occupancy
  Zn  Zn0  1  0.14564891  0.00213934  0.99897894  1.0
  Zn  Zn1  1  0.85221729  0.00208261  0.00018273  1.0
  H  H2  1  0.61219405  0.88867333  0.07121426  1.0
  H  H3  1  0.36732019  0.87415296  0.04482623  1.0
  H  H4  1  0.63133924  0.03011679  0.12784493  1.0
  H  H5  1  0.38711066  0.00001819  0.12958674  1.0
  H  H6  1  0.60674444  0.11667751  0.05813079  1.0
  H  H7  1  0.39015122  0.88452050  0.93465462  1.0
  H  H8  1  0.63598290  0.87129174  0.96205367  1.0
  H  H9  1  0.63073738  0.09539382  0.90640856  1.0
  H  H10  1  0.36508116  0.02169756  0.86762340  1.0
  H  H11  1  0.38559909  0.11261001  0.93048941  1.0
  H  H12  1  0.61093635  0.99140691  0.86814092  1.0
  H  H13  1  0.22569516  0.28700142  0.31453910  1.0
  H  H14  1  0.22466195  0.75363204  0.65522571  1.0
  H  H15  1  0.23333067  0.75159202  0.34478908  1.0
  H  H16  1  0.22052374  0.26155144  0.66070679  1.0
  H  H17  1  0.77016123  0.26612429  0.66081737  1.0
  H  H18  1  0.99896609  0.21048530  0.49364497  1.0
  H  H19  1  0.78503508  0.73170457  0.33382285  1.0
  H  H20  1  0.01154805  0.79397031  0.50608017  1.0
  H  H21  1  0.01530841  0.43014342  0.28358622  1.0
  H  H22  1  0.98972398  0.41864559  0.71248900  1.0
  H  H23  1  0.78196812  0.71516962  0.68313220  1.0
  H  H24  1  0.78249352  0.25340078  0.34555389  1.0
  H  H25  1  0.78161934  0.82135127  0.20329079  1.0
  H  H26  1  0.77069716  0.17817013  0.79235576  1.0
  H  H27  1  0.78100449  0.80706003  0.81096669  1.0
  H  H28  1  0.77856541  0.16483016  0.21537309  1.0
  H  H29  1  0.22280029  0.84279586  0.78509529  1.0
  H  H30  1  0.22088455  0.19644291  0.18603965  1.0
  H  H31  1  0.22849166  0.83990759  0.21339051  1.0
  H  H32  1  0.21955202  0.17366531  0.79235459  1.0
  H  H33  1  0.36250551  0.10125406  0.08364683  1.0
  H  H34  1  0.99213456  0.57437410  0.71594084  1.0
  H  H35  1  0.01608271  0.58587456  0.28702278  1.0
  C  C36  1  0.58105606  0.91109528  0.00829241  1.0
  C  C37  1  0.42049997  0.91082956  0.99572233  1.0
  C  C38  1  0.99997219  0.59060492  0.57986354  1.0
  C  C39  1  0.00392289  0.54751658  0.50073702  1.0
  C  C40  1  0.12739090  0.26043476  0.29278300  1.0
  C  C41  1  0.00432362  0.27571753  0.33894536  1.0
  C  C42  1  0.00542099  0.32434018  0.41893733  1.0
  C  C43  1  0.12748170  0.76484254  0.68978746  1.0
  C  C44  1  0.00333375  0.72886392  0.66041336  1.0
  C  C45  1  0.00403562  0.68009061  0.58060574  1.0
  C  C46  1  0.01246780  0.54959034  0.34559209  1.0
  C  C47  1  0.13420033  0.76666194  0.31359120  1.0
  C  C48  1  0.12181790  0.24323108  0.68965903  1.0
  C  C49  1  0.86881418  0.24583136  0.68969157  1.0
  C  C50  1  0.99536638  0.26920739  0.65188725  1.0
  C  C51  1  0.99696736  0.32043209  0.57294340  1.0
  C  C52  1  0.99992760  0.27958927  0.49512960  1.0
  C  C53  1  0.99776334  0.40991500  0.57588770  1.0
  C  C54  1  0.88234878  0.75548276  0.30730475  1.0
  C  C55  1  0.00939846  0.73594727  0.34794337  1.0
  C  C56  1  0.01016869  0.68422809  0.42657096  1.0
  C  C57  1  0.00985924  0.72488738  0.50446581  1.0
  C  C58  1  0.00859534  0.59472265  0.42358169  1.0
  C  C59  1  0.01222418  0.46313198  0.34370990  1.0
  C  C60  1  0.00795827  0.41388327  0.41968778  1.0
  C  C61  1  0.00335255  0.45707159  0.49874486  1.0
  C  C62  1  0.99477747  0.54136803  0.65583350  1.0
  C  C63  1  0.99360582  0.45493161  0.65393261  1.0
  C  C64  1  0.87882392  0.74305951  0.70554758  1.0
  C  C65  1  0.87854642  0.24124175  0.31019049  1.0
  C  C66  1  0.00225257  0.89096682  0.12338722  1.0
  C  C67  1  0.00492617  0.83566860  0.20038617  1.0
  C  C68  1  0.99787384  0.11733603  0.11848528  1.0
  C  C69  1  0.99941748  0.17516933  0.19300973  1.0
  C  C70  1  0.00059588  0.88806834  0.88004408  1.0
  C  C71  1  0.00189188  0.83030225  0.80558223  1.0
  C  C72  1  0.99632275  0.11501597  0.87710509  1.0
  C  C73  1  0.99516726  0.17068437  0.80027750  1.0
  C  C74  1  0.88006017  0.80514275  0.23455073  1.0
  C  C75  1  0.86875588  0.19701105  0.76311886  1.0
  C  C76  1  0.87793130  0.79396457  0.77691729  1.0
  C  C77  1  0.87587132  0.19199251  0.23774048  1.0
  C  C78  1  0.12694971  0.81445904  0.76200075  1.0
  C  C79  1  0.12505328  0.21014937  0.22095872  1.0
  C  C80  1  0.13199415  0.81574276  0.24039110  1.0
  C  C81  1  0.12173702  0.19451964  0.76301941  1.0
  C  C82  1  0.57846671  0.03513433  0.91829091  1.0
  C  C83  1  0.57741379  0.05071748  0.07007817  1.0
  C  C84  1  0.41763146  0.04036198  0.07626825  1.0
  C  C85  1  0.41806411  0.04601448  0.92365005  1.0
  N  N86  1  0.63342420  0.99919786  0.99899792  1.0
  N  N87  1  0.36436854  0.99938060  0.99851110  1.0
  O  O88  1  0.11999526  0.91467948  0.09435345  1.0
  O  O89  1  0.88269505  0.91126571  0.09325315  1.0
  O  O90  1  0.11596383  0.09637119  0.08702577  1.0
  O  O91  1  0.87921520  0.09193151  0.09316521  1.0
  O  O92  1  0.11889301  0.91092513  0.90844084  1.0
  O  O93  1  0.88139206  0.91129997  0.90860435  1.0
  O  O94  1  0.11570857  0.09114640  0.90472848  1.0
  O  O95  1  0.87858939  0.09428861  0.90820567  1.0
