# generated using pymatgen
data_Al6H26C60O31
_symmetry_space_group_name_H-M   'P 1'
_cell_length_a   10.11124628
_cell_length_b   12.21034972
_cell_length_c   23.85137727
_cell_angle_alpha   86.02716162
_cell_angle_beta   84.58578445
_cell_angle_gamma   66.18736020
_symmetry_Int_Tables_number   1
_chemical_formula_structural   Al6H26C60O31
_chemical_formula_sum   'Al6 H26 C60 O31'
_cell_volume   2680.45958761
_cell_formula_units_Z   1
loop_
 _symmetry_equiv_pos_site_id
 _symmetry_equiv_pos_as_xyz
  1  'x, y, z'
loop_
 _atom_site_type_symbol
 _atom_site_label
 _atom_site_symmetry_multiplicity
 _atom_site_fract_x
 _atom_site_fract_y
 _atom_site_fract_z
 _atom_site_occupancy
  Al  Al0  1  0.61992277  0.59737040  0.49213262  1.0
  Al  Al1  1  0.58893238  0.34577429  0.50128329  1.0
  Al  Al2  1  0.31538676  0.56962691  0.50525237  1.0
  Al  Al3  1  0.10499077  0.00990543  0.01289079  1.0
  Al  Al4  1  0.40766478  0.03901140  0.00353613  1.0
  Al  Al5  1  0.13217251  0.26282870  0.00319598  1.0
  H  H6  1  0.18678782  0.39100312  0.85275221  1.0
  H  H7  1  0.75627276  0.26107722  0.75739284  1.0
  H  H8  1  0.16570807  0.34321042  0.26763653  1.0
  H  H9  1  0.15796220  0.90075100  0.17155719  1.0
  H  H10  1  0.61261789  0.80110189  0.13451734  1.0
  H  H11  1  0.65980268  0.73153180  0.23441739  1.0
  H  H12  1  0.11013168  0.81062079  0.37251792  1.0
  H  H13  1  0.56826875  0.70698257  0.33275204  1.0
  H  H14  1  0.95264503  0.39451755  0.15113208  1.0
  H  H15  1  0.60814862  0.10193892  0.85729839  1.0
  H  H16  1  0.86247318  0.07856704  0.15840974  1.0
  H  H17  1  0.92468486  0.50523392  0.23887350  1.0
  H  H18  1  0.80703875  0.09553745  0.26357160  1.0
  H  H19  1  0.85873354  0.52585658  0.34270722  1.0
  H  H20  1  0.77246978  0.20807974  0.34981101  1.0
  H  H21  1  0.09857529  0.49119461  0.76144210  1.0
  H  H22  1  0.13526035  0.50767841  0.65677533  1.0
  H  H23  1  0.55601793  0.21762024  0.66016018  1.0
  H  H24  1  0.19283958  0.86780949  0.75839831  1.0
  H  H25  1  0.52758307  0.74786865  0.74690694  1.0
  H  H26  1  0.01696283  0.33325634  0.73340707  1.0
  H  H27  1  0.59542898  0.24136274  0.22460162  1.0
  H  H28  1  0.02564401  0.92772483  0.23498112  1.0
  H  H29  1  0.73493064  0.04796934  0.77125110  1.0
  H  H30  1  0.70451779  0.74195400  0.45601305  1.0
  H  H31  1  0.01176248  0.87393012  0.98907168  1.0
  C  C32  1  0.77040711  0.38985040  0.56959443  1.0
  C  C33  1  0.21748467  0.44022485  0.68137913  1.0
  C  C34  1  0.45589868  0.27567440  0.68263483  1.0
  C  C35  1  0.43786909  0.26502218  0.74193754  1.0
  C  C36  1  0.30667698  0.34412158  0.77117191  1.0
  C  C37  1  0.28767699  0.33368879  0.83045970  1.0
  C  C38  1  0.52629660  0.16958248  0.83248535  1.0
  C  C39  1  0.54667725  0.17790341  0.77457653  1.0
  C  C40  1  0.39618790  0.84561450  0.87397967  1.0
  C  C41  1  0.41949277  0.79283663  0.76780186  1.0
  C  C42  1  0.30092829  0.82217159  0.73759260  1.0
  C  C43  1  0.37421244  0.38185778  0.59126690  1.0
  C  C44  1  0.31253087  0.79425358  0.68086822  1.0
  C  C45  1  0.40820439  0.81998292  0.82463698  1.0
  C  C46  1  0.32613673  0.76651446  0.63182121  1.0
  C  C47  1  0.91722763  0.24239089  0.87221165  1.0
  C  C48  1  0.84881127  0.27914956  0.76714505  1.0
  C  C49  1  0.92290629  0.31614950  0.72465360  1.0
  C  C50  1  0.88127614  0.33602723  0.66918764  1.0
  C  C51  1  0.88626939  0.26038002  0.82318436  1.0
  C  C52  1  0.84179004  0.35610299  0.62134326  1.0
  C  C53  1  0.37045422  0.25514531  0.13472042  1.0
  C  C54  1  0.36173620  0.71431102  0.57726424  1.0
  C  C55  1  0.38875633  0.28794173  0.24110078  1.0
  C  C56  1  0.27367456  0.32278880  0.28080626  1.0
  C  C57  1  0.29153384  0.33587515  0.33693291  1.0
  C  C58  1  0.37440340  0.27238393  0.18421733  1.0
  C  C59  1  0.31070393  0.34835534  0.38555752  1.0
  C  C60  1  0.38059314  0.85455250  0.14872827  1.0
  C  C61  1  0.34311521  0.75500347  0.35761846  1.0
  C  C62  1  0.17170642  0.84276343  0.28646888  1.0
  C  C63  1  0.19913437  0.80350847  0.34150443  1.0
  C  C64  1  0.45851525  0.74485632  0.31898147  1.0
  C  C65  1  0.75554398  0.39024390  0.41162346  1.0
  C  C66  1  0.43383492  0.78094780  0.26209566  1.0
  C  C67  1  0.28800695  0.83069895  0.24481271  1.0
  C  C68  1  0.26559243  0.86477299  0.18764576  1.0
  C  C69  1  0.52430979  0.80729150  0.16576021  1.0
  C  C70  1  0.54951876  0.76993068  0.22095792  1.0
  C  C71  1  0.90957490  0.23696789  0.14949826  1.0
  C  C72  1  0.81195189  0.36751505  0.35160540  1.0
  C  C73  1  0.89215964  0.44008298  0.26334228  1.0
  C  C74  1  0.85605650  0.45191466  0.32037007  1.0
  C  C75  1  0.80839061  0.27114930  0.32536485  1.0
  C  C76  1  0.34894875  0.37960793  0.43650891  1.0
  C  C77  1  0.84510124  0.25693415  0.26687249  1.0
  C  C78  1  0.88615732  0.34370084  0.23492304  1.0
  C  C79  1  0.91859412  0.33081927  0.17604313  1.0
  C  C80  1  0.86798190  0.15120102  0.18103844  1.0
  C  C81  1  0.83785942  0.16083939  0.23846679  1.0
  C  C82  1  0.36338451  0.89501990  0.92898655  1.0
  C  C83  1  0.36581686  0.22813942  0.92159711  1.0
  C  C84  1  0.97415356  0.21319394  0.92684691  1.0
  C  C85  1  0.34789642  0.90078489  0.09026913  1.0
  C  C86  1  0.34912091  0.22677581  0.07964798  1.0
  C  C87  1  0.37454137  0.70750204  0.41622020  1.0
  C  C88  1  0.95835501  0.21728467  0.08894965  1.0
  C  C89  1  0.39542516  0.24760208  0.86046706  1.0
  C  C90  1  0.34778730  0.36212037  0.65278125  1.0
  C  C91  1  0.19798227  0.43096102  0.73909888  1.0
  O  O92  1  0.48705657  0.69366716  0.55484966  1.0
  O  O93  1  0.46981193  0.30894041  0.45550274  1.0
  O  O94  1  0.26314128  0.47918797  0.45788957  1.0
  O  O95  1  0.27608930  0.68267206  0.44576071  1.0
  O  O96  1  0.50701150  0.50351648  0.49981311  1.0
  O  O97  1  0.99865000  0.10968869  0.94779987  1.0
  O  O98  1  0.24292192  0.90660963  0.95422776  1.0
  O  O99  1  0.45771718  0.92790443  0.94692998  1.0
  O  O100  1  0.45551627  0.13491807  0.94637363  1.0
  O  O101  1  0.24742264  0.30181562  0.94562600  1.0
  O  O102  1  0.99981794  0.29585468  0.94879169  1.0
  O  O103  1  0.73926546  0.49578164  0.55085436  1.0
  O  O104  1  0.97649740  0.11817929  0.06956740  1.0
  O  O105  1  0.22244559  0.92414304  0.07534281  1.0
  O  O106  1  0.44946967  0.91862433  0.05872952  1.0
  O  O107  1  0.44128738  0.12917023  0.05898080  1.0
  O  O108  1  0.23475708  0.29960904  0.05730220  1.0
  O  O109  1  0.98636021  0.30058691  0.06072137  1.0
  O  O110  1  0.21642482  0.10520546  0.00570085  1.0
  O  O111  1  0.73977926  0.30938559  0.54841092  1.0
  O  O112  1  0.49060845  0.30812395  0.56610754  1.0
  O  O113  1  0.28258087  0.47559565  0.56788887  1.0
  O  O114  1  0.26346892  0.68872964  0.55733529  1.0
  O  O115  1  0.49690347  0.69077144  0.43260319  1.0
  O  O116  1  0.73956899  0.48856094  0.43114705  1.0
  O  O117  1  0.72015607  0.30937500  0.43855574  1.0
  O  O118  1  0.52316171  0.26647885  0.25668210  1.0
  O  O119  1  0.03053423  0.89194510  0.27298708  1.0
  O  O120  1  0.67013789  0.10462462  0.74505227  1.0
  O  O121  1  0.72423373  0.68298721  0.48673698  1.0
  O  O122  1  0.99955060  0.92499122  0.02004581  1.0
