# generated using pymatgen
data_AlH11C16O5
_symmetry_space_group_name_H-M   'P 1'
_cell_length_a   6.68148701
_cell_length_b   17.50720174
_cell_length_c   21.11954918
_cell_angle_alpha   107.61744166
_cell_angle_beta   89.99805995
_cell_angle_gamma   89.99297344
_symmetry_Int_Tables_number   1
_chemical_formula_structural   AlH11C16O5
_chemical_formula_sum   'Al4 H44 C64 O20'
_cell_volume   2354.57389759
_cell_formula_units_Z   4
loop_
 _symmetry_equiv_pos_site_id
 _symmetry_equiv_pos_as_xyz
  1  'x, y, z'
loop_
 _atom_site_type_symbol
 _atom_site_label
 _atom_site_symmetry_multiplicity
 _atom_site_fract_x
 _atom_site_fract_y
 _atom_site_fract_z
 _atom_site_occupancy
  Al  Al0  1  0.88521469  0.49981429  0.49955940  1.0
  Al  Al1  1  0.38522101  0.50020178  0.50045999  1.0
  Al  Al2  1  0.35777801  0.00016724  0.00026192  1.0
  Al  Al3  1  0.85779563  0.99988024  0.99988225  1.0
  H  H4  1  0.43296985  0.74783796  0.30922481  1.0
  H  H5  1  0.93270675  0.25191281  0.69063355  1.0
  H  H6  1  0.86501393  0.84244386  0.25622400  1.0
  H  H7  1  0.36467483  0.15761568  0.74381956  1.0
  H  H8  1  0.09527073  0.88742605  0.28673567  1.0
  H  H9  1  0.59481065  0.11253268  0.71325081  1.0
  H  H10  1  0.10554378  0.81324439  0.36209373  1.0
  H  H11  1  0.60512584  0.18669393  0.63788539  1.0
  H  H12  1  0.87460288  0.76852532  0.33098946  1.0
  H  H13  1  0.37432411  0.23153042  0.66904356  1.0
  H  H14  1  0.84412690  0.72173800  0.17196413  1.0
  H  H15  1  0.34415339  0.27836639  0.82810757  1.0
  H  H16  1  0.09853259  0.59552308  0.19807102  1.0
  H  H17  1  0.59877024  0.40443586  0.80189567  1.0
  H  H18  1  0.40506945  0.72737369  0.16601274  1.0
  H  H19  1  0.90502516  0.27247791  0.83387626  1.0
  H  H20  1  0.42573898  0.65843575  0.24263654  1.0
  H  H21  1  0.92583745  0.34133931  0.75720847  1.0
  H  H22  1  0.87006038  0.63636236  0.23509213  1.0
  H  H23  1  0.37017992  0.36369503  0.76494788  1.0
  H  H24  1  0.41635076  0.87215865  0.34015426  1.0
  H  H25  1  0.59325350  0.00136601  0.36720506  1.0
  H  H26  1  0.74778172  0.04714159  0.27733299  1.0
  H  H27  1  0.72653620  0.95929493  0.15947682  1.0
  H  H28  1  0.54727720  0.83055916  0.13247636  1.0
  H  H29  1  0.91588119  0.12758693  0.65975751  1.0
  H  H30  1  0.09279595  0.99835836  0.63272959  1.0
  H  H31  1  0.24752072  0.95264797  0.72260110  1.0
  H  H32  1  0.22657499  0.04057643  0.84042826  1.0
  H  H33  1  0.04733892  0.16935924  0.86741613  1.0
  H  H34  1  0.80545801  0.71007368  0.06255403  1.0
  H  H35  1  0.88767858  0.64506549  0.94405172  1.0
  H  H36  1  0.18536276  0.55505665  0.91317945  1.0
  H  H37  1  0.39410569  0.52907567  0.00240585  1.0
  H  H38  1  0.31001328  0.59251990  0.12010902  1.0
  H  H39  1  0.30585141  0.28998738  0.93754896  1.0
  H  H40  1  0.38849537  0.35492705  0.05602206  1.0
  H  H41  1  0.68631745  0.44483992  0.08678378  1.0
  H  H42  1  0.89471220  0.47081252  0.99747943  1.0
  H  H43  1  0.81023732  0.40741960  0.87981211  1.0
  H  H44  1  0.63506907  0.59697815  0.49354177  1.0
  H  H45  1  0.13510676  0.40298355  0.50637718  1.0
  H  H46  1  0.60729488  0.89435357  0.97690213  1.0
  H  H47  1  0.10719129  0.10555446  0.02098263  1.0
  C  C48  1  0.63582638  0.42356019  0.57814066  1.0
  C  C49  1  0.13595835  0.57645216  0.42187098  1.0
  C  C50  1  0.63453176  0.38886970  0.39888974  1.0
  C  C51  1  0.13421771  0.61114238  0.60113129  1.0
  C  C52  1  0.13125650  0.67375257  0.66390139  1.0
  C  C53  1  0.63145241  0.32625363  0.33613785  1.0
  C  C54  1  0.12439651  0.72660453  0.71714875  1.0
  C  C55  1  0.62456097  0.27338294  0.28288828  1.0
  C  C56  1  0.11713599  0.78462058  0.77608181  1.0
  C  C57  1  0.61721996  0.21535059  0.22397181  1.0
  C  C58  1  0.11033759  0.83697889  0.82962750  1.0
  C  C59  1  0.61029687  0.16298155  0.17045565  1.0
  C  C60  1  0.34565494  0.76468164  0.21397772  1.0
  C  C61  1  0.84552602  0.23516521  0.78592912  1.0
  C  C62  1  0.01965995  0.82951611  0.26673623  1.0
  C  C63  1  0.51932331  0.17047461  0.73326543  1.0
  C  C64  1  0.02634182  0.78052346  0.31628742  1.0
  C  C65  1  0.52604864  0.21945724  0.68370758  1.0
  C  C66  1  0.13719398  0.61862643  0.37304662  1.0
  C  C67  1  0.63715906  0.38134040  0.62693708  1.0
  C  C68  1  0.12130326  0.78244666  0.20055981  1.0
  C  C69  1  0.62116767  0.21749149  0.79941371  1.0
  C  C70  1  0.34896614  0.71603052  0.26429074  1.0
  C  C71  1  0.84886006  0.28378923  0.73559832  1.0
  C  C72  1  0.13428017  0.69952664  0.28450169  1.0
  C  C73  1  0.63417450  0.30040478  0.71546070  1.0
  C  C74  1  0.01934606  0.65211187  0.22109443  1.0
  C  C75  1  0.51942917  0.34787814  0.77891019  1.0
  C  C76  1  0.00043455  0.70181472  0.17187924  1.0
  C  C77  1  0.50050777  0.29820174  0.82814133  1.0
  C  C78  1  0.13841140  0.65454338  0.33197391  1.0
  C  C79  1  0.63832435  0.34539278  0.66798852  1.0
  C  C80  1  0.11116994  0.82833540  0.15410488  1.0
  C  C81  1  0.61104500  0.17164920  0.84590360  1.0
  C  C82  1  0.10798017  0.86638336  0.11468150  1.0
  C  C83  1  0.60786039  0.13369276  0.88539769  1.0
  C  C84  1  0.60808005  0.10269636  0.10656482  1.0
  C  C85  1  0.10809584  0.89722474  0.89353546  1.0
  C  C86  1  0.60756048  0.08765385  0.93111483  1.0
  C  C87  1  0.10771281  0.91249751  0.06902391  1.0
  C  C88  1  0.46729183  0.84140554  0.23392069  1.0
  C  C89  1  0.48327855  0.89063842  0.29996017  1.0
  C  C90  1  0.58339183  0.96407409  0.31550997  1.0
  C  C91  1  0.66978218  0.98979061  0.26522954  1.0
  C  C92  1  0.65731539  0.94109541  0.19938183  1.0
  C  C93  1  0.55760168  0.86771879  0.18419945  1.0
  C  C94  1  0.96707603  0.15841517  0.76598786  1.0
  C  C95  1  0.98293404  0.10913744  0.69995239  1.0
  C  C96  1  0.08306316  0.03569530  0.68441715  1.0
  C  C97  1  0.16958041  0.01001899  0.73470178  1.0
  C  C98  1  0.15724582  0.05875664  0.80053305  1.0
  C  C99  1  0.05752337  0.13214497  0.81570584  1.0
  C  C100  1  0.05207448  0.65713900  0.10032522  1.0
  C  C101  1  0.93467958  0.67019319  0.04938477  1.0
  C  C102  1  0.98146321  0.63390380  0.98261195  1.0
  C  C103  1  0.14782912  0.58345333  0.96531783  1.0
  C  C104  1  0.26513704  0.56901137  0.01525604  1.0
  C  C105  1  0.21695076  0.60538585  0.08206250  1.0
  C  C106  1  0.55237025  0.34285289  0.89968451  1.0
  C  C107  1  0.43514717  0.32981137  0.95066550  1.0
  C  C108  1  0.48216303  0.36607277  0.01742302  1.0
  C  C109  1  0.64859387  0.41647213  0.03466061  1.0
  C  C110  1  0.76571581  0.43090394  0.98467455  1.0
  C  C111  1  0.71730830  0.39455657  0.91788931  1.0
  O  O112  1  0.46420069  0.41282233  0.42395923  1.0
  O  O113  1  0.96385569  0.58701487  0.57624790  1.0
  O  O114  1  0.80547167  0.43965214  0.55765040  1.0
  O  O115  1  0.30569121  0.56012600  0.44216879  1.0
  O  O116  1  0.80622336  0.41284187  0.42262982  1.0
  O  O117  1  0.30590169  0.58735237  0.57722158  1.0
  O  O118  1  0.96536943  0.55968724  0.44124129  1.0
  O  O119  1  0.46514578  0.44059998  0.55900355  1.0
  O  O120  1  0.63527111  0.54731598  0.50488265  1.0
  O  O121  1  0.13530729  0.45270856  0.49513463  1.0
  O  O122  1  0.77782694  0.06964949  0.94987122  1.0
  O  O123  1  0.27795432  0.93061693  0.05036739  1.0
  O  O124  1  0.43716614  0.08002674  0.08138747  1.0
  O  O125  1  0.93709077  0.91996235  0.91865906  1.0
  O  O126  1  0.43679525  0.06927958  0.94942779  1.0
  O  O127  1  0.93698866  0.93082114  0.05064778  1.0
  O  O128  1  0.27866506  0.92088542  0.91866238  1.0
  O  O129  1  0.77865349  0.07894826  0.08148200  1.0
  O  O130  1  0.60766346  0.95235136  0.99047135  1.0
  O  O131  1  0.10761437  0.04767309  0.00951710  1.0
