# generated using pymatgen
data_Al2H10C24S2Cl2O11
_symmetry_space_group_name_H-M   'P 1'
_cell_length_a   6.61241115
_cell_length_b   12.47216190
_cell_length_c   17.66628429
_cell_angle_alpha   92.70180964
_cell_angle_beta   100.19629595
_cell_angle_gamma   101.87719881
_symmetry_Int_Tables_number   1
_chemical_formula_structural   Al2H10C24S2Cl2O11
_chemical_formula_sum   'Al2 H10 C24 S2 Cl2 O11'
_cell_volume   1397.95559629
_cell_formula_units_Z   1
loop_
 _symmetry_equiv_pos_site_id
 _symmetry_equiv_pos_as_xyz
  1  'x, y, z'
loop_
 _atom_site_type_symbol
 _atom_site_label
 _atom_site_symmetry_multiplicity
 _atom_site_fract_x
 _atom_site_fract_y
 _atom_site_fract_z
 _atom_site_occupancy
  Al  Al0  1  0.01125652  0.50715151  0.50108634  1.0
  Al  Al1  1  0.50751354  0.50244844  0.49787166  1.0
  H  H2  1  0.33111488  0.54430246  0.59767731  1.0
  H  H3  1  0.69518078  0.37994278  0.44453818  1.0
  H  H4  1  0.82352500  0.47124092  0.27758674  1.0
  H  H5  1  0.72668248  0.44602188  0.13366730  1.0
  H  H6  1  0.36964697  0.59555583  0.12166691  1.0
  H  H7  1  0.59285147  0.39114897  0.86993726  1.0
  H  H8  1  0.17736648  0.53142414  0.73453062  1.0
  H  H9  1  0.24711160  0.54168386  0.87811483  1.0
  H  H10  1  0.23365243  0.84627773  0.53915250  1.0
  H  H11  1  0.59935368  0.11909535  0.45708295  1.0
  C  C12  1  0.83285003  0.70039950  0.51107847  1.0
  C  C13  1  0.81818633  0.47398314  0.63622201  1.0
  C  C14  1  0.17564372  0.30695108  0.48508713  1.0
  C  C15  1  0.19535142  0.53663699  0.36600524  1.0
  C  C16  1  0.14948888  0.54076626  0.28045977  1.0
  C  C17  1  0.94167629  0.49636872  0.24223086  1.0
  C  C18  1  0.88781852  0.48280030  0.16228641  1.0
  C  C19  1  0.04341239  0.51565559  0.11770067  1.0
  C  C20  1  0.24998219  0.56611543  0.15544477  1.0
  C  C21  1  0.30208700  0.57837270  0.23573728  1.0
  C  C22  1  0.99590333  0.49837393  0.03620062  1.0
  C  C23  1  0.95914574  0.48255516  0.96588717  1.0
  C  C24  1  0.92314986  0.47054362  0.88430655  1.0
  C  C25  1  0.72124801  0.42384441  0.84073206  1.0
  C  C26  1  0.68418038  0.41983677  0.76039285  1.0
  C  C27  1  0.84743370  0.46173976  0.72104059  1.0
  C  C28  1  0.05027258  0.50212245  0.76517537  1.0
  C  C29  1  0.08944826  0.50755622  0.84509769  1.0
  C  C30  1  0.90017449  0.12642671  0.47540503  1.0
  C  C31  1  0.09755393  0.88225660  0.52245994  1.0
  C  C32  1  0.10646336  0.18901786  0.48897846  1.0
  C  C33  1  0.89392141  0.81992166  0.50779322  1.0
  C  C34  1  0.09942085  0.99361846  0.51143076  1.0
  C  C35  1  0.89724136  0.01425959  0.48816434  1.0
  S  S36  1  0.29350959  0.11163436  0.51923243  1.0
  S  S37  1  0.70383066  0.89577749  0.48001512  1.0
  Cl  Cl38  1  0.55588954  0.64501066  0.27788316  1.0
  Cl  Cl39  1  0.43301245  0.35798917  0.71167570  1.0
  O  O40  1  0.98325101  0.65129301  0.52924644  1.0
  O  O41  1  0.64779129  0.49886940  0.60424587  1.0
  O  O42  1  0.37430065  0.34735377  0.49707575  1.0
  O  O43  1  0.05478120  0.55481765  0.40252002  1.0
  O  O44  1  0.03193426  0.36138103  0.46997482  1.0
  O  O45  1  0.36439356  0.50827773  0.39514831  1.0
  O  O46  1  0.63756423  0.65550844  0.49590376  1.0
  O  O47  1  0.97169107  0.46475369  0.60353513  1.0
  O  O48  1  0.29788317  0.54550812  0.54200491  1.0
  O  O49  1  0.72460993  0.45798978  0.46107518  1.0
  O  O50  1  0.73036832  0.16947713  0.45184247  1.0
