# generated using pymatgen
data_AlH21C45(ClO)6
_symmetry_space_group_name_H-M   'P 1'
_cell_length_a   3.95659929
_cell_length_b   23.53774060
_cell_length_c   23.57694932
_cell_angle_alpha   119.92181676
_cell_angle_beta   90.44893209
_cell_angle_gamma   92.30839485
_symmetry_Int_Tables_number   1
_chemical_formula_structural   AlH21C45(ClO)6
_chemical_formula_sum   'Al1 H21 C45 Cl6 O6'
_cell_volume   1900.50137190
_cell_formula_units_Z   1
loop_
 _symmetry_equiv_pos_site_id
 _symmetry_equiv_pos_as_xyz
  1  'x, y, z'
loop_
 _atom_site_type_symbol
 _atom_site_label
 _atom_site_symmetry_multiplicity
 _atom_site_fract_x
 _atom_site_fract_y
 _atom_site_fract_z
 _atom_site_occupancy
  Al  Al0  1  0.99898269  0.99979080  0.50014010  1.0
  H  H1  1  0.55228362  0.99977496  0.32422453  1.0
  H  H2  1  0.55373153  0.05369700  0.25730587  1.0
  H  H3  1  0.19091828  0.17654839  0.15992794  1.0
  H  H4  1  0.44674790  0.06580370  0.80754539  1.0
  H  H5  1  0.74966776  0.12630152  0.89382744  1.0
  H  H6  1  0.75156548  0.18129947  0.01311028  1.0
  H  H7  1  0.49391147  0.21169129  0.10444788  1.0
  H  H8  1  0.52528937  0.17552806  0.67523450  1.0
  H  H9  1  0.52790037  0.24299023  0.79551328  1.0
  H  H10  1  0.20449848  0.33724425  0.01567454  1.0
  H  H11  1  0.35838478  0.69159585  0.25887671  1.0
  H  H12  1  0.70463896  0.61173453  0.23400087  1.0
  H  H13  1  0.72524504  0.49205988  0.16973938  1.0
  H  H14  1  0.46123264  0.39553343  0.10737641  1.0
  H  H15  1  0.50526236  0.82326200  0.50030132  1.0
  H  H16  1  0.50134464  0.70229513  0.44575894  1.0
  H  H17  1  0.16370039  0.47697246  0.31800900  1.0
  H  H18  1  0.42750951  0.23980744  0.43214938  1.0
  H  H19  1  0.77675491  0.26864125  0.37567675  1.0
  H  H20  1  0.77914660  0.33337117  0.32011802  1.0
  H  H21  1  0.46965973  0.39204715  0.28790971  1.0
  C  C22  1  0.50865090  0.05282178  0.45255825  1.0
  C  C23  1  0.47227854  0.89906226  0.44724264  1.0
  C  C24  1  0.51295096  0.04698617  0.60054386  1.0
  C  C25  1  0.52966270  0.05272099  0.34740054  1.0
  C  C26  1  0.52552468  0.08302550  0.30979663  1.0
  C  C27  1  0.32606313  0.16089407  0.23871161  1.0
  C  C28  1  0.32668967  0.19736985  0.20692880  1.0
  C  C29  1  0.49782718  0.05351639  0.71203745  1.0
  C  C30  1  0.47525378  0.09127655  0.77983782  1.0
  C  C31  1  0.62025131  0.17196061  0.92049417  1.0
  C  C32  1  0.62239757  0.20323806  0.98832737  1.0
  C  C33  1  0.50920680  0.08905875  0.41560462  1.0
  C  C34  1  0.48838016  0.15097646  0.33909936  1.0
  C  C35  1  0.48186942  0.18563922  0.30124893  1.0
  C  C36  1  0.48443913  0.26028587  0.23526695  1.0
  C  C37  1  0.48213793  0.29765222  0.20017023  1.0
  C  C38  1  0.48537769  0.26500715  0.13159265  1.0
  C  C39  1  0.51472934  0.15211072  0.70516047  1.0
  C  C40  1  0.50966157  0.18994558  0.77284634  1.0
  C  C41  1  0.33074577  0.25961376  0.92188880  1.0
  C  C42  1  0.33131775  0.29125951  0.99000943  1.0
  C  C43  1  0.41998536  0.78780411  0.34265105  1.0
  C  C44  1  0.39913826  0.71948951  0.31182719  1.0
  C  C45  1  0.57699355  0.58187644  0.25166294  1.0
  C  C46  1  0.58880886  0.51409051  0.21522674  1.0
  C  C47  1  0.51166047  0.08348535  0.67347992  1.0
  C  C48  1  0.48325148  0.16024504  0.81179815  1.0
  C  C49  1  0.47376213  0.19808274  0.88415561  1.0
  C  C50  1  0.47706102  0.26421249  0.02493537  1.0
  C  C51  1  0.47760502  0.29939649  0.09728262  1.0
  C  C52  1  0.46715876  0.36798968  0.13322563  1.0
  C  C53  1  0.47710087  0.79363218  0.44713509  1.0
  C  C54  1  0.46979599  0.72560889  0.41641382  1.0
  C  C55  1  0.27758889  0.57381088  0.33521162  1.0
  C  C56  1  0.28861343  0.50573064  0.29895774  1.0
  C  C57  1  0.48077475  0.15702291  0.44534287  1.0
  C  C58  1  0.46469450  0.18731052  0.40752671  1.0
  C  C59  1  0.64065341  0.24898042  0.32870415  1.0
  C  C60  1  0.64258399  0.28562053  0.29732113  1.0
  C  C61  1  0.45554882  0.82584265  0.41094402  1.0
  C  C62  1  0.42635312  0.68708362  0.34801699  1.0
  C  C63  1  0.42207109  0.61453970  0.31278097  1.0
  C  C64  1  0.44563935  0.47434336  0.23855562  1.0
  C  C65  1  0.46229519  0.40211493  0.20176692  1.0
  C  C66  1  0.47206291  0.36621962  0.23457971  1.0
  Cl  Cl67  1  0.38416941  0.82452504  0.29512221  1.0
  Cl  Cl68  1  0.44547292  0.20439593  0.52929596  1.0
  Cl  Cl69  1  0.48878591  0.96896819  0.67663721  1.0
  Cl  Cl70  1  0.06849058  0.60467752  0.40856401  1.0
  Cl  Cl71  1  0.11126907  0.08452355  0.19716766  1.0
  Cl  Cl72  1  0.13316383  0.30062546  0.88763492  1.0
  O  O73  1  0.74163913  0.00660612  0.57190862  1.0
  O  O74  1  0.75150575  0.06463041  0.49317509  1.0
  O  O75  1  0.71509643  0.92860140  0.43575397  1.0
  O  O76  1  0.28397575  0.06117787  0.57194899  1.0
  O  O77  1  0.24586114  0.92674732  0.48913602  1.0
  O  O78  1  0.26450445  0.01052108  0.43852996  1.0
