# generated using pymatgen
data_ZnH7C9(NO2)2
_symmetry_space_group_name_H-M   'P 1'
_cell_length_a   9.76914698
_cell_length_b   10.95571323
_cell_length_c   11.23922376
_cell_angle_alpha   90.62426483
_cell_angle_beta   89.97256663
_cell_angle_gamma   89.98142013
_symmetry_Int_Tables_number   1
_chemical_formula_structural   ZnH7C9(NO2)2
_chemical_formula_sum   'Zn2 H14 C18 N4 O8'
_cell_volume   1202.83973292
_cell_formula_units_Z   2
loop_
 _symmetry_equiv_pos_site_id
 _symmetry_equiv_pos_as_xyz
  1  'x, y, z'
loop_
 _atom_site_type_symbol
 _atom_site_label
 _atom_site_symmetry_multiplicity
 _atom_site_fract_x
 _atom_site_fract_y
 _atom_site_fract_z
 _atom_site_occupancy
  Zn  Zn0  1  0.64034353  0.49986528  0.49991045  1.0
  Zn  Zn1  1  0.34865883  0.49998177  0.50004140  1.0
  H  H2  1  0.28988855  0.52018052  0.10890804  1.0
  H  H3  1  0.85812137  0.37121878  0.63400287  1.0
  H  H4  1  0.23125050  0.61788778  0.32287311  1.0
  H  H5  1  0.07611640  0.68368218  0.28161788  1.0
  H  H6  1  0.23112926  0.38284290  0.67769896  1.0
  H  H7  1  0.07606542  0.31684756  0.71879982  1.0
  H  H8  1  0.28999307  0.47981255  0.89108774  1.0
  H  H9  1  0.59628970  0.45574315  0.09624385  1.0
  H  H10  1  0.59646235  0.54379853  0.90372241  1.0
  H  H11  1  0.28028544  0.11498344  0.50073979  1.0
  H  H12  1  0.28035948  0.88485570  0.49793564  1.0
  H  H13  1  0.71947826  0.88504114  0.49564146  1.0
  H  H14  1  0.71936462  0.11474610  0.50511846  1.0
  H  H15  1  0.85810410  0.62887586  0.36608591  1.0
  C  C16  1  0.49962272  0.26442353  0.50597874  1.0
  C  C17  1  0.37571575  0.93642463  0.49840200  1.0
  C  C18  1  0.49985245  0.87214488  0.49625410  1.0
  C  C19  1  0.49974865  0.12769349  0.50347124  1.0
  C  C20  1  0.62396589  0.93643662  0.49762759  1.0
  C  C21  1  0.62389420  0.06338970  0.50266949  1.0
  C  C22  1  0.06248647  0.57002441  0.42233788  1.0
  C  C23  1  0.06245349  0.43038713  0.57802652  1.0
  C  C24  1  0.91801263  0.57143626  0.42492201  1.0
  C  C25  1  0.91801755  0.42869400  0.57522147  1.0
  C  C26  1  0.49978999  0.73541133  0.49387654  1.0
  C  C27  1  0.49398596  0.51016623  0.73405365  1.0
  C  C28  1  0.49378293  0.48960903  0.26591692  1.0
  C  C29  1  0.38765985  0.50198781  0.06458794  1.0
  C  C30  1  0.38773632  0.49785788  0.93541026  1.0
  C  C31  1  0.49757070  0.48159376  0.13428481  1.0
  C  C32  1  0.49773418  0.51809389  0.86569990  1.0
  C  C33  1  0.37566733  0.06340583  0.50065099  1.0
  N  N34  1  0.85033624  0.49997318  0.50000311  1.0
  N  N35  1  0.13398390  0.50020501  0.50019189  1.0
  N  N36  1  0.13152378  0.63902161  0.34341037  1.0
  N  N37  1  0.13147318  0.36165406  0.65712477  1.0
  O  O38  1  0.61224181  0.31774950  0.53050086  1.0
  O  O39  1  0.61243420  0.68202696  0.46933476  1.0
  O  O40  1  0.38657391  0.31737998  0.48264622  1.0
  O  O41  1  0.38675043  0.68252422  0.51732858  1.0
  O  O42  1  0.60561771  0.53319295  0.68057385  1.0
  O  O43  1  0.60538463  0.46651566  0.31934010  1.0
  O  O44  1  0.38078468  0.48126768  0.68319296  1.0
  O  O45  1  0.38060922  0.51865143  0.31685026  1.0
