# generated using pymatgen
data_InH5C8O5
_symmetry_space_group_name_H-M   'P 1'
_cell_length_a   11.79415713
_cell_length_b   18.61739281
_cell_length_c   29.02648934
_cell_angle_alpha   90.02029475
_cell_angle_beta   90.00030404
_cell_angle_gamma   89.99996853
_symmetry_Int_Tables_number   1
_chemical_formula_structural   InH5C8O5
_chemical_formula_sum   'In16 H80 C128 O80'
_cell_volume   6373.53326390
_cell_formula_units_Z   16
loop_
 _symmetry_equiv_pos_site_id
 _symmetry_equiv_pos_as_xyz
  1  'x, y, z'
loop_
 _atom_site_type_symbol
 _atom_site_label
 _atom_site_symmetry_multiplicity
 _atom_site_fract_x
 _atom_site_fract_y
 _atom_site_fract_z
 _atom_site_occupancy
  In  In0  1  0.00265529  0.00193777  0.87492486  1.0
  In  In1  1  0.00323314  0.99989664  0.74992450  1.0
  In  In2  1  0.50228976  0.50205232  0.87499821  1.0
  In  In3  1  0.50265103  0.49806272  0.62507532  1.0
  In  In4  1  0.50324790  0.50010157  0.75007518  1.0
  In  In5  1  0.00229543  0.99795288  0.62499734  1.0
  In  In6  1  0.99735693  0.99805466  0.12506990  1.0
  In  In7  1  0.99676467  0.00010331  0.25007061  1.0
  In  In8  1  0.49770805  0.49795193  0.12499897  1.0
  In  In9  1  0.49735017  0.50193776  0.37492737  1.0
  In  In10  1  0.49677026  0.49989247  0.24992613  1.0
  In  In11  1  0.99770832  0.00204492  0.37500053  1.0
  In  In12  1  0.49999621  0.50000896  0.99998517  1.0
  In  In13  1  0.99999881  0.99999928  0.49997804  1.0
  In  In14  1  0.00000394  0.00000938  0.99998488  1.0
  In  In15  1  0.49999721  0.50000508  0.50002185  1.0
  H  H16  1  0.76038298  0.83193405  0.00942267  1.0
  H  H17  1  0.66014189  0.71288535  0.01222759  1.0
  H  H18  1  0.69074140  0.69420128  0.86521898  1.0
  H  H19  1  0.79101895  0.81321132  0.86251844  1.0
  H  H20  1  0.28534153  0.68569524  0.73741666  1.0
  H  H21  1  0.18603978  0.80518627  0.73972724  1.0
  H  H22  1  0.16898908  0.79253123  0.88729021  1.0
  H  H23  1  0.26870290  0.67323572  0.88500549  1.0
  H  H24  1  0.81380719  0.20238797  0.01231080  1.0
  H  H25  1  0.71408147  0.32159908  0.01013062  1.0
  H  H26  1  0.73870512  0.32322597  0.86254775  1.0
  H  H27  1  0.83842236  0.20401592  0.86465696  1.0
  H  H28  1  0.32933044  0.30195843  0.73976825  1.0
  H  H29  1  0.22999655  0.18259095  0.73738374  1.0
  H  H30  1  0.22370626  0.17760518  0.88531283  1.0
  H  H31  1  0.32307322  0.29694739  0.88763774  1.0
  H  H32  1  0.84264072  0.98134019  0.81260970  1.0
  H  H33  1  0.14455520  0.95213254  0.93749063  1.0
  H  H34  1  0.66234743  0.48045170  0.81301479  1.0
  H  H35  1  0.35820612  0.45209288  0.93667564  1.0
  H  H36  1  0.26038012  0.66806490  0.49057995  1.0
  H  H37  1  0.16013635  0.78711255  0.48777102  1.0
  H  H38  1  0.19074821  0.80580386  0.63477939  1.0
  H  H39  1  0.29102336  0.68679377  0.63748359  1.0
  H  H40  1  0.78534261  0.81429858  0.76258640  1.0
  H  H41  1  0.68603754  0.69480866  0.76027766  1.0
  H  H42  1  0.66899933  0.70746532  0.61271328  1.0
  H  H43  1  0.76871561  0.82676240  0.61499581  1.0
  H  H44  1  0.31379315  0.29761002  0.48768899  1.0
  H  H45  1  0.21408198  0.17839572  0.48987033  1.0
  H  H46  1  0.23871887  0.17677284  0.63745260  1.0
  H  H47  1  0.33841562  0.29598446  0.63534016  1.0
  H  H48  1  0.82933159  0.19803766  0.76023057  1.0
  H  H49  1  0.73000949  0.31740839  0.76261831  1.0
  H  H50  1  0.72368676  0.32240277  0.61469024  1.0
  H  H51  1  0.82304786  0.20305944  0.61236107  1.0
  H  H52  1  0.34263745  0.51866221  0.68739073  1.0
  H  H53  1  0.64455137  0.54786670  0.56251315  1.0
  H  H54  1  0.16234839  0.01954605  0.68698505  1.0
  H  H55  1  0.85821418  0.04790373  0.56331808  1.0
  H  H56  1  0.23961906  0.16806644  0.99057830  1.0
  H  H57  1  0.33985252  0.28711513  0.98777579  1.0
  H  H58  1  0.30925556  0.30579975  0.13478164  1.0
  H  H59  1  0.20897717  0.18679292  0.13748356  1.0
  H  H60  1  0.71466306  0.31429558  0.26258397  1.0
  H  H61  1  0.81397244  0.19480724  0.26027579  1.0
  H  H62  1  0.83099262  0.20746120  0.11271041  1.0
  H  H63  1  0.73128050  0.32676101  0.11499445  1.0
  H  H64  1  0.18620334  0.79760875  0.98768742  1.0
  H  H65  1  0.28591973  0.67839819  0.98987173  1.0
  H  H66  1  0.26128675  0.67677291  0.13745218  1.0
  H  H67  1  0.16158138  0.79598242  0.13533988  1.0
  H  H68  1  0.67066906  0.69803937  0.26023203  1.0
  H  H69  1  0.76999787  0.81741007  0.26261861  1.0
  H  H70  1  0.77629748  0.82240122  0.11468917  1.0
  H  H71  1  0.67692883  0.70305793  0.11236288  1.0
  H  H72  1  0.15735794  0.01866137  0.18738645  1.0
  H  H73  1  0.85545448  0.04785882  0.06250758  1.0
  H  H74  1  0.33765207  0.51954341  0.18698584  1.0
  H  H75  1  0.64178575  0.54790384  0.06331844  1.0
  H  H76  1  0.73962702  0.33193398  0.50942343  1.0
  H  H77  1  0.83986316  0.21288686  0.51222444  1.0
  H  H78  1  0.80925299  0.19420898  0.36521883  1.0
  H  H79  1  0.70897615  0.31321316  0.36252013  1.0
  H  H80  1  0.21465181  0.18570513  0.23741767  1.0
  H  H81  1  0.31396366  0.30519075  0.23973054  1.0
  H  H82  1  0.33100357  0.29252765  0.38729354  1.0
  H  H83  1  0.23128304  0.17323594  0.38500688  1.0
  H  H84  1  0.68620211  0.70239155  0.51231336  1.0
  H  H85  1  0.78592176  0.82160315  0.51013202  1.0
  H  H86  1  0.76128742  0.82322335  0.36255010  1.0
  H  H87  1  0.66157964  0.70401388  0.36466046  1.0
  H  H88  1  0.17067639  0.80195584  0.23976798  1.0
  H  H89  1  0.27000273  0.68258887  0.23737645  1.0
  H  H90  1  0.27629748  0.67759933  0.38530522  1.0
  H  H91  1  0.17692875  0.79694051  0.38763542  1.0
  H  H92  1  0.65735358  0.48133935  0.31261162  1.0
  H  H93  1  0.35545576  0.45214023  0.43749471  1.0
  H  H94  1  0.83765705  0.98045229  0.31301178  1.0
  H  H95  1  0.14179296  0.95208977  0.43667600  1.0
  C  C96  1  0.84534967  0.89871124  0.93474327  1.0
  C  C97  1  0.78129087  0.82928021  0.93583376  1.0
  C  C98  1  0.74444918  0.80123399  0.97812513  1.0
  C  C99  1  0.68944572  0.73518754  0.97962808  1.0
  C  C100  1  0.67082778  0.69634888  0.93891535  1.0
  C  C101  1  0.70643749  0.72483499  0.89655514  1.0
  C  C102  1  0.76149777  0.79083579  0.89506251  1.0
  C  C103  1  0.61333833  0.62464153  0.94017577  1.0
  C  C104  1  0.34998506  0.60475037  0.81011945  1.0
  C  C105  1  0.28336137  0.67311145  0.81110299  1.0
  C  C106  1  0.25912197  0.70954960  0.76999115  1.0
  C  C107  1  0.20449320  0.77566391  0.77123593  1.0
  C  C108  1  0.17364938  0.80600130  0.81366634  1.0
  C  C109  1  0.19513572  0.76866935  0.85470193  1.0
  C  C110  1  0.24991456  0.70259747  0.85346750  1.0
  C  C111  1  0.11919188  0.87860522  0.81481992  1.0
  C  C112  1  0.88910476  0.12458581  0.93960717  1.0
  C  C113  1  0.83124641  0.19617560  0.93858399  1.0
  C  C114  1  0.79697969  0.22931058  0.97969388  1.0
  C  C115  1  0.74207959  0.29538883  0.97857253  1.0
  C  C116  1  0.72090272  0.32918828  0.93625734  1.0
  C  C117  1  0.75597746  0.29636968  0.89515989  1.0
  C  C118  1  0.81093352  0.23029035  0.89627435  1.0
  C  C119  1  0.65730509  0.39877081  0.93520772  1.0
  C  C120  1  0.38600388  0.37882360  0.81486424  1.0
  C  C121  1  0.33072822  0.30645821  0.81380221  1.0
  C  C122  1  0.30602251  0.27404212  0.77134668  1.0
  C  C123  1  0.25140990  0.20790312  0.77009696  1.0
  C  C124  1  0.22109771  0.17340940  0.81124170  1.0
  C  C125  1  0.24779085  0.20518201  0.85371542  1.0
  C  C126  1  0.30245858  0.27131510  0.85494412  1.0
  C  C127  1  0.15550000  0.10462936  0.81016391  1.0
  C  C128  1  0.34534474  0.60129062  0.56525957  1.0
  C  C129  1  0.28129010  0.67072167  0.56416825  1.0
  C  C130  1  0.24445124  0.69876307  0.52187611  1.0
  C  C131  1  0.18944175  0.76481222  0.52037235  1.0
  C  C132  1  0.17082685  0.80365519  0.56108366  1.0
  C  C133  1  0.20643714  0.77517282  0.60344430  1.0
  C  C134  1  0.26149750  0.70917093  0.60493808  1.0
  C  C135  1  0.11333902  0.87536363  0.55982071  1.0
  C  C136  1  0.84999106  0.89524718  0.68988203  1.0
  C  C137  1  0.78337420  0.82688614  0.68890281  1.0
  C  C138  1  0.75912603  0.79044960  0.73001219  1.0
  C  C139  1  0.70449985  0.72433370  0.72876489  1.0
  C  C140  1  0.67365381  0.69399309  0.68633406  1.0
  C  C141  1  0.69513959  0.73132558  0.64529955  1.0
  C  C142  1  0.74992432  0.79739637  0.64653789  1.0
  C  C143  1  0.61919212  0.62139188  0.68518278  1.0
  C  C144  1  0.38909952  0.37541616  0.56039178  1.0
  C  C145  1  0.33123871  0.30381995  0.56141518  1.0
  C  C146  1  0.29697064  0.27068606  0.52030419  1.0
  C  C147  1  0.24207739  0.20460836  0.52142610  1.0
  C  C148  1  0.22090957  0.17081107  0.56374091  1.0
  C  C149  1  0.25598143  0.20362912  0.60484050  1.0
  C  C150  1  0.31093064  0.26970789  0.60372581  1.0
  C  C151  1  0.15730269  0.10122265  0.56479211  1.0
  C  C152  1  0.88600073  0.12117408  0.68513437  1.0
  C  C153  1  0.83071739  0.19354432  0.68619455  1.0
  C  C154  1  0.80602238  0.22596042  0.72865244  1.0
  C  C155  1  0.75140718  0.29209783  0.72990617  1.0
  C  C156  1  0.72109782  0.32659532  0.68876343  1.0
  C  C157  1  0.74777941  0.29482270  0.64628736  1.0
  C  C158  1  0.80243701  0.22868637  0.64505430  1.0
  C  C159  1  0.65550260  0.39537430  0.68984108  1.0
  C  C160  1  0.15464560  0.10128871  0.06525357  1.0
  C  C161  1  0.21870270  0.17072403  0.06416618  1.0
  C  C162  1  0.25555032  0.19877187  0.02187550  1.0
  C  C163  1  0.31055379  0.26481509  0.02037289  1.0
  C  C164  1  0.32917258  0.30365430  0.06108458  1.0
  C  C165  1  0.29356201  0.27516764  0.10344480  1.0
  C  C166  1  0.23849750  0.20916685  0.10493949  1.0
  C  C167  1  0.38666541  0.37536325  0.05982210  1.0
  C  C168  1  0.65001275  0.39524420  0.18988187  1.0
  C  C169  1  0.71662796  0.32688367  0.18890073  1.0
  C  C170  1  0.74087923  0.29044659  0.23000981  1.0
  C  C171  1  0.79550800  0.22433066  0.22876263  1.0
  C  C172  1  0.82635013  0.19399166  0.18633153  1.0
  C  C173  1  0.80486124  0.23132523  0.14529697  1.0
  C  C174  1  0.75007392  0.29739443  0.14653554  1.0
  C  C175  1  0.88081017  0.12139150  0.18518002  1.0
  C  C176  1  0.11089559  0.87541951  0.06038932  1.0
  C  C177  1  0.16875733  0.80382112  0.06141319  1.0
  C  C178  1  0.20302914  0.77068293  0.02030468  1.0
  C  C179  1  0.25792500  0.70461004  0.02142740  1.0
  C  C180  1  0.27909764  0.67081382  0.06374156  1.0
  C  C181  1  0.24401866  0.70363081  0.10484039  1.0
  C  C182  1  0.18906853  0.76971014  0.10372490  1.0
  C  C183  1  0.34269696  0.60122485  0.06479152  1.0
  C  C184  1  0.61398545  0.62118172  0.18513570  1.0
  C  C185  1  0.66927467  0.69354389  0.18619773  1.0
  C  C186  1  0.69397530  0.72596105  0.22865395  1.0
  C  C187  1  0.74858622  0.79209952  0.22990470  1.0
  C  C188  1  0.77890095  0.82659538  0.18876030  1.0
  C  C189  1  0.75220950  0.79482116  0.14628589  1.0
  C  C190  1  0.69754008  0.72868807  0.14505616  1.0
  C  C191  1  0.84449781  0.89537327  0.18983775  1.0
  C  C192  1  0.65465477  0.39872115  0.43474898  1.0
  C  C193  1  0.71871364  0.32927775  0.43583616  1.0
  C  C194  1  0.75555844  0.30123527  0.47812554  1.0
  C  C195  1  0.81056029  0.23519149  0.47962758  1.0
  C  C196  1  0.82917350  0.19635443  0.43891386  1.0
  C  C197  1  0.79356066  0.22483841  0.39655357  1.0
  C  C198  1  0.73850201  0.29083653  0.39506048  1.0
  C  C199  1  0.88666981  0.12464008  0.44017474  1.0
  C  C200  1  0.15000845  0.10474954  0.31011791  1.0
  C  C201  1  0.21662870  0.17311650  0.31110194  1.0
  C  C202  1  0.24087177  0.20955250  0.26999257  1.0
  C  C203  1  0.29550304  0.27566787  0.27124022  1.0
  C  C204  1  0.32634993  0.30600256  0.31367277  1.0
  C  C205  1  0.30485907  0.26867061  0.35470728  1.0
  C  C206  1  0.25007518  0.20260090  0.35346825  1.0
  C  C207  1  0.38081841  0.37860700  0.31482543  1.0
  C  C208  1  0.61088811  0.62458432  0.43961298  1.0
  C  C209  1  0.66875062  0.69617786  0.43858992  1.0
  C  C210  1  0.70302547  0.72931550  0.47969782  1.0
  C  C211  1  0.75792381  0.79539159  0.47857280  1.0
  C  C212  1  0.77909587  0.82919050  0.43625765  1.0
  C  C213  1  0.74401977  0.79636815  0.39516151  1.0
  C  C214  1  0.68906548  0.73028991  0.39627860  1.0
  C  C215  1  0.84269257  0.89877461  0.43520645  1.0
  C  C216  1  0.11399708  0.87882050  0.31486247  1.0
  C  C217  1  0.16927448  0.80645348  0.31379850  1.0
  C  C218  1  0.19397204  0.77404168  0.27134405  1.0
  C  C219  1  0.24859402  0.70790373  0.27009307  1.0
  C  C220  1  0.27890169  0.67340194  0.31123857  1.0
  C  C221  1  0.25221161  0.70517403  0.35371120  1.0
  C  C222  1  0.19754978  0.77130660  0.35493943  1.0
  C  C223  1  0.34450114  0.60462403  0.31015885  1.0
  O  O224  1  0.90986935  0.01167532  0.81236349  1.0
  O  O225  1  0.09513410  0.99402568  0.93768825  1.0
  O  O226  1  0.59622315  0.51174064  0.81264748  1.0
  O  O227  1  0.40734145  0.49412200  0.93725648  1.0
  O  O228  1  0.87021307  0.92639586  0.97352572  1.0
  O  O229  1  0.87038977  0.92433193  0.89517565  1.0
  O  O230  1  0.59152610  0.59792616  0.97974429  1.0
  O  O231  1  0.59109912  0.59605399  0.90141181  1.0
  O  O232  1  0.37745316  0.57822440  0.84891771  1.0
  O  O233  1  0.37523800  0.57907818  0.77057868  1.0
  O  O234  1  0.09779034  0.90732914  0.77603399  1.0
  O  O235  1  0.09968246  0.90587755  0.85443909  1.0
  O  O236  1  0.91454339  0.09700271  0.90087750  1.0
  O  O237  1  0.90799913  0.09699759  0.97918080  1.0
  O  O238  1  0.63477841  0.42518055  0.89558572  1.0
  O  O239  1  0.63014442  0.42581730  0.97390701  1.0
  O  O240  1  0.40433862  0.40653744  0.85445767  1.0
  O  O241  1  0.40931176  0.40690725  0.77608103  1.0
  O  O242  1  0.13147939  0.07864456  0.77058825  1.0
  O  O243  1  0.12768903  0.07804000  0.84890526  1.0
  O  O244  1  0.40986312  0.48832289  0.68763654  1.0
  O  O245  1  0.59513200  0.50597196  0.56231543  1.0
  O  O246  1  0.09621437  0.98826345  0.68734862  1.0
  O  O247  1  0.90737243  0.00588373  0.56273321  1.0
  O  O248  1  0.37020851  0.57360331  0.52647614  1.0
  O  O249  1  0.37038368  0.57566992  0.60482759  1.0
  O  O250  1  0.09151015  0.90207579  0.52025249  1.0
  O  O251  1  0.09111216  0.90395225  0.59858427  1.0
  O  O252  1  0.87746542  0.92177315  0.65108624  1.0
  O  O253  1  0.87523346  0.92091990  0.72942320  1.0
  O  O254  1  0.59778009  0.59266850  0.72396659  1.0
  O  O255  1  0.59968222  0.59412170  0.64556356  1.0
  O  O256  1  0.41453609  0.40300033  0.59912185  1.0
  O  O257  1  0.40799590  0.40300169  0.52081682  1.0
  O  O258  1  0.13477994  0.07481829  0.60441544  1.0
  O  O259  1  0.13015003  0.07417455  0.52609103  1.0
  O  O260  1  0.90433159  0.09346185  0.64553994  1.0
  O  O261  1  0.90930829  0.09309203  0.72391831  1.0
  O  O262  1  0.63148757  0.42135697  0.72941875  1.0
  O  O263  1  0.62769111  0.42196690  0.65109933  1.0
  O  O264  1  0.09013270  0.98832248  0.18763162  1.0
  O  O265  1  0.90489253  0.00597158  0.06230514  1.0
  O  O266  1  0.40378399  0.48825984  0.18734833  1.0
  O  O267  1  0.59262922  0.50588386  0.06273346  1.0
  O  O268  1  0.12978220  0.07360785  0.02646871  1.0
  O  O269  1  0.12961228  0.07566264  0.10481980  1.0
  O  O270  1  0.40848103  0.40207863  0.02025393  1.0
  O  O271  1  0.40890378  0.40394918  0.09858640  1.0
  O  O272  1  0.62254804  0.42177609  0.15108567  1.0
  O  O273  1  0.62476066  0.42091371  0.22942367  1.0
  O  O274  1  0.90222273  0.09266543  0.22396423  1.0
  O  O275  1  0.90031874  0.09412079  0.14556153  1.0
  O  O276  1  0.08545527  0.90299885  0.09911968  1.0
  O  O277  1  0.09200292  0.90300827  0.02081535  1.0
  O  O278  1  0.36521686  0.57481618  0.10441456  1.0
  O  O279  1  0.36986102  0.57418157  0.02609120  1.0
  O  O280  1  0.59565919  0.59346520  0.14554296  1.0
  O  O281  1  0.59067672  0.59309646  0.22391856  1.0
  O  O282  1  0.86852012  0.92135163  0.22941513  1.0
  O  O283  1  0.87230793  0.92196586  0.15109674  1.0
  O  O284  1  0.59013045  0.51168082  0.31236443  1.0
  O  O285  1  0.40489887  0.49402477  0.43769553  1.0
  O  O286  1  0.90378513  0.01173704  0.31264511  1.0
  O  O287  1  0.09266014  0.99411891  0.43725605  1.0
  O  O288  1  0.62979015  0.42639933  0.47353447  1.0
  O  O289  1  0.62961837  0.42434239  0.39518028  1.0
  O  O290  1  0.90849105  0.09792953  0.47974538  1.0
  O  O291  1  0.90890261  0.09605146  0.40140981  1.0
  O  O292  1  0.12254850  0.07821821  0.34891508  1.0
  O  O293  1  0.12476265  0.07907951  0.27057536  1.0
  O  O294  1  0.40221179  0.40733038  0.27603817  1.0
  O  O295  1  0.40033933  0.40587717  0.35444430  1.0
  O  O296  1  0.58545409  0.59700553  0.40088291  1.0
  O  O297  1  0.59198919  0.59699504  0.47918622  1.0
  O  O298  1  0.86521702  0.92518112  0.39558450  1.0
  O  O299  1  0.86984609  0.92582378  0.47390649  1.0
  O  O300  1  0.09565859  0.90653112  0.35445620  1.0
  O  O301  1  0.09069291  0.90690684  0.27607921  1.0
  O  O302  1  0.36851363  0.57863761  0.27058256  1.0
  O  O303  1  0.37230839  0.57803520  0.34890302  1.0
