# generated using pymatgen
data_ZnH23C25NO4
_symmetry_space_group_name_H-M   'P 1'
_cell_length_a   14.11776238
_cell_length_b   15.28890301
_cell_length_c   17.12168023
_cell_angle_alpha   91.19448094
_cell_angle_beta   98.96347460
_cell_angle_gamma   91.17699759
_symmetry_Int_Tables_number   1
_chemical_formula_structural   ZnH23C25NO4
_chemical_formula_sum   'Zn2 H46 C50 N2 O8'
_cell_volume   3648.64694980
_cell_formula_units_Z   2
loop_
 _symmetry_equiv_pos_site_id
 _symmetry_equiv_pos_as_xyz
  1  'x, y, z'
loop_
 _atom_site_type_symbol
 _atom_site_label
 _atom_site_symmetry_multiplicity
 _atom_site_fract_x
 _atom_site_fract_y
 _atom_site_fract_z
 _atom_site_occupancy
  Zn  Zn0  1  0.39990603  0.50333819  0.49832488  1.0
  Zn  Zn1  1  0.60825949  0.51015437  0.51263024  1.0
  H  H2  1  0.62436171  0.39915970  0.27671027  1.0
  H  H3  1  0.36495519  0.50150800  0.74634719  1.0
  H  H4  1  0.90157464  0.47405223  0.38303306  1.0
  H  H5  1  0.09622073  0.64306015  0.55155249  1.0
  H  H6  1  0.72860780  0.48088317  0.40013546  1.0
  H  H7  1  0.27038289  0.62429611  0.54255381  1.0
  H  H8  1  0.97404626  0.56706033  0.62496184  1.0
  H  H9  1  0.04396340  0.38425968  0.44629082  1.0
  H  H10  1  0.65261631  0.41912813  0.74506737  1.0
  H  H11  1  0.33203566  0.47883980  0.24360721  1.0
  H  H12  1  0.60017216  0.39279181  0.01239488  1.0
  H  H13  1  0.38064974  0.38337574  0.98723858  1.0
  H  H14  1  0.37371720  0.45368390  0.88470734  1.0
  H  H15  1  0.60617354  0.35375530  0.13502867  1.0
  H  H16  1  0.38236142  0.06872494  0.56462102  1.0
  H  H17  1  0.65560464  0.94683885  0.52082774  1.0
  H  H18  1  0.39046110  0.23193193  0.56896538  1.0
  H  H19  1  0.65015197  0.78397843  0.51487844  1.0
  H  H20  1  0.64018327  0.22905315  0.45531383  1.0
  H  H21  1  0.34289545  0.78426847  0.47709078  1.0
  H  H22  1  0.62938153  0.06602872  0.44497700  1.0
  H  H23  1  0.34674380  0.94746946  0.48063959  1.0
  H  H24  1  0.65737322  0.64796341  0.73972903  1.0
  H  H25  1  0.77297792  0.68640493  0.78503122  1.0
  H  H26  1  0.69158804  0.75953183  0.73239207  1.0
  H  H27  1  0.81544910  0.71539214  0.64852229  1.0
  H  H28  1  0.69938973  0.67676491  0.60545376  1.0
  H  H29  1  0.73303008  0.53113668  0.66705496  1.0
  H  H30  1  0.85215173  0.56808273  0.70456185  1.0
  H  H31  1  0.35694006  0.27613036  0.34471737  1.0
  H  H32  1  0.25425362  0.20589095  0.33947255  1.0
  H  H33  1  0.27550862  0.26448612  0.25495309  1.0
  H  H34  1  0.14885601  0.34072147  0.31736918  1.0
  H  H35  1  0.25506997  0.40687186  0.32719177  1.0
  H  H36  1  0.30511898  0.34421459  0.46412721  1.0
  H  H37  1  0.19008952  0.29321128  0.45503965  1.0
  H  H38  1  0.30231284  0.58742919  0.08637260  1.0
  H  H39  1  0.34122951  0.53282718  0.00537312  1.0
  H  H40  1  0.21627563  0.54325832  0.00751315  1.0
  H  H41  1  0.26392623  0.39095543  0.04512707  1.0
  H  H42  1  0.22945174  0.44722555  0.12633116  1.0
  H  H43  1  0.78275017  0.47035029  0.89109683  1.0
  H  H44  1  0.73768641  0.45736527  0.98118416  1.0
  H  H45  1  0.83102097  0.38946021  0.95838524  1.0
  H  H46  1  0.67392722  0.30513026  0.93376768  1.0
  H  H47  1  0.72047304  0.31950591  0.84527427  1.0
  C  C48  1  0.52080234  0.33763984  0.51495889  1.0
  C  C49  1  0.49459709  0.67605383  0.49554756  1.0
  C  C50  1  0.43781224  0.10347038  0.53883611  1.0
  C  C51  1  0.58672188  0.91150409  0.51018048  1.0
  C  C52  1  0.44245851  0.19449414  0.54214957  1.0
  C  C53  1  0.58413834  0.82059777  0.50755816  1.0
  C  C54  1  0.51589180  0.23985650  0.51245331  1.0
  C  C55  1  0.49629647  0.77410104  0.49617974  1.0
  C  C56  1  0.58386858  0.19274822  0.47856724  1.0
  C  C57  1  0.41100875  0.82075481  0.48687622  1.0
  C  C58  1  0.57802998  0.10188585  0.47392936  1.0
  C  C59  1  0.41359232  0.91184636  0.48938328  1.0
  C  C60  1  0.50539892  0.05547723  0.50448584  1.0
  C  C61  1  0.50153522  0.95894361  0.50124387  1.0
  C  C62  1  0.88201172  0.49502868  0.43948802  1.0
  C  C63  1  0.12063130  0.58272008  0.52708122  1.0
  C  C64  1  0.78617501  0.49832659  0.44856467  1.0
  C  C65  1  0.21702562  0.57280510  0.52240749  1.0
  C  C66  1  0.82395283  0.54799163  0.57987467  1.0
  C  C67  1  0.19045324  0.43197927  0.46637395  1.0
  C  C68  1  0.92159522  0.54814394  0.57338147  1.0
  C  C69  1  0.09196857  0.43946100  0.46731968  1.0
  C  C70  1  0.48955018  0.47482381  0.35308380  1.0
  C  C71  1  0.50637970  0.49900262  0.65628379  1.0
  C  C72  1  0.95238773  0.52019263  0.50343460  1.0
  C  C73  1  0.05559683  0.51464733  0.49845806  1.0
  C  C74  1  0.47964193  0.44432285  0.26851036  1.0
  C  C75  1  0.50973663  0.46595158  0.73826965  1.0
  C  C76  1  0.55669867  0.40780238  0.23759928  1.0
  C  C77  1  0.42962961  0.47227185  0.77705469  1.0
  C  C78  1  0.54607196  0.38294723  0.15824107  1.0
  C  C79  1  0.43486103  0.44403319  0.85393016  1.0
  C  C80  1  0.45972868  0.39585021  0.10637010  1.0
  C  C81  1  0.51908826  0.40771879  0.89492509  1.0
  C  C82  1  0.37994483  0.42824069  0.13849785  1.0
  C  C83  1  0.59824741  0.39649184  0.85405921  1.0
  C  C84  1  0.39192734  0.45165399  0.21871463  1.0
  C  C85  1  0.59204511  0.42654390  0.77697979  1.0
  C  C86  1  0.45306108  0.38607204  0.02075611  1.0
  C  C87  1  0.52733060  0.39134158  0.97949131  1.0
  C  C88  1  0.79190488  0.57512299  0.65606699  1.0
  C  C89  1  0.75633740  0.66975525  0.65640201  1.0
  C  C90  1  0.71759276  0.69227340  0.73263609  1.0
  C  C91  1  0.22999073  0.34971596  0.43633133  1.0
  C  C92  1  0.22453388  0.34545141  0.34573221  1.0
  C  C93  1  0.28061036  0.26858714  0.31962012  1.0
  C  C94  1  0.28494593  0.44544915  0.08780474  1.0
  C  C95  1  0.28597176  0.53212818  0.04405312  1.0
  C  C96  1  0.68978147  0.35480108  0.89175305  1.0
  C  C97  1  0.76469813  0.42168078  0.93312367  1.0
  N  N98  1  0.75720041  0.52309157  0.51703932  1.0
  N  N99  1  0.25146505  0.49943740  0.49308156  1.0
  O  O100  1  0.44424649  0.37656142  0.52487234  1.0
  O  O101  1  0.57583339  0.63946058  0.50736430  1.0
  O  O102  1  0.59995065  0.37462836  0.50642172  1.0
  O  O103  1  0.41315281  0.63655170  0.48401063  1.0
  O  O104  1  0.41223350  0.47709975  0.38306924  1.0
  O  O105  1  0.58489283  0.49854031  0.62791233  1.0
  O  O106  1  0.57305668  0.49625660  0.38858203  1.0
  O  O107  1  0.42612305  0.52396619  0.62006667  1.0
