# generated using pymatgen
data_LaH28C42S3NO7
_symmetry_space_group_name_H-M   'P 1'
_cell_length_a   8.16601309
_cell_length_b   19.94054564
_cell_length_c   19.94056997
_cell_angle_alpha   73.64171349
_cell_angle_beta   81.88264006
_cell_angle_gamma   81.88263847
_symmetry_Int_Tables_number   1
_chemical_formula_structural   LaH28C42S3NO7
_chemical_formula_sum   'La2 H56 C84 S6 N2 O14'
_cell_volume   3066.72603322
_cell_formula_units_Z   2
loop_
 _symmetry_equiv_pos_site_id
 _symmetry_equiv_pos_as_xyz
  1  'x, y, z'
loop_
 _atom_site_type_symbol
 _atom_site_label
 _atom_site_symmetry_multiplicity
 _atom_site_fract_x
 _atom_site_fract_y
 _atom_site_fract_z
 _atom_site_occupancy
  La  La0  1  0.72838563  0.98495903  0.00934647  1.0
  La  La1  1  0.22838598  0.00934540  0.98495991  1.0
  H  H2  1  0.21654062  0.58603277  0.57626315  1.0
  H  H3  1  0.71653790  0.57626295  0.58603598  1.0
  H  H4  1  0.89675379  0.55232520  0.76940128  1.0
  H  H5  1  0.39675282  0.76940208  0.55232536  1.0
  H  H6  1  0.84985245  0.75126929  0.61506236  1.0
  H  H7  1  0.34985204  0.61506633  0.75127117  1.0
  H  H8  1  0.02519297  0.73451428  0.01729113  1.0
  H  H9  1  0.52519142  0.01729234  0.73451305  1.0
  H  H10  1  0.67392439  0.78576859  0.67512113  1.0
  H  H11  1  0.17392332  0.67512317  0.78576827  1.0
  H  H12  1  0.45731846  0.82904629  0.75392814  1.0
  H  H13  1  0.95731660  0.75393042  0.82904556  1.0
  H  H14  1  0.76044006  0.59295329  0.83740031  1.0
  H  H15  1  0.26043626  0.83740134  0.59295277  1.0
  H  H16  1  0.23538706  0.63986400  0.47434518  1.0
  H  H17  1  0.73538456  0.47434765  0.63986681  1.0
  H  H18  1  0.54331563  0.63677086  0.91630969  1.0
  H  H19  1  0.04331041  0.91631097  0.63676996  1.0
  H  H20  1  0.71754727  0.15404456  0.75522396  1.0
  H  H21  1  0.21754798  0.75522611  0.15405166  1.0
  H  H22  1  0.59023730  0.27735533  0.67899683  1.0
  H  H23  1  0.09022700  0.67900052  0.27736021  1.0
  H  H24  1  0.17902718  0.00445475  0.18362873  1.0
  H  H25  1  0.67902649  0.18362806  0.00445347  1.0
  H  H26  1  0.05023405  0.94636392  0.31372240  1.0
  H  H27  1  0.55023641  0.31372284  0.94636612  1.0
  H  H28  1  0.26794304  0.65974738  0.95767165  1.0
  H  H29  1  0.76794436  0.95767237  0.65974697  1.0
  H  H30  1  0.33303376  0.71923588  0.36280927  1.0
  H  H31  1  0.83302729  0.36281114  0.71923879  1.0
  H  H32  1  0.97230766  0.81677950  0.54202502  1.0
  H  H33  1  0.47230931  0.54202663  0.81678187  1.0
  H  H34  1  0.89403372  0.08690758  0.10457566  1.0
  H  H35  1  0.39403150  0.10457454  0.08690595  1.0
  H  H36  1  0.98763055  0.11326992  0.18846566  1.0
  H  H37  1  0.48763059  0.18846448  0.11327022  1.0
  H  H38  1  0.92475541  0.06382679  0.27583680  1.0
  H  H39  1  0.42475244  0.27583685  0.06382920  1.0
  H  H40  1  0.83201298  0.15169935  0.24340463  1.0
  H  H41  1  0.33200967  0.24340275  0.15170054  1.0
  H  H42  1  0.52955147  0.03336831  0.22149933  1.0
  H  H43  1  0.02955154  0.22150014  0.03336728  1.0
  H  H44  1  0.53895940  0.09863312  0.26690124  1.0
  H  H45  1  0.03895929  0.26690113  0.09863241  1.0
  H  H46  1  0.64634399  0.01272007  0.29541133  1.0
  H  H47  1  0.14634503  0.29541161  0.01272039  1.0
  H  H48  1  0.06824411  0.89577599  0.43031056  1.0
  H  H49  1  0.56824150  0.43031248  0.89577928  1.0
  H  H50  1  0.09568963  0.48337968  0.80973297  1.0
  H  H51  1  0.59569478  0.80973246  0.48338540  1.0
  H  H52  1  0.24112854  0.36549669  0.85027080  1.0
  H  H53  1  0.74112548  0.85027263  0.36550114  1.0
  H  H54  1  0.36599591  0.35612196  0.63568304  1.0
  H  H55  1  0.86598092  0.63568719  0.35612001  1.0
  H  H56  1  0.21875955  0.47402263  0.59498493  1.0
  H  H57  1  0.71875367  0.59498582  0.47402188  1.0
  C  C58  1  0.03510376  0.67372561  0.58607480  1.0
  C  C59  1  0.53510639  0.58607703  0.67372780  1.0
  C  C60  1  0.11113397  0.60470299  0.60864256  1.0
  C  C61  1  0.61113584  0.60864422  0.60470490  1.0
  C  C62  1  0.06285200  0.56073264  0.67482446  1.0
  C  C63  1  0.56285121  0.67482485  0.56073467  1.0
  C  C64  1  0.93762220  0.58737829  0.71914282  1.0
  C  C65  1  0.43762367  0.71914458  0.58737960  1.0
  C  C66  1  0.86133633  0.65653925  0.69945521  1.0
  C  C67  1  0.36133738  0.69945742  0.65654022  1.0
  C  C68  1  0.91012506  0.69810606  0.63208127  1.0
  C  C69  1  0.41012625  0.63208460  0.69810819  1.0
  C  C70  1  0.11223259  0.82763416  0.94267942  1.0
  C  C71  1  0.61223085  0.94267959  0.82763253  1.0
  C  C72  1  0.11503992  0.75595556  0.97340651  1.0
  C  C73  1  0.61504063  0.97340750  0.75595495  1.0
  C  C74  1  0.34068202  0.75868243  0.88672103  1.0
  C  C75  1  0.84068292  0.88672122  0.75868267  1.0
  C  C76  1  0.64721256  0.75191355  0.72779846  1.0
  C  C77  1  0.14721245  0.72780004  0.75191246  1.0
  C  C78  1  0.52379702  0.77703742  0.77269006  1.0
  C  C79  1  0.02379776  0.77269067  0.77703670  1.0
  C  C80  1  0.73366084  0.68437813  0.74813699  1.0
  C  C81  1  0.23366027  0.74813906  0.68437784  1.0
  C  C82  1  0.47867701  0.73551280  0.84084744  1.0
  C  C83  1  0.97867728  0.84084852  0.73551340  1.0
  C  C84  1  0.69369521  0.64455692  0.81761668  1.0
  C  C85  1  0.19368909  0.81761945  0.64455585  1.0
  C  C86  1  0.09218594  0.72108053  0.51763902  1.0
  C  C87  1  0.59218826  0.51764126  0.72108328  1.0
  C  C88  1  0.14611749  0.48875341  0.69892711  1.0
  C  C89  1  0.64611487  0.69892831  0.48875560  1.0
  C  C90  1  0.19721239  0.69599015  0.46555159  1.0
  C  C91  1  0.69721275  0.46555270  0.69599248  1.0
  C  C92  1  0.31646838  0.35167794  0.74624285  1.0
  C  C93  1  0.81645759  0.74624538  0.35167860  1.0
  C  C94  1  0.41040156  0.28309870  0.76986911  1.0
  C  C95  1  0.91039401  0.76987186  0.28309983  1.0
  C  C96  1  0.56944690  0.66913859  0.86273290  1.0
  C  C97  1  0.06944354  0.86273543  0.66913886  1.0
  C  C98  1  0.61130079  0.18679900  0.77272101  1.0
  C  C99  1  0.11129598  0.77272396  0.18680225  1.0
  C  C100  1  0.53065297  0.16733357  0.84020814  1.0
  C  C101  1  0.03065090  0.84021172  0.16733597  1.0
  C  C102  1  0.54242019  0.25197523  0.73262288  1.0
  C  C103  1  0.04241298  0.73262556  0.25197864  1.0
  C  C104  1  0.20608321  0.81383194  0.38701162  1.0
  C  C105  1  0.70608266  0.38701377  0.81383554  1.0
  C  C106  1  0.23200312  0.95663365  0.21891915  1.0
  C  C107  1  0.73200475  0.21891888  0.95663400  1.0
  C  C108  1  0.25204368  0.86173691  0.31894006  1.0
  C  C109  1  0.75204311  0.31894233  0.86173913  1.0
  C  C110  1  0.16490822  0.92572299  0.28799576  1.0
  C  C111  1  0.66490630  0.28799621  0.92572385  1.0
  C  C112  1  0.37226052  0.91699540  0.19736715  1.0
  C  C113  1  0.87225708  0.19736701  0.91699476  1.0
  C  C114  1  0.24522639  0.71686985  0.94205228  1.0
  C  C115  1  0.74522783  0.94205422  0.71686889  1.0
  C  C116  1  0.25376329  0.74095762  0.40215837  1.0
  C  C117  1  0.75376176  0.40215972  0.74096173  1.0
  C  C118  1  0.04846673  0.79423163  0.50272971  1.0
  C  C119  1  0.54846598  0.50273273  0.79423309  1.0
  C  C120  1  0.77429963  0.07224128  0.13469749  1.0
  C  C121  1  0.27429753  0.13469745  0.07224116  1.0
  C  C122  1  0.88156364  0.10275679  0.22887189  1.0
  C  C123  1  0.38156186  0.22887078  0.10275792  1.0
  C  C124  1  0.60883905  0.05423658  0.24905772  1.0
  C  C125  1  0.10883940  0.24905788  0.05423579  1.0
  C  C126  1  0.10371087  0.83936900  0.43934936  1.0
  C  C127  1  0.60370706  0.43935173  0.83937169  1.0
  C  C128  1  0.47238216  0.93229066  0.12876592  1.0
  C  C129  1  0.97237985  0.12876554  0.93228969  1.0
  C  C130  1  0.15221444  0.45550851  0.77095778  1.0
  C  C131  1  0.65221531  0.77095855  0.45551153  1.0
  C  C132  1  0.23462106  0.38876780  0.79407030  1.0
  C  C133  1  0.73461295  0.79407271  0.38876936  1.0
  C  C134  1  0.30796481  0.38422712  0.67409775  1.0
  C  C135  1  0.80795040  0.67410068  0.38422657  1.0
  C  C136  1  0.22480960  0.45097015  0.65121282  1.0
  C  C137  1  0.72480047  0.65121391  0.45097084  1.0
  C  C138  1  0.57443658  0.10403587  0.89605551  1.0
  C  C139  1  0.07444138  0.89605759  0.10403842  1.0
  C  C140  1  0.99748419  0.88308578  0.96430054  1.0
  C  C141  1  0.49748192  0.96429933  0.88308470  1.0
  S  S142  1  0.36960028  0.22937008  0.85342732  1.0
  S  S143  1  0.86958847  0.85343143  0.22937051  1.0
  S  S144  1  0.42133756  0.84204489  0.26251151  1.0
  S  S145  1  0.92133750  0.26251355  0.84204583  1.0
  S  S146  1  0.26859714  0.84629487  0.87495596  1.0
  S  S147  1  0.76859805  0.87495739  0.84629415  1.0
  N  N148  1  0.75520555  0.07655712  0.20165510  1.0
  N  N149  1  0.25520463  0.20165491  0.07655683  1.0
  O  O150  1  0.66499316  0.05379810  0.10783154  1.0
  O  O151  1  0.16499308  0.10783198  0.05379679  1.0
  O  O152  1  0.61123719  0.89701831  0.12005834  1.0
  O  O153  1  0.11123602  0.12005912  0.89701850  1.0
  O  O154  1  0.41720089  0.98451120  0.07943690  1.0
  O  O155  1  0.91719827  0.07943628  0.98450932  1.0
  O  O156  1  0.47976695  0.08956404  0.95501471  1.0
  O  O157  1  0.97977575  0.95501674  0.08956538  1.0
  O  O158  1  0.70806335  0.06556235  0.88544508  1.0
  O  O159  1  0.20806920  0.88544525  0.06556471  1.0
  O  O160  1  0.02822773  0.94813723  0.94087236  1.0
  O  O161  1  0.52822502  0.94087037  0.94813684  1.0
  O  O162  1  0.86830203  0.86582628  0.00583650  1.0
  O  O163  1  0.36829945  0.00583492  0.86582530  1.0
