# generated using pymatgen
data_Zn2H26C19(N3O4)2
_symmetry_space_group_name_H-M   'P 1'
_cell_length_a   9.93839248
_cell_length_b   16.98823544
_cell_length_c   16.98896223
_cell_angle_alpha   116.28290824
_cell_angle_beta   101.23633886
_cell_angle_gamma   101.25853079
_symmetry_Int_Tables_number   1
_chemical_formula_structural   Zn2H26C19(N3O4)2
_chemical_formula_sum   'Zn6 H78 C57 N18 O24'
_cell_volume   2389.77547596
_cell_formula_units_Z   3
loop_
 _symmetry_equiv_pos_site_id
 _symmetry_equiv_pos_as_xyz
  1  'x, y, z'
loop_
 _atom_site_type_symbol
 _atom_site_label
 _atom_site_symmetry_multiplicity
 _atom_site_fract_x
 _atom_site_fract_y
 _atom_site_fract_z
 _atom_site_occupancy
  Zn  Zn0  1  0.63840952  0.68376484  0.30685840  1.0
  Zn  Zn1  1  0.33148707  0.69299892  0.37673124  1.0
  Zn  Zn2  1  0.95458556  0.62315121  0.31628400  1.0
  Zn  Zn3  1  0.12314795  0.30748405  0.68427476  1.0
  Zn  Zn4  1  0.43909755  0.31576572  0.62334627  1.0
  Zn  Zn5  1  0.81579037  0.37672231  0.69252781  1.0
  H  H6  1  0.38021823  0.37316050  0.02222529  1.0
  H  H7  1  0.35823369  0.97781439  0.35093695  1.0
  H  H8  1  0.00744963  0.64896893  0.62672910  1.0
  H  H9  1  0.86869566  0.36771953  0.97829559  1.0
  H  H10  1  0.89077208  0.02171009  0.38950875  1.0
  H  H11  1  0.50131116  0.61053012  0.63221935  1.0
  H  H12  1  0.45492406  0.38736526  0.15890509  1.0
  H  H13  1  0.29625938  0.84114583  0.22851921  1.0
  H  H14  1  0.06813823  0.77156054  0.61267682  1.0
  H  H15  1  0.00016908  0.23164807  0.86996073  1.0
  H  H16  1  0.13068258  0.13018176  0.36189188  1.0
  H  H17  1  0.76887523  0.63812228  0.76818234  1.0
  H  H18  1  0.34761833  0.53683976  0.17829022  1.0
  H  H19  1  0.16970583  0.82175003  0.35894584  1.0
  H  H20  1  0.81075449  0.64112564  0.46278326  1.0
  H  H21  1  0.65381576  0.36287308  0.82176456  1.0
  H  H22  1  0.83218413  0.17832713  0.54111715  1.0
  H  H23  1  0.29105259  0.45875925  0.63707800  1.0
  H  H24  1  0.24654144  0.32559428  0.87893706  1.0
  H  H25  1  0.36777475  0.12112349  0.44664390  1.0
  H  H26  1  0.92144998  0.55351564  0.67464440  1.0
  H  H27  1  0.88251415  0.45165496  0.12356758  1.0
  H  H28  1  0.75933149  0.87638520  0.32789266  1.0
  H  H29  1  0.43125964  0.67194147  0.54835048  1.0
  H  H30  1  0.76575897  0.16822625  0.88443481  1.0
  H  H31  1  0.88179540  0.11577443  0.28409979  1.0
  H  H32  1  0.59794001  0.71601339  0.83163677  1.0
  H  H33  1  0.73651524  0.14299946  0.76773723  1.0
  H  H34  1  0.96924824  0.23244505  0.37564669  1.0
  H  H35  1  0.59374665  0.62446388  0.85679129  1.0
  H  H36  1  0.68552259  0.23467881  0.84512683  1.0
  H  H37  1  0.84087504  0.15492801  0.38984934  1.0
  H  H38  1  0.45117667  0.61028366  0.76512186  1.0
  H  H39  1  0.54720109  0.25514823  0.09361168  1.0
  H  H40  1  0.45349504  0.90650497  0.16147261  1.0
  H  H41  1  0.29270857  0.83836885  0.74483471  1.0
  H  H42  1  0.65268764  0.33870994  0.21123333  1.0
  H  H43  1  0.44157291  0.78889767  0.12740309  1.0
  H  H44  1  0.31454705  0.87251894  0.66130261  1.0
  H  H45  1  0.72033104  0.33151632  0.11907084  1.0
  H  H46  1  0.60135845  0.88114870  0.21227148  1.0
  H  H47  1  0.38939876  0.78753424  0.66842076  1.0
  H  H48  1  0.59462857  0.61926148  0.10689018  1.0
  H  H49  1  0.48774776  0.89301434  0.51248195  1.0
  H  H50  1  0.97526132  0.48765268  0.38083123  1.0
  H  H51  1  0.61410048  0.71374887  0.08744210  1.0
  H  H52  1  0.52677817  0.91277578  0.62651737  1.0
  H  H53  1  0.90001591  0.37370201  0.28643094  1.0
  H  H54  1  0.24106666  0.58720924  0.99650936  1.0
  H  H55  1  0.24462346  0.00354558  0.59073781  1.0
  H  H56  1  0.65351750  0.40931194  0.41285531  1.0
  H  H57  1  0.00096528  0.69572331  0.02707213  1.0
  H  H58  1  0.97387872  0.97283496  0.66844099  1.0
  H  H59  1  0.30507753  0.33131662  0.30435080  1.0
  H  H60  1  0.08717347  0.67613255  0.11576310  1.0
  H  H61  1  0.97129272  0.88417654  0.56013088  1.0
  H  H62  1  0.41065584  0.43960416  0.32378244  1.0
  H  H63  1  0.91430473  0.52973819  0.93495246  1.0
  H  H64  1  0.97951713  0.06507709  0.59465116  1.0
  H  H65  1  0.38466683  0.40523375  0.47029995  1.0
  H  H66  1  0.42939045  0.60429211  0.92592418  1.0
  H  H67  1  0.50354317  0.07425005  0.67815836  1.0
  H  H68  1  0.82507120  0.32186082  0.39620661  1.0
  H  H69  1  0.41013156  0.51505902  0.95526487  1.0
  H  H70  1  0.45476743  0.04458346  0.55951781  1.0
  H  H71  1  0.89475599  0.44052366  0.48514399  1.0
  H  H72  1  0.67877426  0.53912503  0.96216406  1.0
  H  H73  1  0.71659643  0.03784260  0.57684908  1.0
  H  H74  1  0.13952246  0.42301073  0.46094978  1.0
  H  H75  1  0.72948763  0.64897307  0.97053640  1.0
  H  H76  1  0.75908333  0.02950820  0.67832096  1.0
  H  H77  1  0.08015946  0.32153413  0.35113211  1.0
  H  H78  1  0.84738727  0.59877886  0.11616876  1.0
  H  H79  1  0.73119998  0.88388280  0.48248986  1.0
  H  H80  1  0.24832888  0.51729354  0.40113708  1.0
  H  H81  1  0.87452731  0.71484294  0.14275310  1.0
  H  H82  1  0.73171929  0.85721443  0.57191872  1.0
  H  H83  1  0.15928863  0.42777982  0.28513028  1.0
  C  C84  1  0.10769298  0.46128506  0.11307932  1.0
  C  C85  1  0.99500756  0.88693115  0.34831717  1.0
  C  C86  1  0.64661232  0.65163091  0.53850998  1.0
  C  C87  1  0.48247214  0.35156534  0.88900637  1.0
  C  C88  1  0.59365098  0.11108714  0.46252280  1.0
  C  C89  1  0.13131442  0.53748979  0.64858568  1.0
  C  C90  1  0.56461237  0.37413607  0.98270791  1.0
  C  C91  1  0.58213914  0.01739064  0.39137357  1.0
  C  C92  1  0.19097567  0.60861509  0.62599311  1.0
  C  C93  1  0.92572448  0.29948077  0.79895441  1.0
  C  C94  1  0.12714876  0.20108385  0.50069219  1.0
  C  C95  1  0.62646729  0.49932070  0.70039018  1.0
  C  C96  1  0.54920323  0.39470618  0.13453596  1.0
  C  C97  1  0.41490120  0.86553227  0.26013539  1.0
  C  C98  1  0.15502584  0.73983364  0.60530944  1.0
  C  C99  1  0.08880828  0.38628987  0.02088976  1.0
  C  C100  1  0.06832635  0.97914583  0.36551749  1.0
  C  C101  1  0.70275177  0.63440807  0.61348554  1.0
  C  C102  1  0.91777378  0.26611606  0.86914799  1.0
  C  C103  1  0.04906083  0.13091849  0.39715065  1.0
  C  C104  1  0.65198444  0.60286104  0.73371571  1.0
  C  C105  1  0.23759844  0.52806852  0.18083004  1.0
  C  C106  1  0.05712212  0.81919696  0.34750135  1.0
  C  C107  1  0.70958238  0.65251781  0.47163312  1.0
  C  C108  1  0.54162028  0.35064284  0.82007355  1.0
  C  C109  1  0.72169047  0.18000835  0.53056419  1.0
  C  C110  1  0.19118592  0.46938661  0.64940301  1.0
  C  C111  1  0.33333333  0.33097769  0.84941908  1.0
  C  C112  1  0.48406910  0.15064722  0.48154744  1.0
  C  C113  1  0.00276757  0.51855924  0.66923515  1.0
  C  C114  1  0.99926736  0.48382070  0.15220432  1.0
  C  C115  1  0.84741284  0.84776971  0.33157364  1.0
  C  C116  1  0.51571177  0.66831951  0.51607879  1.0
  C  C117  1  0.64090977  0.49765524  0.20035787  1.0
  C  C118  1  0.44088306  0.79967357  0.29720878  1.0
  C  C119  1  0.14369608  0.70272586  0.50235069  1.0
  C  C120  1  0.76672677  0.19877796  0.83948525  1.0
  C  C121  1  0.92771498  0.16064487  0.35959094  1.0
  C  C122  1  0.56829307  0.64050793  0.80105025  1.0
  C  C123  1  0.62299792  0.32579387  0.13992852  1.0
  C  C124  1  0.48315691  0.86021270  0.18577896  1.0
  C  C125  1  0.29778896  0.81409608  0.67418588  1.0
  C  C126  1  0.59185280  0.63816832  0.05271763  1.0
  C  C127  1  0.53918002  0.94733676  0.58549999  1.0
  C  C128  1  0.95345661  0.41458056  0.36199076  1.0
  C  C129  1  0.99034698  0.64812622  0.05535013  1.0
  C  C130  1  0.93498013  0.94461872  0.59259877  1.0
  C  C131  1  0.34195580  0.40720608  0.35187579  1.0
  C  C132  1  0.43824962  0.59071567  0.98441073  1.0
  C  C133  1  0.45387289  0.01562611  0.60619322  1.0
  C  C134  1  0.84732946  0.39382914  0.40952651  1.0
  C  C135  1  0.71205143  0.61419116  0.01093087  1.0
  C  C136  1  0.70116270  0.98910062  0.60317879  1.0
  C  C137  1  0.09759305  0.39670546  0.38589840  1.0
  C  C138  1  0.85570549  0.64431793  0.08597813  1.0
  C  C139  1  0.76972463  0.91403184  0.55821064  1.0
  C  C140  1  0.21107482  0.44157076  0.35566101  1.0
  N  N141  1  0.20729872  0.58617921  0.25491048  1.0
  N  N142  1  0.95263213  0.74509717  0.33146199  1.0
  N  N143  1  0.62115585  0.66854734  0.41358180  1.0
  N  N144  1  0.43506984  0.33126511  0.74524616  1.0
  N  N145  1  0.68993850  0.25479821  0.58605226  1.0
  N  N146  1  0.10391731  0.41395159  0.66878441  1.0
  N  N147  1  0.06052604  0.55831541  0.23688090  1.0
  N  N148  1  0.82389221  0.76309040  0.32142828  1.0
  N  N149  1  0.50237930  0.67849536  0.44156485  1.0
  N  N150  1  0.48732492  0.37698936  0.04057179  1.0
  N  N151  1  0.44699256  0.95948796  0.33639518  1.0
  N  N152  1  0.11080111  0.66357983  0.62303648  1.0
  N  N153  1  0.95145228  0.34293417  0.96158952  1.0
  N  N154  1  0.99028118  0.03844404  0.38147529  1.0
  N  N155  1  0.60885341  0.61852650  0.65692221  1.0
  N  N156  1  0.30684630  0.31942710  0.76391889  1.0
  N  N157  1  0.54305534  0.23611859  0.55554380  1.0
  N  N158  1  0.98765115  0.44454970  0.68071460  1.0
  O  O159  1  0.57552394  0.55548609  0.20086232  1.0
  O  O160  1  0.37491661  0.79902490  0.35447518  1.0
  O  O161  1  0.02044117  0.64538984  0.44453874  1.0
  O  O162  1  0.86562837  0.36032469  0.80280698  1.0
  O  O163  1  0.06318985  0.19720249  0.55767924  1.0
  O  O164  1  0.50561263  0.44232072  0.63944634  1.0
  O  O165  1  0.98769918  0.26213538  0.73968335  1.0
  O  O166  1  0.24835686  0.26040568  0.52260706  1.0
  O  O167  1  0.72560740  0.47739056  0.73789430  1.0
  O  O168  1  0.76847730  0.51797020  0.25061062  1.0
  O  O169  1  0.51832044  0.74952023  0.26728102  1.0
  O  O170  1  0.25092995  0.73270138  0.48203530  1.0
  O  O171  1  0.69923597  0.39017868  0.00612313  1.0
  O  O172  1  0.69335261  0.99400520  0.38396311  1.0
  O  O173  1  0.30961286  0.61604311  0.61004622  1.0
  O  O174  1  0.19266712  0.36168471  0.99747417  1.0
  O  O175  1  0.19561182  0.00258340  0.36431339  1.0
  O  O176  1  0.83123641  0.63552926  0.63801041  1.0
  O  O177  1  0.34156065  0.62550193  0.03352614  1.0
  O  O178  1  0.30811759  0.96655521  0.59205332  1.0
  O  O179  1  0.71570508  0.40789653  0.37452108  1.0
  O  O180  1  0.99848110  0.56024342  0.99048713  1.0
  O  O181  1  0.00808184  0.00951124  0.56961688  1.0
  O  O182  1  0.43811693  0.43036286  0.43975948  1.0
