# generated using pymatgen
data_ZnH17C28NO4
_symmetry_space_group_name_H-M   'P 1'
_cell_length_a   16.61021732
_cell_length_b   17.16484499
_cell_length_c   17.66619330
_cell_angle_alpha   88.17102981
_cell_angle_beta   89.17838720
_cell_angle_gamma   85.44483452
_symmetry_Int_Tables_number   1
_chemical_formula_structural   ZnH17C28NO4
_chemical_formula_sum   'Zn2 H34 C56 N2 O8'
_cell_volume   5018.02039808
_cell_formula_units_Z   2
loop_
 _symmetry_equiv_pos_site_id
 _symmetry_equiv_pos_as_xyz
  1  'x, y, z'
loop_
 _atom_site_type_symbol
 _atom_site_label
 _atom_site_symmetry_multiplicity
 _atom_site_fract_x
 _atom_site_fract_y
 _atom_site_fract_z
 _atom_site_occupancy
  Zn  Zn0  1  0.41456349  0.48478046  0.49803906  1.0
  Zn  Zn1  1  0.58818016  0.49259139  0.48905076  1.0
  H  H2  1  0.58750859  0.71059805  0.57597770  1.0
  H  H3  1  0.33973255  0.74479411  0.50964094  1.0
  H  H4  1  0.58567255  0.97963628  0.59627979  1.0
  H  H5  1  0.40433415  0.99527070  0.55989378  1.0
  H  H6  1  0.33892722  0.88667582  0.53708200  1.0
  H  H7  1  0.63833489  0.10669329  0.61828586  1.0
  H  H8  1  0.41445831  0.09871508  0.49893321  1.0
  H  H9  1  0.58730630  0.85059027  0.60718843  1.0
  H  H10  1  0.38459525  0.59252748  0.85290129  1.0
  H  H11  1  0.61619405  0.49019981  0.11008850  1.0
  H  H12  1  0.39386952  0.56251666  0.71511407  1.0
  H  H13  1  0.41691605  0.23902529  0.46426722  1.0
  H  H14  1  0.61243848  0.46613502  0.25021292  1.0
  H  H15  1  0.63847769  0.46703009  0.74294396  1.0
  H  H16  1  0.36836565  0.56826383  0.25935471  1.0
  H  H17  1  0.62879565  0.49145841  0.88186666  1.0
  H  H18  1  0.37143059  0.59429200  0.11936888  1.0
  H  H19  1  0.23654791  0.47952128  0.71844089  1.0
  H  H20  1  0.31030200  0.40617452  0.82306183  1.0
  H  H21  1  0.40533633  0.29087534  0.79507474  1.0
  H  H22  1  0.42639629  0.24918924  0.66163039  1.0
  H  H23  1  0.35498791  0.32419905  0.55732802  1.0
  H  H24  1  0.13641650  0.55893287  0.40129809  1.0
  H  H25  1  0.65504835  0.56369039  0.33375533  1.0
  H  H26  1  0.57668203  0.67246236  0.26588674  1.0
  H  H27  1  0.57543157  0.80826514  0.31276548  1.0
  H  H28  1  0.65528846  0.83433030  0.42611052  1.0
  H  H29  1  0.73609046  0.72536051  0.49239258  1.0
  H  H30  1  0.87179416  0.39843327  0.55432847  1.0
  H  H31  1  0.28727295  0.53288465  0.40274823  1.0
  H  H32  1  0.72295764  0.39765181  0.53219645  1.0
  H  H33  1  0.13079863  0.44191607  0.62147439  1.0
  H  H34  1  0.85907991  0.62941708  0.44799785  1.0
  H  H35  1  0.64116813  0.24744489  0.57999770  1.0
  C  C36  1  0.48872888  0.50044928  0.34732676  1.0
  C  C37  1  0.42233366  0.55156048  0.22601705  1.0
  C  C38  1  0.57776727  0.50775730  0.84497408  1.0
  C  C39  1  0.42409043  0.56610325  0.14818132  1.0
  C  C40  1  0.50561962  0.54259245  0.87686873  1.0
  C  C41  1  0.49381868  0.54326234  0.10513830  1.0
  C  C42  1  0.49947069  0.55115963  0.95614800  1.0
  C  C43  1  0.49559444  0.55145449  0.02526043  1.0
  C  C44  1  0.16636315  0.52866458  0.44947155  1.0
  C  C45  1  0.83821385  0.44850435  0.52722233  1.0
  C  C46  1  0.24956930  0.51393606  0.44984575  1.0
  C  C47  1  0.52067869  0.49389760  0.63919029  1.0
  C  C48  1  0.75618940  0.44765843  0.51464739  1.0
  C  C49  1  0.24762616  0.45047708  0.56873033  1.0
  C  C50  1  0.74828167  0.57238831  0.45708143  1.0
  C  C51  1  0.46806765  0.63726701  0.51358115  1.0
  C  C52  1  0.52766169  0.33782555  0.49986866  1.0
  C  C53  1  0.16346706  0.46400570  0.57249193  1.0
  C  C54  1  0.83088844  0.57749501  0.46850495  1.0
  C  C55  1  0.12129743  0.50273755  0.51219970  1.0
  C  C56  1  0.87757631  0.51478885  0.50296756  1.0
  C  C57  1  0.03583819  0.51177257  0.51256241  1.0
  C  C58  1  0.43980064  0.56424344  0.82887218  1.0
  C  C59  1  0.96233682  0.51564538  0.50979046  1.0
  C  C60  1  0.46463098  0.72001868  0.53826763  1.0
  C  C61  1  0.52896049  0.25235786  0.52018193  1.0
  C  C62  1  0.53341695  0.75002626  0.56800883  1.0
  C  C63  1  0.46479511  0.20962638  0.49867455  1.0
  C  C64  1  0.53286201  0.82841652  0.58501748  1.0
  C  C65  1  0.46325621  0.13117217  0.51917903  1.0
  C  C66  1  0.46378120  0.87996400  0.57118487  1.0
  C  C67  1  0.52532396  0.09204242  0.56305678  1.0
  C  C68  1  0.39346967  0.84785863  0.54632828  1.0
  C  C69  1  0.56220451  0.50771360  0.14310519  1.0
  C  C70  1  0.58943660  0.13556138  0.58447962  1.0
  C  C71  1  0.39363419  0.76908282  0.53036567  1.0
  C  C72  1  0.59145344  0.21423702  0.56312467  1.0
  C  C73  1  0.46308524  0.96466548  0.57284843  1.0
  C  C74  1  0.52683209  0.00827933  0.58044544  1.0
  C  C75  1  0.29085208  0.40631465  0.63106867  1.0
  C  C76  1  0.27748453  0.42837174  0.70633237  1.0
  C  C77  1  0.31899940  0.38724095  0.76497227  1.0
  C  C78  1  0.37271257  0.32280723  0.74914841  1.0
  C  C79  1  0.38483290  0.29958305  0.67450561  1.0
  C  C80  1  0.44493867  0.54794807  0.75236076  1.0
  C  C81  1  0.34432679  0.34128179  0.61564207  1.0
  C  C82  1  0.70077905  0.63740299  0.41720430  1.0
  C  C83  1  0.65589565  0.62312378  0.35321235  1.0
  C  C84  1  0.61147971  0.68447225  0.31552017  1.0
  C  C85  1  0.61109881  0.76046223  0.34166138  1.0
  C  C86  1  0.65637372  0.77523722  0.40498461  1.0
  C  C87  1  0.70179531  0.71414315  0.44215406  1.0
  C  C88  1  0.56009046  0.49428435  0.22093351  1.0
  C  C89  1  0.51616928  0.51195386  0.72149388  1.0
  C  C90  1  0.49000750  0.51530655  0.26326925  1.0
  C  C91  1  0.58301480  0.49358491  0.76808517  1.0
  N  N92  1  0.28983925  0.47566595  0.50751320  1.0
  N  N93  1  0.71180505  0.50750272  0.48013690  1.0
  O  O94  1  0.42059654  0.50634142  0.38142351  1.0
  O  O95  1  0.59004129  0.48982967  0.60743435  1.0
  O  O96  1  0.55705026  0.48357593  0.37835410  1.0
  O  O97  1  0.45365896  0.48479908  0.60757944  1.0
  O  O98  1  0.40167310  0.60586042  0.50740649  1.0
  O  O99  1  0.59341977  0.37085404  0.50311231  1.0
  O  O100  1  0.53843336  0.60476067  0.50031396  1.0
  O  O101  1  0.45892778  0.37155431  0.48197782  1.0
