# generated using pymatgen
data_Zn2H23C37N3O8
_symmetry_space_group_name_H-M   'P 1'
_cell_length_a   9.77376044
_cell_length_b   11.00466815
_cell_length_c   11.05568566
_cell_angle_alpha   89.68751312
_cell_angle_beta   88.17279148
_cell_angle_gamma   89.31360530
_symmetry_Int_Tables_number   1
_chemical_formula_structural   Zn2H23C37N3O8
_chemical_formula_sum   'Zn2 H23 C37 N3 O8'
_cell_volume   1188.41105781
_cell_formula_units_Z   1
loop_
 _symmetry_equiv_pos_site_id
 _symmetry_equiv_pos_as_xyz
  1  'x, y, z'
loop_
 _atom_site_type_symbol
 _atom_site_label
 _atom_site_symmetry_multiplicity
 _atom_site_fract_x
 _atom_site_fract_y
 _atom_site_fract_z
 _atom_site_occupancy
  Zn  Zn0  1  0.36041089  0.49397209  0.50999486  1.0
  Zn  Zn1  1  0.64760317  0.50145420  0.50389866  1.0
  H  H2  1  0.14071751  0.21771340  0.44043750  1.0
  H  H3  1  0.84978359  0.78232430  0.60284603  1.0
  H  H4  1  0.99327554  0.84288021  0.77588842  1.0
  H  H5  1  0.23210352  0.91011178  0.73727115  1.0
  H  H6  1  0.63014723  0.66363494  0.89907140  1.0
  H  H7  1  0.63614851  0.64787926  0.12242498  1.0
  H  H8  1  0.41274288  0.20991580  0.10936294  1.0
  H  H9  1  0.25661801  0.29516552  0.11764137  1.0
  H  H10  1  0.41575654  0.22381447  0.88310374  1.0
  H  H11  1  0.25723617  0.30335200  0.88981256  1.0
  H  H12  1  0.88262697  0.48780605  0.31953778  1.0
  H  H13  1  0.01253931  0.17438254  0.25398399  1.0
  H  H14  1  0.14137715  0.48740861  0.32007321  1.0
  H  H15  1  0.12643856  0.44020063  0.78762969  1.0
  H  H16  1  0.12236196  0.60259239  0.77402963  1.0
  H  H17  1  0.86870927  0.43583115  0.78824390  1.0
  H  H18  1  0.86226673  0.59730323  0.77739825  1.0
  H  H19  1  0.77163278  0.10500493  0.27007678  1.0
  H  H20  1  0.78358258  0.12084571  0.65823117  1.0
  H  H21  1  0.70173226  0.87708917  0.44870340  1.0
  H  H22  1  0.28885335  0.11693757  0.55867394  1.0
  H  H23  1  0.18967405  0.85310163  0.35565477  1.0
  H  H24  1  0.94925237  0.78924771  0.39324776  1.0
  C  C25  1  0.50427413  0.51137934  0.74209587  1.0
  C  C26  1  0.03478187  0.18769229  0.44633806  1.0
  C  C27  1  0.61026826  0.93154631  0.46926548  1.0
  C  C28  1  0.48708409  0.86993291  0.49022857  1.0
  C  C29  1  0.36679574  0.93668052  0.52088536  1.0
  C  C30  1  0.37854725  0.06274371  0.53205140  1.0
  C  C31  1  0.50142947  0.12452895  0.51083972  1.0
  C  C32  1  0.62089419  0.05740235  0.47902912  1.0
  C  C33  1  0.14664459  0.85041280  0.44781569  1.0
  C  C34  1  0.01183444  0.81387653  0.46918969  1.0
  C  C35  1  0.95576498  0.81008574  0.58718687  1.0
  C  C36  1  0.49793891  0.26090957  0.51876372  1.0
  C  C37  1  0.03601759  0.84398930  0.68343747  1.0
  C  C38  1  0.17072483  0.88175094  0.66197378  1.0
  C  C39  1  0.22777096  0.88492078  0.54401443  1.0
  C  C40  1  0.43700278  0.41438825  0.94209169  1.0
  C  C41  1  0.50348175  0.50618958  0.87716951  1.0
  C  C42  1  0.57585276  0.59012582  0.94584484  1.0
  C  C43  1  0.57921951  0.58149218  0.07183906  1.0
  C  C44  1  0.50962671  0.48923717  0.13702708  1.0
  C  C45  1  0.43904445  0.40657852  0.06818524  1.0
  C  C46  1  0.35841235  0.28926711  0.07268068  1.0
  C  C47  1  0.51231801  0.48417216  0.27164066  1.0
  C  C48  1  0.35825095  0.29726661  0.92980538  1.0
  C  C49  1  0.92903742  0.50645736  0.60746265  1.0
  C  C50  1  0.93732186  0.49333012  0.40371467  1.0
  C  C51  1  0.07998709  0.49353916  0.40396495  1.0
  C  C52  1  0.07201313  0.50738652  0.60746684  1.0
  C  C53  1  0.07750995  0.51780543  0.74310743  1.0
  C  C54  1  0.91514083  0.51524160  0.74375075  1.0
  C  C55  1  0.49508653  0.73354915  0.48939219  1.0
  C  C56  1  0.96238979  0.16332853  0.34287268  1.0
  C  C57  1  0.82702344  0.12377251  0.35189707  1.0
  C  C58  1  0.76075958  0.10901238  0.46520434  1.0
  C  C59  1  0.83293244  0.13277106  0.56930505  1.0
  C  C60  1  0.96903791  0.17170534  0.56030569  1.0
  C  C61  1  0.03748176  0.19351973  0.66990364  1.0
  N  N62  1  0.85821712  0.49921112  0.50710113  1.0
  N  N63  1  0.15060759  0.49986902  0.50766535  1.0
  N  N64  1  0.08741292  0.21131296  0.76271939  1.0
  O  O65  1  0.38926843  0.52037011  0.69198558  1.0
  O  O66  1  0.62116084  0.50378557  0.68846894  1.0
  O  O67  1  0.38104876  0.31046877  0.53936794  1.0
  O  O68  1  0.61019159  0.31687345  0.50215374  1.0
  O  O69  1  0.40057762  0.45763887  0.32779527  1.0
  O  O70  1  0.62566953  0.50810757  0.31997467  1.0
  O  O71  1  0.38568574  0.67512527  0.47390558  1.0
  O  O72  1  0.61297292  0.68695315  0.50640223  1.0
