# generated using pymatgen
data_Zn4H32C48N4O21
_symmetry_space_group_name_H-M   'P 1'
_cell_length_a   23.61515434
_cell_length_b   23.61440067
_cell_length_c   23.61874702
_cell_angle_alpha   107.20060502
_cell_angle_beta   107.19283503
_cell_angle_gamma   114.12349706
_symmetry_Int_Tables_number   1
_chemical_formula_structural   Zn4H32C48N4O21
_chemical_formula_sum   'Zn8 H64 C96 N8 O42'
_cell_volume   10088.53711508
_cell_formula_units_Z   2
loop_
 _symmetry_equiv_pos_site_id
 _symmetry_equiv_pos_as_xyz
  1  'x, y, z'
loop_
 _atom_site_type_symbol
 _atom_site_label
 _atom_site_symmetry_multiplicity
 _atom_site_fract_x
 _atom_site_fract_y
 _atom_site_fract_z
 _atom_site_occupancy
  Zn  Zn0  1  0.48266081  0.54137234  0.44179984  1.0
  Zn  Zn1  1  0.45863003  0.51733379  0.55821721  1.0
  Zn  Zn2  1  0.45911115  0.40038622  0.44179422  1.0
  Zn  Zn3  1  0.59959269  0.54088210  0.55819797  1.0
  Zn  Zn4  1  0.01753323  0.95927313  0.55880669  1.0
  Zn  Zn5  1  0.04125965  0.09957295  0.55881281  1.0
  Zn  Zn6  1  0.04073448  0.98246822  0.44121210  1.0
  Zn  Zn7  1  0.90044654  0.95874534  0.44118992  1.0
  H  H8  1  0.19171485  0.10251180  0.88933284  1.0
  H  H9  1  0.19785995  0.28701896  0.88935119  1.0
  H  H10  1  0.26949544  0.20553298  0.11032697  1.0
  H  H11  1  0.34107896  0.40487120  0.11042537  1.0
  H  H12  1  0.71309169  0.80233187  0.11069630  1.0
  H  H13  1  0.89752227  0.80836705  0.11062872  1.0
  H  H14  1  0.59512862  0.65899962  0.88959255  1.0
  H  H15  1  0.79445531  0.73055110  0.88967725  1.0
  H  H16  1  0.15936463  0.76964816  0.56413054  1.0
  H  H17  1  0.23029203  0.84058978  0.43580740  1.0
  H  H18  1  0.30244227  0.69169571  0.58926453  1.0
  H  H19  1  0.30813791  0.69736238  0.41065287  1.0
  H  H20  1  0.90477431  0.29451302  0.56410453  1.0
  H  H21  1  0.70549464  0.09523756  0.43576236  1.0
  H  H22  1  0.78681234  0.39758986  0.58925769  1.0
  H  H23  1  0.60249511  0.21323257  0.41065291  1.0
  H  H24  1  0.15169014  0.00640219  0.79492799  1.0
  H  H25  1  0.13942290  0.00785280  0.71740167  1.0
  H  H26  1  0.06734384  0.97925085  0.73367706  1.0
  H  H27  1  0.14328628  0.28863155  0.79498165  1.0
  H  H28  1  0.07799541  0.20963097  0.71746366  1.0
  H  H29  1  0.16633281  0.25452911  0.73368690  1.0
  H  H30  1  0.28762913  0.19575867  0.20489481  1.0
  H  H31  1  0.31472517  0.26609059  0.28236249  1.0
  H  H32  1  0.37861867  0.25536509  0.26589568  1.0
  H  H33  1  0.41734589  0.50918051  0.20501395  1.0
  H  H34  1  0.46773847  0.51630561  0.28246178  1.0
  H  H35  1  0.38736222  0.51052180  0.26602233  1.0
  H  H36  1  0.71148317  0.85683961  0.20510236  1.0
  H  H37  1  0.79047577  0.92208379  0.28262718  1.0
  H  H38  1  0.74554150  0.83371742  0.26634457  1.0
  H  H39  1  0.99359847  0.84829151  0.20500239  1.0
  H  H40  1  0.99212897  0.86051621  0.28252288  1.0
  H  H41  1  0.02078995  0.93263917  0.26630941  1.0
  H  H42  1  0.49081918  0.58266856  0.79499430  1.0
  H  H43  1  0.48370591  0.53227690  0.71755041  1.0
  H  H44  1  0.48948448  0.61265471  0.73399492  1.0
  H  H45  1  0.80422335  0.71234768  0.79510018  1.0
  H  H46  1  0.73390121  0.68523958  0.71763340  1.0
  H  H47  1  0.74461351  0.62134343  0.73410862  1.0
  H  H48  1  0.08246864  0.78755791  0.59164911  1.0
  H  H49  1  0.03317555  0.81623392  0.54964053  1.0
  H  H50  1  0.11398233  0.87897742  0.62407261  1.0
  H  H51  1  0.21239296  0.91751272  0.40832530  1.0
  H  H52  1  0.18379946  0.96686156  0.45041615  1.0
  H  H53  1  0.12099808  0.88605879  0.37597460  1.0
  H  H54  1  0.35707846  0.65184751  0.64543674  1.0
  H  H55  1  0.42227091  0.63952230  0.63159548  1.0
  H  H56  1  0.33392647  0.56744288  0.58830758  1.0
  H  H57  1  0.34808173  0.64280376  0.35453716  1.0
  H  H58  1  0.36046495  0.57764733  0.36841012  1.0
  H  H59  1  0.43249497  0.66602339  0.41169681  1.0
  H  H60  1  0.00918488  0.30411590  0.59169420  1.0
  H  H61  1  0.01644231  0.23343873  0.54957547  1.0
  H  H62  1  0.01008343  0.24504594  0.62400490  1.0
  H  H63  1  0.69589227  0.99080573  0.40832697  1.0
  H  H64  1  0.76659490  0.98355826  0.45037335  1.0
  H  H65  1  0.75489206  0.98988444  0.37592138  1.0
  H  H66  1  0.78830860  0.49362229  0.64542879  1.0
  H  H67  1  0.70926356  0.49208825  0.63155534  1.0
  H  H68  1  0.75434954  0.52087364  0.58828349  1.0
  H  H69  1  0.50640364  0.21164770  0.35453478  1.0
  H  H70  1  0.50790112  0.29068172  0.36840626  1.0
  H  H71  1  0.47916436  0.24561400  0.41169864  1.0
  C  C72  1  0.40968164  0.59029345  0.50001289  1.0
  C  C73  1  0.36443404  0.36442273  0.50003135  1.0
  C  C74  1  0.40944511  0.40939552  0.31889016  1.0
  C  C75  1  0.59029429  0.40967925  0.49998106  1.0
  C  C76  1  0.63556302  0.63557519  0.49997973  1.0
  C  C77  1  0.59059477  0.59055398  0.68111778  1.0
  C  C78  1  0.09037040  0.09040405  0.68073634  1.0
  C  C79  1  0.13541701  0.13539407  0.50005399  1.0
  C  C80  1  0.09058534  0.90941460  0.50001559  1.0
  C  C81  1  0.90965024  0.90964260  0.31927156  1.0
  C  C82  1  0.86459399  0.86458851  0.49994874  1.0
  C  C83  1  0.90938875  0.09059216  0.49997866  1.0
  C  C84  1  0.69443962  0.69444281  0.49995775  1.0
  C  C85  1  0.80570742  0.80568795  0.49994261  1.0
  C  C86  1  0.76553302  0.72180110  0.54132804  1.0
  C  C87  1  0.73461300  0.77623872  0.45646888  1.0
  C  C88  1  0.81973610  0.77808534  0.54343295  1.0
  C  C89  1  0.68043158  0.72415919  0.45858560  1.0
  C  C90  1  0.30556956  0.30554517  0.50005279  1.0
  C  C91  1  0.19431830  0.19427752  0.50006400  1.0
  C  C92  1  0.27820412  0.23444600  0.45867377  1.0
  C  C93  1  0.22377309  0.26538077  0.54354114  1.0
  C  C94  1  0.22191484  0.18024448  0.45656715  1.0
  C  C95  1  0.27585773  0.31956230  0.54143100  1.0
  C  C96  1  0.12786298  0.12788773  0.75567695  1.0
  C  C97  1  0.14317081  0.09230671  0.79115159  1.0
  C  C98  1  0.17890865  0.12881790  0.86146715  1.0
  C  C99  1  0.19897467  0.19893199  0.89766524  1.0
  C  C100  1  0.18278219  0.23282986  0.86148877  1.0
  C  C101  1  0.14808111  0.19896478  0.79116966  1.0
  C  C102  1  0.23471203  0.23462614  0.96906307  1.0
  C  C103  1  0.26551218  0.26539155  0.03068828  1.0
  C  C104  1  0.30116354  0.30105702  0.10207765  1.0
  C  C105  1  0.29930400  0.26302335  0.13819860  1.0
  C  C106  1  0.33436459  0.29696789  0.20850830  1.0
  C  C107  1  0.37202592  0.37198179  0.24400624  1.0
  C  C108  1  0.37425813  0.41155092  0.20857203  1.0
  C  C109  1  0.33910680  0.37521986  0.13825831  1.0
  C  C110  1  0.87217516  0.87218699  0.24433385  1.0
  C  C111  1  0.80111746  0.85202312  0.20887029  1.0
  C  C112  1  0.76726874  0.81739315  0.13855003  1.0
  C  C113  1  0.80114244  0.80118912  0.10234512  1.0
  C  C114  1  0.87122483  0.82117974  0.13851099  1.0
  C  C115  1  0.90773670  0.85687504  0.20882992  1.0
  C  C116  1  0.76542244  0.76547040  0.03094737  1.0
  C  C117  1  0.73461413  0.73462767  0.96932883  1.0
  C  C118  1  0.69893668  0.69891599  0.89793538  1.0
  C  C119  1  0.62477997  0.66095237  0.86175788  1.0
  C  C120  1  0.58844652  0.62576453  0.79143992  1.0
  C  C121  1  0.62801333  0.62797556  0.75600268  1.0
  C  C122  1  0.70302029  0.66563259  0.79149566  1.0
  C  C123  1  0.73696417  0.70073414  0.86180647  1.0
  C  C124  1  0.12803101  0.87196557  0.50000474  1.0
  C  C125  1  0.12603155  0.83449693  0.53751873  1.0
  C  C126  1  0.16118387  0.79932114  0.53632256  1.0
  C  C127  1  0.19895814  0.80095083  0.49994918  1.0
  C  C128  1  0.20062363  0.83876977  0.46362349  1.0
  C  C129  1  0.16548336  0.87396035  0.46247598  1.0
  C  C130  1  0.23462261  0.76521429  0.49992600  1.0
  C  C131  1  0.26540367  0.73436313  0.49992679  1.0
  C  C132  1  0.30112231  0.69867138  0.49995009  1.0
  C  C133  1  0.31742403  0.67879367  0.55010286  1.0
  C  C134  1  0.35207422  0.64311168  0.55090591  1.0
  C  C135  1  0.37218715  0.62773502  0.49999503  1.0
  C  C136  1  0.35679281  0.64780956  0.44906350  1.0
  C  C137  1  0.32105845  0.68240559  0.44983128  1.0
  C  C138  1  0.87194578  0.12803885  0.49998081  1.0
  C  C139  1  0.91147666  0.20303419  0.53750344  1.0
  C  C140  1  0.87513724  0.23702116  0.53630129  1.0
  C  C141  1  0.80099280  0.19902142  0.49991734  1.0
  C  C142  1  0.76298330  0.12486661  0.46358193  1.0
  C  C143  1  0.79696065  0.08851675  0.46244385  1.0
  C  C144  1  0.76531157  0.23473336  0.49989757  1.0
  C  C145  1  0.73451654  0.26557132  0.49991273  1.0
  C  C146  1  0.69880953  0.30127020  0.49994079  1.0
  C  C147  1  0.73265952  0.37131552  0.55009128  1.0
  C  C148  1  0.69880317  0.40779287  0.55088781  1.0
  C  C149  1  0.62777522  0.37222560  0.49997797  1.0
  C  C150  1  0.59223236  0.30119629  0.44905543  1.0
  C  C151  1  0.62874428  0.26738141  0.44982354  1.0
  C  C152  1  0.12444069  0.01746300  0.75742489  1.0
  C  C153  1  0.13302099  0.24005934  0.75746435  1.0
  C  C154  1  0.32845994  0.25118582  0.24223826  1.0
  C  C155  1  0.41387302  0.49107471  0.24235065  1.0
  C  C156  1  0.76003291  0.86706753  0.24260617  1.0
  C  C157  1  0.98254972  0.87554086  0.24252823  1.0
  C  C158  1  0.50892929  0.58614260  0.75766245  1.0
  C  C159  1  0.74879475  0.67151173  0.75775687  1.0
  C  C160  1  0.08670980  0.82894385  0.57769761  1.0
  C  C161  1  0.17104532  0.91330508  0.42232086  1.0
  C  C162  1  0.36724906  0.62452728  0.60709184  1.0
  C  C163  1  0.37540863  0.63265424  0.39289336  1.0
  C  C164  1  0.99098272  0.24876243  0.57767287  1.0
  C  C165  1  0.75123447  0.00901009  0.42229012  1.0
  C  C166  1  0.73979621  0.48258035  0.60706903  1.0
  C  C167  1  0.51743961  0.26016408  0.39289358  1.0
  N  N168  1  0.78549970  0.69042877  0.58369206  1.0
  N  N169  1  0.71463228  0.79888839  0.40536608  1.0
  N  N170  1  0.89349951  0.80922696  0.59455390  1.0
  N  N171  1  0.60669071  0.70177288  0.41625078  1.0
  N  N172  1  0.30956982  0.21447454  0.41630153  1.0
  N  N173  1  0.20111808  0.28536636  0.59464323  1.0
  N  N174  1  0.19076900  0.10647711  0.40543969  1.0
  N  N175  1  0.29825049  0.39331054  0.58377541  1.0
  O  O176  1  0.49999708  0.49999274  0.49999864  1.0
  O  O177  1  0.45429785  0.60459577  0.47763468  1.0
  O  O178  1  0.40159257  0.42347449  0.55325055  1.0
  O  O179  1  0.43492188  0.38163346  0.34908650  1.0
  O  O180  1  0.39539706  0.54568379  0.52239462  1.0
  O  O181  1  0.41417156  0.46736246  0.34911976  1.0
  O  O182  1  0.37023118  0.34833688  0.44680314  1.0
  O  O183  1  0.52330896  0.37300288  0.47764271  1.0
  O  O184  1  0.65164832  0.62976314  0.55319032  1.0
  O  O185  1  0.62696022  0.47667351  0.52232422  1.0
  O  O186  1  0.57650579  0.59842371  0.44676323  1.0
  O  O187  1  0.53264260  0.58584027  0.65090201  1.0
  O  O188  1  0.61835095  0.56506690  0.65090853  1.0
  O  O189  1  0.99998988  0.00001405  0.50000855  1.0
  O  O190  1  0.04582268  0.02338120  0.65040878  1.0
  O  O191  1  0.09825272  0.15149148  0.52190133  1.0
  O  O192  1  0.06474584  0.91380529  0.44665307  1.0
  O  O193  1  0.10457157  0.12708572  0.65040887  1.0
  O  O194  1  0.08620302  0.93525577  0.55339428  1.0
  O  O195  1  0.12963053  0.07636067  0.47819282  1.0
  O  O196  1  0.97666479  0.95417270  0.34960794  1.0
  O  O197  1  0.84849582  0.90173361  0.47806944  1.0
  O  O198  1  0.87296178  0.89542268  0.34959475  1.0
  O  O199  1  0.92362883  0.87039130  0.52184126  1.0
  O  O200  1  0.96715231  0.11813118  0.55334962  1.0
  O  O201  1  0.88185449  0.03282625  0.44659802  1.0
  O  O202  1  0.77338216  0.63117017  0.55311332  1.0
  O  O203  1  0.81440927  0.72773283  0.64524652  1.0
  O  O204  1  0.72636866  0.78030571  0.35798053  1.0
  O  O205  1  0.68609788  0.83186638  0.41419354  1.0
  O  O206  1  0.92229996  0.86835557  0.64193965  1.0
  O  O207  1  0.91766853  0.77188108  0.58574301  1.0
  O  O208  1  0.57804453  0.72025777  0.44685771  1.0
  O  O209  1  0.58239370  0.66909760  0.35469484  1.0
  O  O210  1  0.36882915  0.22660090  0.44687319  1.0
  O  O211  1  0.27226938  0.18556106  0.35475016  1.0
  O  O212  1  0.21967327  0.27361207  0.64201777  1.0
  O  O213  1  0.16816409  0.31392339  0.58582785  1.0
  O  O214  1  0.13164104  0.07768099  0.35806443  1.0
  O  O215  1  0.22811072  0.08230333  0.41423045  1.0
  O  O216  1  0.27977288  0.42196361  0.55317901  1.0
  O  O217  1  0.33093244  0.41760954  0.64532940  1.0
