# generated using pymatgen
data_ZnH16C24Br4NO5
_symmetry_space_group_name_H-M   'P 1'
_cell_length_a   10.98206548
_cell_length_b   17.85712005
_cell_length_c   19.63369274
_cell_angle_alpha   91.15323177
_cell_angle_beta   90.91905608
_cell_angle_gamma   105.53202240
_symmetry_Int_Tables_number   1
_chemical_formula_structural   ZnH16C24Br4NO5
_chemical_formula_sum   'Zn2 H32 C48 Br8 N2 O10'
_cell_volume   3708.04589030
_cell_formula_units_Z   2
loop_
 _symmetry_equiv_pos_site_id
 _symmetry_equiv_pos_as_xyz
  1  'x, y, z'
loop_
 _atom_site_type_symbol
 _atom_site_label
 _atom_site_symmetry_multiplicity
 _atom_site_fract_x
 _atom_site_fract_y
 _atom_site_fract_z
 _atom_site_occupancy
  Zn  Zn0  1  0.93639050  0.41965981  0.49674840  1.0
  Zn  Zn1  1  0.06270226  0.58180199  0.50009695  1.0
  H  H2  1  0.41330552  0.55703843  0.48906538  1.0
  H  H3  1  0.73148961  0.03741256  0.48434092  1.0
  H  H4  1  0.92916931  0.37904497  0.71109324  1.0
  H  H5  1  0.91515115  0.37555409  0.28001703  1.0
  H  H6  1  0.10539791  0.62306912  0.84661035  1.0
  H  H7  1  0.07909145  0.62085590  0.15631635  1.0
  H  H8  1  0.10210839  0.62493140  0.71910229  1.0
  H  H9  1  0.07532086  0.62266256  0.28392375  1.0
  H  H10  1  0.92150083  0.27866401  0.57428210  1.0
  H  H11  1  0.07609366  0.72457100  0.42584457  1.0
  H  H12  1  0.28926981  0.42329660  0.04757350  1.0
  H  H13  1  0.58425158  0.44276079  0.48982726  1.0
  H  H14  1  0.18007248  0.40626561  0.11612021  1.0
  H  H15  1  0.40779515  0.41751642  0.15086569  1.0
  H  H16  1  0.44894553  0.51506179  0.12485812  1.0
  H  H17  1  0.30217007  0.54703259  0.21264924  1.0
  H  H18  1  0.41712829  0.50744847  0.25210452  1.0
  H  H19  1  0.25991325  0.44894834  0.23800823  1.0
  H  H20  1  0.84575472  0.59321610  0.87749294  1.0
  H  H21  1  0.73456127  0.58169906  0.94505181  1.0
  H  H22  1  0.68384121  0.50307008  0.80297998  1.0
  H  H23  1  0.57317068  0.48993875  0.86920216  1.0
  H  H24  1  0.77985590  0.14295990  0.58047210  1.0
  H  H25  1  0.58191796  0.63331157  0.86738305  1.0
  H  H26  1  0.53798986  0.58850895  0.78590647  1.0
  H  H27  1  0.69443844  0.64689654  0.80157992  1.0
  H  H28  1  0.21857496  0.86014271  0.42036523  1.0
  H  H29  1  0.54031315  0.20416654  0.42621478  1.0
  H  H30  1  0.46116574  0.79565557  0.57105536  1.0
  H  H31  1  0.69203162  0.33679868  0.42663056  1.0
  H  H32  1  0.30893556  0.66319711  0.56965365  1.0
  H  H33  1  0.26900761  0.96419332  0.51558413  1.0
  C  C34  1  0.99240540  0.49978991  0.36553767  1.0
  C  C35  1  0.01591372  0.50087980  0.92679135  1.0
  C  C36  1  0.83611242  0.25899049  0.54241237  1.0
  C  C37  1  0.16254960  0.74351039  0.45698192  1.0
  C  C38  1  0.75734430  0.18396683  0.54526062  1.0
  C  C39  1  0.24175662  0.81845847  0.45458275  1.0
  C  C40  1  0.64867586  0.16203351  0.50311923  1.0
  C  C41  1  0.35143438  0.83952192  0.49602573  1.0
  C  C42  1  0.62316388  0.21797975  0.46009901  1.0
  C  C43  1  0.37748947  0.78264988  0.53778393  1.0
  C  C44  1  0.70703819  0.29168678  0.45984693  1.0
  C  C45  1  0.01132559  0.50258921  0.63123317  1.0
  C  C46  1  0.29328051  0.70902572  0.53751733  1.0
  C  C47  1  0.43768059  0.05827933  0.51018737  1.0
  C  C48  1  0.56272788  0.94329273  0.48957128  1.0
  C  C49  1  0.79654291  0.55036657  0.49664436  1.0
  C  C50  1  0.20140230  0.45004973  0.49323762  1.0
  C  C51  1  0.37062985  0.98013538  0.50776924  1.0
  C  C52  1  0.62982785  0.02142807  0.49206958  1.0
  C  C53  1  0.43099187  0.92079578  0.49743292  1.0
  C  C54  1  0.56936843  0.08072715  0.50215840  1.0
  C  C55  1  0.66600752  0.56133296  0.49192037  1.0
  C  C56  1  0.01514157  0.50216565  0.70771125  1.0
  C  C57  1  0.33152026  0.43863846  0.48907290  1.0
  C  C58  1  0.56311927  0.49907389  0.48911005  1.0
  C  C59  1  0.43447328  0.50071315  0.48830654  1.0
  C  C60  1  0.96768070  0.43222782  0.74116212  1.0
  C  C61  1  0.94984674  0.42907545  0.25245106  1.0
  C  C62  1  0.96971197  0.43171002  0.81201241  1.0
  C  C63  1  0.95274290  0.42866235  0.18164775  1.0
  C  C64  1  0.01809297  0.50021012  0.85122428  1.0
  C  C65  1  0.99787675  0.49750317  0.14581594  1.0
  C  C66  1  0.06662085  0.56960728  0.81665430  1.0
  C  C67  1  0.99377762  0.49938084  0.28917276  1.0
  C  C68  1  0.04229756  0.56728302  0.18373288  1.0
  C  C69  1  0.06539011  0.57096796  0.74583337  1.0
  C  C70  1  0.04039555  0.56859717  0.25448169  1.0
  C  C71  1  0.26261421  0.44830471  0.09500524  1.0
  C  C72  1  0.37195990  0.46926072  0.14623473  1.0
  C  C73  1  0.33604732  0.49473179  0.21617255  1.0
  C  C74  1  0.76125726  0.55350833  0.89921071  1.0
  C  C75  1  0.65371473  0.53232668  0.84697348  1.0
  C  C76  1  0.61496032  0.60424107  0.82428293  1.0
  C  C77  1  0.12485121  0.50863522  0.96746336  1.0
  C  C78  1  0.89351379  0.49267236  0.02973758  1.0
  C  C79  1  0.11948585  0.50781931  0.03889049  1.0
  C  C80  1  0.89898243  0.49322528  0.95851527  1.0
  C  C81  1  0.00203837  0.49866123  0.07037493  1.0
  Br  Br82  1  0.34531926  0.13228982  0.52903794  1.0
  Br  Br83  1  0.65555475  0.86958182  0.47059296  1.0
  Br  Br84  1  0.34434817  0.33466250  0.48665235  1.0
  Br  Br85  1  0.65168321  0.66506592  0.49186992  1.0
  Br  Br86  1  0.90666449  0.33486384  0.85538685  1.0
  Br  Br87  1  0.89624156  0.33112503  0.13349020  1.0
  Br  Br88  1  0.28414325  0.51900574  0.92629230  1.0
  Br  Br89  1  0.73470919  0.48414940  0.07072399  1.0
  N  N90  1  0.81179106  0.31159657  0.49997032  1.0
  N  N91  1  0.18745344  0.69004255  0.49823514  1.0
  O  O92  1  0.94596925  0.43491081  0.39360909  1.0
  O  O93  1  0.79157916  0.48262926  0.91885628  1.0
  O  O94  1  0.05614906  0.56777321  0.60335284  1.0
  O  O95  1  0.03826193  0.56503741  0.39615630  1.0
  O  O96  1  0.96326813  0.43783309  0.60022280  1.0
  O  O97  1  0.79921411  0.47956152  0.49770662  1.0
  O  O98  1  0.19904318  0.52095004  0.49624494  1.0
  O  O99  1  0.89101053  0.60964880  0.49936522  1.0
  O  O100  1  0.10694533  0.39085886  0.49381384  1.0
  O  O101  1  0.22683541  0.51888735  0.07871325  1.0
