# generated using pymatgen
data_Zn4H10C28S2Br4O13
_symmetry_space_group_name_H-M   'P 1'
_cell_length_a   18.55017802
_cell_length_b   19.71846810
_cell_length_c   32.74998488
_cell_angle_alpha   85.97152010
_cell_angle_beta   73.62956748
_cell_angle_gamma   62.07782340
_symmetry_Int_Tables_number   1
_chemical_formula_structural   Zn4H10C28S2Br4O13
_chemical_formula_sum   'Zn16 H40 C112 S8 Br16 O52'
_cell_volume   10128.67800277
_cell_formula_units_Z   4
loop_
 _symmetry_equiv_pos_site_id
 _symmetry_equiv_pos_as_xyz
  1  'x, y, z'
loop_
 _atom_site_type_symbol
 _atom_site_label
 _atom_site_symmetry_multiplicity
 _atom_site_fract_x
 _atom_site_fract_y
 _atom_site_fract_z
 _atom_site_occupancy
  Zn  Zn0  1  0.87293441  0.55457809  0.51846563  1.0
  Zn  Zn1  1  0.03857444  0.48392223  0.43872520  1.0
  Zn  Zn2  1  0.04368069  0.39863922  0.52374932  1.0
  Zn  Zn3  1  0.04474395  0.56225343  0.51788911  1.0
  Zn  Zn4  1  0.62563100  0.19244389  0.73315209  1.0
  Zn  Zn5  1  0.46436315  0.34977309  0.72509223  1.0
  Zn  Zn6  1  0.45597520  0.26602208  0.81257987  1.0
  Zn  Zn7  1  0.45578696  0.19148492  0.72823419  1.0
  Zn  Zn8  1  0.46324196  0.76194033  0.31267846  1.0
  Zn  Zn9  1  0.45363417  0.69109706  0.23166965  1.0
  Zn  Zn10  1  0.62570614  0.69388834  0.22912962  1.0
  Zn  Zn11  1  0.45585975  0.85216882  0.22701223  1.0
  Zn  Zn12  1  0.03609669  0.90011408  0.02505427  1.0
  Zn  Zn13  1  0.05172101  0.05584470  0.01813837  1.0
  Zn  Zn14  1  0.87607315  0.05954137  0.02000626  1.0
  Zn  Zn15  1  0.03831228  0.98383155  0.93717567  1.0
  H  H16  1  0.81087320  0.24317634  0.65417505  1.0
  H  H17  1  0.54538860  0.48569995  0.61999677  1.0
  H  H18  1  0.55107584  0.52593064  0.66530202  1.0
  H  H19  1  0.65225882  0.56901058  0.61692238  1.0
  H  H20  1  0.64638028  0.52892666  0.57166539  1.0
  H  H21  1  0.29357682  0.60255917  0.29595353  1.0
  H  H22  1  0.34958304  0.67319379  0.43497216  1.0
  H  H23  1  0.25956277  0.76157441  0.43198607  1.0
  H  H24  1  0.16202713  0.71212514  0.47753761  1.0
  H  H25  1  0.25190147  0.62378869  0.48052887  1.0
  H  H26  1  0.80988822  0.60180515  0.29496141  1.0
  H  H27  1  0.54867998  0.76176253  0.43020460  1.0
  H  H28  1  0.54308686  0.67371893  0.43297358  1.0
  H  H29  1  0.64322875  0.62383660  0.47918872  1.0
  H  H30  1  0.64900179  0.71175203  0.47641858  1.0
  H  H31  1  0.30841027  0.45633408  0.64645172  1.0
  H  H32  1  0.32818968  0.17993028  0.62948757  1.0
  H  H33  1  0.23764478  0.22059987  0.67490354  1.0
  H  H34  1  0.14206265  0.27407805  0.62628327  1.0
  H  H35  1  0.23277492  0.23352214  0.58101339  1.0
  H  H36  1  0.69070553  0.14713958  0.95592036  1.0
  H  H37  1  0.95400292  0.07767769  0.81644299  1.0
  H  H38  1  0.94890763  0.98941537  0.81895654  1.0
  H  H39  1  0.84661708  0.04029393  0.77384742  1.0
  H  H40  1  0.85177113  0.12847202  0.77143604  1.0
  H  H41  1  0.19275634  0.05181609  0.84400561  1.0
  H  H42  1  0.17067122  0.21500808  0.97485235  1.0
  H  H43  1  0.26180002  0.12707252  0.97706560  1.0
  H  H44  1  0.35656539  0.17425929  0.92638273  1.0
  H  H45  1  0.26547093  0.26210362  0.92423667  1.0
  H  H46  1  0.19303535  0.79433960  0.10323966  1.0
  H  H47  1  0.26147120  0.03167937  0.07488072  1.0
  H  H48  1  0.17038317  0.07186782  0.12010614  1.0
  H  H49  1  0.26532252  0.01938216  0.16889975  1.0
  H  H50  1  0.35640293  0.97929819  0.12376425  1.0
  H  H51  1  0.68895404  0.00751380  0.09649109  1.0
  H  H52  1  0.94916047  0.72457246  0.08486193  1.0
  H  H53  1  0.95395420  0.76453010  0.13055782  1.0
  H  H54  1  0.85275798  0.72102593  0.17814025  1.0
  H  H55  1  0.84818959  0.68065627  0.13256706  1.0
  C  C56  1  0.86276339  0.56754939  0.43044216  1.0
  C  C57  1  0.12473910  0.31530414  0.43871935  1.0
  C  C58  1  0.86567104  0.42750607  0.56828861  1.0
  C  C59  1  0.13882151  0.43513337  0.56816677  1.0
  C  C60  1  0.87168900  0.68414882  0.56050808  1.0
  C  C61  1  0.13733076  0.56910785  0.43081743  1.0
  C  C62  1  0.63932496  0.31840918  0.68153527  1.0
  C  C63  1  0.37685428  0.43529611  0.80981583  1.0
  C  C64  1  0.63329377  0.18268495  0.82129787  1.0
  C  C65  1  0.36148257  0.18039757  0.81674102  1.0
  C  C66  1  0.62732849  0.06574495  0.68855729  1.0
  C  C67  1  0.36332722  0.31858601  0.68035833  1.0
  C  C68  1  0.36298278  0.68059364  0.32000014  1.0
  C  C69  1  0.62317387  0.56566699  0.18878399  1.0
  C  C70  1  0.63835049  0.68067754  0.31844698  1.0
  C  C71  1  0.63382836  0.82161680  0.18056688  1.0
  C  C72  1  0.37565407  0.93175227  0.31319963  1.0
  C  C73  1  0.36137083  0.81740949  0.18141530  1.0
  C  C74  1  0.13869708  0.93123351  0.06866805  1.0
  C  C75  1  0.88300343  0.18384619  0.06115331  1.0
  C  C76  1  0.86081413  0.93271580  0.06963553  1.0
  C  C77  1  0.86232374  0.06885124  0.93134837  1.0
  C  C78  1  0.12160219  0.81462030  0.94014033  1.0
  C  C79  1  0.13942848  0.06711921  0.93011306  1.0
  C  C80  1  0.73393715  0.80435522  0.60111387  1.0
  C  C81  1  0.76476824  0.94464722  0.64889926  1.0
  C  C82  1  0.82141184  0.75861549  0.58581474  1.0
  C  C83  1  0.67728992  0.99073349  0.66390302  1.0
  C  C84  1  0.78549469  0.87676933  0.62597166  1.0
  C  C85  1  0.71312752  0.87223201  0.62408226  1.0
  C  C86  1  0.20241959  0.22530653  0.36941498  1.0
  C  C87  1  0.29801785  0.02142250  0.38280202  1.0
  C  C88  1  0.17397531  0.24107462  0.41344960  1.0
  C  C89  1  0.32646407  0.00570917  0.33877969  1.0
  C  C90  1  0.25280173  0.10144221  0.39407184  1.0
  C  C91  1  0.24765728  0.14523097  0.35827606  1.0
  C  C92  1  0.69662355  0.34616185  0.65298993  1.0
  C  C93  1  0.81170012  0.39664148  0.59734244  1.0
  C  C94  1  0.66706273  0.41795615  0.63619680  1.0
  C  C95  1  0.84118842  0.32363923  0.61486395  1.0
  C  C96  1  0.72307654  0.44157362  0.60946313  1.0
  C  C97  1  0.78536513  0.29963692  0.64162087  1.0
  C  C98  1  0.58866378  0.49201974  0.63458928  1.0
  C  C99  1  0.65189410  0.51904590  0.60432078  1.0
  C  C100  1  0.30579644  0.65254902  0.34822635  1.0
  C  C101  1  0.19387198  0.59645039  0.40108545  1.0
  C  C102  1  0.27970243  0.66410322  0.39254652  1.0
  C  C103  1  0.22075324  0.58508888  0.35577581  1.0
  C  C104  1  0.22566520  0.63690188  0.41763464  1.0
  C  C105  1  0.27474666  0.61235328  0.33049897  1.0
  C  C106  1  0.28570066  0.69869808  0.43053695  1.0
  C  C107  1  0.22458522  0.66778673  0.45907032  1.0
  C  C108  1  0.69522510  0.65234187  0.34680457  1.0
  C  C109  1  0.80917602  0.59535265  0.40039205  1.0
  C  C110  1  0.66504821  0.66385329  0.39113822  1.0
  C  C111  1  0.83937270  0.58422582  0.35507399  1.0
  C  C112  1  0.72054348  0.63615546  0.41657784  1.0
  C  C113  1  0.78396049  0.61182867  0.32947409  1.0
  C  C114  1  0.58626263  0.69886259  0.42884432  1.0
  C  C115  1  0.64896729  0.66759021  0.45778319  1.0
  C  C116  1  0.30564254  0.34821599  0.65238737  1.0
  C  C117  1  0.19554823  0.40909485  0.59679061  1.0
  C  C118  1  0.27157896  0.30643262  0.63958924  1.0
  C  C119  1  0.23042326  0.45137874  0.61020039  1.0
  C  C120  1  0.21868798  0.33631813  0.61282972  1.0
  C  C121  1  0.28330743  0.42178369  0.63702444  1.0
  C  C122  1  0.26727684  0.23137111  0.64275122  1.0
  C  C123  1  0.20745358  0.26490141  0.61240613  1.0
  C  C124  1  0.29801810  0.58447115  0.82050952  1.0
  C  C125  1  0.20159980  0.66540686  0.92953457  1.0
  C  C126  1  0.32742985  0.51043898  0.83435293  1.0
  C  C127  1  0.17176543  0.73943720  0.91566153  1.0
  C  C128  1  0.24756398  0.60886930  0.89488277  1.0
  C  C129  1  0.25209659  0.64096327  0.85515863  1.0
  C  C130  1  0.80445262  0.09726959  0.90339372  1.0
  C  C131  1  0.68780801  0.15487578  0.85101602  1.0
  C  C132  1  0.83312672  0.08637907  0.85903429  1.0
  C  C133  1  0.65920179  0.16516929  0.89634258  1.0
  C  C134  1  0.77640599  0.11450560  0.83420048  1.0
  C  C135  1  0.71572069  0.13748491  0.92136772  1.0
  C  C136  1  0.91097374  0.05232683  0.82082198  1.0
  C  C137  1  0.84697868  0.08412267  0.79259014  1.0
  C  C138  1  0.19537811  0.09610104  0.90140981  1.0
  C  C139  1  0.30411543  0.15097160  0.84376741  1.0
  C  C140  1  0.22825525  0.13695189  0.91630717  1.0
  C  C141  1  0.26968384  0.10971863  0.82889412  1.0
  C  C142  1  0.28049603  0.16306002  0.88824328  1.0
  C  C143  1  0.21746215  0.08330722  0.85685301  1.0
  C  C144  1  0.23189466  0.16980876  0.95567612  1.0
  C  C145  1  0.29121685  0.19934464  0.92399184  1.0
  C  C146  1  0.64499663  0.44576093  0.14866306  1.0
  C  C147  1  0.86231090  0.30379290  0.10099669  1.0
  C  C148  1  0.67255943  0.49111020  0.16368813  1.0
  C  C149  1  0.83452257  0.25856107  0.08603760  1.0
  C  C150  1  0.79335998  0.37215046  0.12379892  1.0
  C  C151  1  0.71416619  0.37759398  0.12579571  1.0
  C  C152  1  0.19538338  0.90258052  0.09706638  1.0
  C  C153  1  0.30461995  0.84321595  0.15293057  1.0
  C  C154  1  0.22846965  0.94518579  0.10996209  1.0
  C  C155  1  0.27050716  0.80016617  0.13953200  1.0
  C  C156  1  0.28086622  0.91603472  0.13695272  1.0
  C  C157  1  0.21782784  0.82921236  0.11261054  1.0
  C  C158  1  0.23172652  0.02074295  0.10694580  1.0
  C  C159  1  0.29117603  0.98791482  0.13750455  1.0
  C  C160  1  0.80333726  0.90442469  0.09752578  1.0
  C  C161  1  0.68796832  0.85279195  0.15192576  1.0
  C  C162  1  0.83274644  0.83222125  0.11387197  1.0
  C  C163  1  0.65861257  0.92612220  0.13473104  1.0
  C  C164  1  0.77663185  0.80810858  0.14007707  1.0
  C  C165  1  0.71452282  0.95074366  0.10868088  1.0
  C  C166  1  0.91112807  0.75824509  0.11560212  1.0
  C  C167  1  0.84784529  0.73081037  0.14539137  1.0
  S  S168  1  0.87842491  0.79861928  0.59964696  1.0
  S  S169  1  0.62021654  0.95076694  0.65004675  1.0
  S  S170  1  0.20266776  0.15790469  0.44121806  1.0
  S  S171  1  0.29781690  0.08895093  0.31110379  1.0
  S  S172  1  0.29897764  0.51002008  0.88989205  1.0
  S  S173  1  0.20020350  0.73980426  0.86012477  1.0
  S  S174  1  0.78326728  0.45029806  0.14971477  1.0
  S  S175  1  0.72385257  0.29971207  0.09993191  1.0
  Br  Br176  1  0.64880263  0.78404856  0.59379109  1.0
  Br  Br177  1  0.84991823  0.96503262  0.65604608  1.0
  Br  Br178  1  0.18698508  0.29635272  0.32729951  1.0
  Br  Br179  1  0.31384869  0.94991436  0.42477185  1.0
  Br  Br180  1  0.31300766  0.61240981  0.76390613  1.0
  Br  Br181  1  0.18662383  0.63755577  0.98614605  1.0
  Br  Br182  1  0.53236263  0.46678629  0.15563857  1.0
  Br  Br183  1  0.97538450  0.28209128  0.09367171  1.0
  Br  Br184  1  0.95850835  0.25031109  0.60437897  1.0
  Br  Br185  1  0.18596725  0.53382695  0.32423060  1.0
  Br  Br186  1  0.95672993  0.53144659  0.32388269  1.0
  Br  Br187  1  0.21034239  0.55194553  0.59329157  1.0
  Br  Br188  1  0.54208460  0.21707625  0.92815909  1.0
  Br  Br189  1  0.28872045  0.08675651  0.76994661  1.0
  Br  Br190  1  0.29057144  0.69982721  0.15667878  1.0
  Br  Br191  1  0.54126333  0.99885214  0.14454128  1.0
  O  O192  1  0.99805999  0.50075998  0.50110215  1.0
  O  O193  1  0.82275903  0.58219469  0.47026396  1.0
  O  O194  1  0.10111094  0.37549228  0.41821244  1.0
  O  O195  1  0.94587345  0.38603014  0.55797025  1.0
  O  O196  1  0.94293239  0.53178710  0.41462666  1.0
  O  O197  1  0.82506282  0.49464206  0.55607275  1.0
  O  O198  1  0.10993405  0.31245739  0.47929640  1.0
  O  O199  1  0.11806414  0.38576662  0.55908366  1.0
  O  O200  1  0.95246256  0.65801098  0.55064782  1.0
  O  O201  1  0.11562977  0.50241082  0.55520010  1.0
  O  O202  1  0.83166032  0.65291887  0.55082937  1.0
  O  O203  1  0.11763325  0.52499861  0.41530890  1.0
  O  O204  1  0.11363134  0.59217667  0.47024115  1.0
  O  O205  1  0.50073935  0.24973193  0.74994886  1.0
  O  O206  1  0.67408106  0.25236154  0.69578544  1.0
  O  O207  1  0.40014782  0.43534760  0.76934393  1.0
  O  O208  1  0.55305951  0.21995836  0.83678190  1.0
  O  O209  1  0.55967165  0.36392767  0.68918312  1.0
  O  O210  1  0.67376912  0.16598461  0.78158566  1.0
  O  O211  1  0.39183002  0.37638065  0.83188381  1.0
  O  O212  1  0.37927956  0.22154833  0.83670716  1.0
  O  O213  1  0.54654774  0.09492740  0.69589520  1.0
  O  O214  1  0.38859379  0.16250242  0.77684358  1.0
  O  O215  1  0.66745112  0.09481794  0.70026449  1.0
  O  O216  1  0.38861065  0.36350305  0.69033687  1.0
  O  O217  1  0.38270633  0.25032816  0.69180780  1.0
  O  O218  1  0.50083639  0.75028474  0.25013532  1.0
  O  O219  1  0.38842845  0.71650517  0.33859407  1.0
  O  O220  1  0.54259912  0.59365275  0.20015988  1.0
  O  O221  1  0.67322726  0.66789007  0.27826723  1.0
  O  O222  1  0.38161350  0.66653716  0.27988080  1.0
  O  O223  1  0.55875302  0.71564990  0.33741752  1.0
  O  O224  1  0.66636995  0.59548590  0.19694800  1.0
  O  O225  1  0.67412028  0.75308705  0.19127194  1.0
  O  O226  1  0.39122105  0.93585892  0.27267760  1.0
  O  O227  1  0.55376963  0.86415544  0.19217992  1.0
  O  O228  1  0.39822859  0.87094429  0.33327791  1.0
  O  O229  1  0.38741063  0.74889939  0.19266741  1.0
  O  O230  1  0.37970981  0.86744469  0.19208985  1.0
  O  O231  1  0.00067941  0.99998769  0.99978503  1.0
  O  O232  1  0.11069946  0.88739948  0.06023441  1.0
  O  O233  1  0.96377984  0.15328794  0.05070934  1.0
  O  O234  1  0.82636407  0.00055464  0.05732718  1.0
  O  O235  1  0.12300707  0.99774641  0.05527031  1.0
  O  O236  1  0.94035832  0.88591433  0.06046652  1.0
  O  O237  1  0.83829129  0.15637264  0.05227191  1.0
  O  O238  1  0.82781436  0.08534155  0.97140636  1.0
  O  O239  1  0.10329137  0.87352559  0.91793434  1.0
  O  O240  1  0.94178979  0.03033954  0.91256175  1.0
  O  O241  1  0.10094601  0.81472102  0.98065137  1.0
  O  O242  1  0.12245818  0.08217659  0.97002684  1.0
  O  O243  1  0.11338782  0.03022561  0.91273049  1.0
