# generated using pymatgen
data_Zn4H27C39N3O16
_symmetry_space_group_name_H-M   'P 1'
_cell_length_a   18.50313320
_cell_length_b   19.15767195
_cell_length_c   20.30179499
_cell_angle_alpha   67.67335757
_cell_angle_beta   65.32836639
_cell_angle_gamma   66.30074134
_symmetry_Int_Tables_number   1
_chemical_formula_structural   Zn4H27C39N3O16
_chemical_formula_sum   'Zn8 H54 C78 N6 O32'
_cell_volume   5790.25804657
_cell_formula_units_Z   2
loop_
 _symmetry_equiv_pos_site_id
 _symmetry_equiv_pos_as_xyz
  1  'x, y, z'
loop_
 _atom_site_type_symbol
 _atom_site_label
 _atom_site_symmetry_multiplicity
 _atom_site_fract_x
 _atom_site_fract_y
 _atom_site_fract_z
 _atom_site_occupancy
  Zn  Zn0  1  0.03801305  0.09292828  0.88772817  1.0
  Zn  Zn1  1  0.87681236  0.10931690  0.03227030  1.0
  Zn  Zn2  1  0.06175060  0.08043780  0.03968323  1.0
  Zn  Zn3  1  0.01885964  0.94414689  0.02492350  1.0
  Zn  Zn4  1  0.44954108  0.52702854  0.59677840  1.0
  Zn  Zn5  1  0.62177467  0.53556376  0.46885982  1.0
  Zn  Zn6  1  0.45703186  0.67064218  0.44971937  1.0
  Zn  Zn7  1  0.49692720  0.49423130  0.43480263  1.0
  H  H8  1  0.70167930  0.54262730  0.84786276  1.0
  H  H9  1  0.77865753  0.56893686  0.85669346  1.0
  H  H10  1  0.75650271  0.47798235  0.91258757  1.0
  H  H11  1  0.88954173  0.45468027  0.80682874  1.0
  H  H12  1  0.83878193  0.52024987  0.74056498  1.0
  H  H13  1  0.88810990  0.33495397  0.85715209  1.0
  H  H14  1  0.67658638  0.31496453  0.72056304  1.0
  H  H15  1  0.65102788  0.56476886  0.63880773  1.0
  H  H16  1  0.73472852  0.55060123  0.71292593  1.0
  H  H17  1  0.54511277  0.09612577  0.79076860  1.0
  H  H18  1  0.57865568  0.99168035  0.82257807  1.0
  H  H19  1  0.48748479  0.04744265  0.87905502  1.0
  H  H20  1  0.44982677  0.98293670  0.81571004  1.0
  H  H21  1  0.50782954  0.02826473  0.72712362  1.0
  H  H22  1  0.32423612  0.03685214  0.87096203  1.0
  H  H23  1  0.28261176  0.36634713  0.69583320  1.0
  H  H24  1  0.53388930  0.26085894  0.57152449  1.0
  H  H25  1  0.52999142  0.13230226  0.66252504  1.0
  H  H26  1  0.96581336  0.74742254  0.76050350  1.0
  H  H27  1  0.86085512  0.80600624  0.76982981  1.0
  H  H28  1  0.90526494  0.78705975  0.83989269  1.0
  H  H29  1  0.89821893  0.92434269  0.75748444  1.0
  H  H30  1  0.95564448  0.88801323  0.67700245  1.0
  H  H31  1  0.95448467  0.93890101  0.82157463  1.0
  H  H32  1  0.29780794  0.74293723  0.71981952  1.0
  H  H33  1  0.19470537  0.72817019  0.57170986  1.0
  H  H34  1  0.05624622  0.80270115  0.63734934  1.0
  H  H35  1  0.00897139  0.49030115  0.06449732  1.0
  H  H36  1  0.05097138  0.52230589  0.96538808  1.0
  H  H37  1  0.06795188  0.41997125  0.01011157  1.0
  H  H38  1  0.95893476  0.46900785  0.94755424  1.0
  H  H39  1  0.89874237  0.54039227  0.99933309  1.0
  H  H40  1  0.97421681  0.34159742  0.99698753  1.0
  H  H41  1  0.71193893  0.35546940  0.28570656  1.0
  H  H42  1  0.76317346  0.57540324  0.22943568  1.0
  H  H43  1  0.86014197  0.55390650  0.10675299  1.0
  H  H44  1  0.93298646  0.74256755  0.41255399  1.0
  H  H45  1  0.98080512  0.79398004  0.43163006  1.0
  H  H46  1  0.99432664  0.80188207  0.33761302  1.0
  H  H47  1  0.89087167  0.92369934  0.37582144  1.0
  H  H48  1  0.82970970  0.86815733  0.45317008  1.0
  H  H49  1  0.90100193  0.94253929  0.25923167  1.0
  H  H50  1  0.64074278  0.81152427  0.30734408  1.0
  H  H51  1  0.68551958  0.70089970  0.52096111  1.0
  H  H52  1  0.78108743  0.77835487  0.48425408  1.0
  H  H53  1  0.41270641  0.62793542  0.03165397  1.0
  H  H54  1  0.45123891  0.66156354  0.93232997  1.0
  H  H55  1  0.34285194  0.69106373  0.97954102  1.0
  H  H56  1  0.40306301  0.80097733  0.94236873  1.0
  H  H57  1  0.47659374  0.74085704  0.99002670  1.0
  H  H58  1  0.27081966  0.84918334  0.99940717  1.0
  H  H59  1  0.28456473  0.76750779  0.30414017  1.0
  H  H60  1  0.50501456  0.59392992  0.21261251  1.0
  H  H61  1  0.48360478  0.65395828  0.08869646  1.0
  C  C62  1  0.76249726  0.51955100  0.85688891  1.0
  C  C63  1  0.82938778  0.47882358  0.79636736  1.0
  C  C64  1  0.84442092  0.33869227  0.83199647  1.0
  C  C65  1  0.82702494  0.27288124  0.83907550  1.0
  C  C66  1  0.87260234  0.19672619  0.88130123  1.0
  C  C67  1  0.77158365  0.27666562  0.80328086  1.0
  C  C68  1  0.73838290  0.35719689  0.75932938  1.0
  C  C69  1  0.68865166  0.36746557  0.71772582  1.0
  C  C70  1  0.65846043  0.44107267  0.67394100  1.0
  C  C71  1  0.67537849  0.50687479  0.67306311  1.0
  C  C72  1  0.72312695  0.49859398  0.71434454  1.0
  C  C73  1  0.75719115  0.42340102  0.75652463  1.0
  C  C74  1  0.61046337  0.45591231  0.62362976  1.0
  C  C75  1  0.52373745  0.04332301  0.82120453  1.0
  C  C76  1  0.47163292  0.03542780  0.78413286  1.0
  C  C77  1  0.32296398  0.09570297  0.83368997  1.0
  C  C78  1  0.25028584  0.15547668  0.83944484  1.0
  C  C79  1  0.17190561  0.13460317  0.88995453  1.0
  C  C80  1  0.24900600  0.23547275  0.79337704  1.0
  C  C81  1  0.33030773  0.24177533  0.73638729  1.0
  C  C82  1  0.33684839  0.31532238  0.68712550  1.0
  C  C83  1  0.40950112  0.32258243  0.62849147  1.0
  C  C84  1  0.47784304  0.25504376  0.61866088  1.0
  C  C85  1  0.47503542  0.18282045  0.66958693  1.0
  C  C86  1  0.40152158  0.17506018  0.72933070  1.0
  C  C87  1  0.41877064  0.40089182  0.57829015  1.0
  C  C88  1  0.91793700  0.79891501  0.77937248  1.0
  C  C89  1  0.94584660  0.87349727  0.73735566  1.0
  C  C90  1  0.01631211  0.90143238  0.79858985  1.0
  C  C91  1  0.08187361  0.89167281  0.81911998  1.0
  C  C92  1  0.06770835  0.93572174  0.87257945  1.0
  C  C93  1  0.16334639  0.83876994  0.79171590  1.0
  C  C94  1  0.16877790  0.80402460  0.73531869  1.0
  C  C95  1  0.24569704  0.75587655  0.70071093  1.0
  C  C96  1  0.25514031  0.72902693  0.64225583  1.0
  C  C97  1  0.18632521  0.74795451  0.61885392  1.0
  C  C98  1  0.10874428  0.79056815  0.65542256  1.0
  C  C99  1  0.09889304  0.82025877  0.71345572  1.0
  C  C100  1  0.33667071  0.68211873  0.60052180  1.0
  C  C101  1  0.02242583  0.47830396  0.01119555  1.0
  C  C102  1  0.94389056  0.48157994  0.00105688  1.0
  C  C103  1  0.92418456  0.35105925  0.04874700  1.0
  C  C104  1  0.88782858  0.29323987  0.09696416  1.0
  C  C105  1  0.91778148  0.21613777  0.07780740  1.0
  C  C106  1  0.82109074  0.30579517  0.16628021  1.0
  C  C107  1  0.80273290  0.38314209  0.17962834  1.0
  C  C108  1  0.74422065  0.39931975  0.24719097  1.0
  C  C109  1  0.73001052  0.46752765  0.26582618  1.0
  C  C110  1  0.77334972  0.52253463  0.21443899  1.0
  C  C111  1  0.82807732  0.51008580  0.14550296  1.0
  C  C112  1  0.84448638  0.43981848  0.12725308  1.0
  C  C113  1  0.67128241  0.48091743  0.34005484  1.0
  C  C114  1  0.94956754  0.79745936  0.39437049  1.0
  C  C115  1  0.87295462  0.86925338  0.39606294  1.0
  C  C116  1  0.85112192  0.91713548  0.27461788  1.0
  C  C117  1  0.81754981  0.92487543  0.22296816  1.0
  C  C118  1  0.85677886  0.96335551  0.14312528  1.0
  C  C119  1  0.75152439  0.89073259  0.24307371  1.0
  C  C120  1  0.72911665  0.84478088  0.32237906  1.0
  C  C121  1  0.67057953  0.80402677  0.34690659  1.0
  C  C122  1  0.65512353  0.75214893  0.41754239  1.0
  C  C123  1  0.69638293  0.74310326  0.46633148  1.0
  C  C124  1  0.75056068  0.78617480  0.44525476  1.0
  C  C125  1  0.76903692  0.83682928  0.37244664  1.0
  C  C126  1  0.60322838  0.69987369  0.43912221  1.0
  C  C127  1  0.40455070  0.67839188  0.98337667  1.0
  C  C128  1  0.41376281  0.75073658  0.99024401  1.0
  C  C129  1  0.28056679  0.83079399  0.05362948  1.0
  C  C130  1  0.22024128  0.86222273  0.11123666  1.0
  C  C131  1  0.14371816  0.91897388  0.09249698  1.0
  C  C132  1  0.23129646  0.83648357  0.18481752  1.0
  C  C133  1  0.31089523  0.77357453  0.18922825  1.0
  C  C134  1  0.32826561  0.74157730  0.25758727  1.0
  C  C135  1  0.39758175  0.67759205  0.26605912  1.0
  C  C136  1  0.45211070  0.64526506  0.20487688  1.0
  C  C137  1  0.43959067  0.67888408  0.13561375  1.0
  C  C138  1  0.36900478  0.74316135  0.12687679  1.0
  C  C139  1  0.41799094  0.64227360  0.33784855  1.0
  N  N140  1  0.81061442  0.41261563  0.79385165  1.0
  N  N141  1  0.39710063  0.10296307  0.78114557  1.0
  N  N142  1  0.02215448  0.86669319  0.74831451  1.0
  N  N143  1  0.90203180  0.42384339  0.05998322  1.0
  N  N144  1  0.82725589  0.87683565  0.34814429  1.0
  N  N145  1  0.35410654  0.77628298  0.05809380  1.0
  O  O146  1  0.99720280  0.05854679  0.99719866  1.0
  O  O147  1  0.83248282  0.16477271  0.94685647  1.0
  O  O148  1  0.95005973  0.17284948  0.84740585  1.0
  O  O149  1  0.75541545  0.21823516  0.80631661  1.0
  O  O150  1  0.65320859  0.45591157  0.55543999  1.0
  O  O151  1  0.53181377  0.47087134  0.65180575  1.0
  O  O152  1  0.16501662  0.10167688  0.95912097  1.0
  O  O153  1  0.11972054  0.14908704  0.85742368  1.0
  O  O154  1  0.18643717  0.29353995  0.80096436  1.0
  O  O155  1  0.46130423  0.40335612  0.50935542  1.0
  O  O156  1  0.38557802  0.45898934  0.60813070  1.0
  O  O157  1  0.04043342  0.90288584  0.94189360  1.0
  O  O158  1  0.08238844  0.00228315  0.84386682  1.0
  O  O159  1  0.22345905  0.82456815  0.81257888  1.0
  O  O160  1  0.35916062  0.71032283  0.52975611  1.0
  O  O161  1  0.37508775  0.61807548  0.63803724  1.0
  O  O162  1  0.99376954  0.17719978  0.07285176  1.0
  O  O163  1  0.86538201  0.19752784  0.06775189  1.0
  O  O164  1  0.78509381  0.25591605  0.21189823  1.0
  O  O165  1  0.61220235  0.44936579  0.37170554  1.0
  O  O166  1  0.68535654  0.52315611  0.36724866  1.0
  O  O167  1  0.92370544  0.91851624  0.10934130  1.0
  O  O168  1  0.82257312  0.03570026  0.11732932  1.0
  O  O169  1  0.71903421  0.89634965  0.19794682  1.0
  O  O170  1  0.54292861  0.72490244  0.41268750  1.0
  O  O171  1  0.62481864  0.63151333  0.48239911  1.0
  O  O172  1  0.11889182  0.89587805  0.05619820  1.0
  O  O173  1  0.11125373  0.98494716  0.10954486  1.0
  O  O174  1  0.17869393  0.86011177  0.24039793  1.0
  O  O175  1  0.40762856  0.69000701  0.37302044  1.0
  O  O176  1  0.44604793  0.56704931  0.35635044  1.0
  O  O177  1  0.50275870  0.55694129  0.48842393  1.0
