# generated using pymatgen
data_ZnH6C18Br4N3O4F
_symmetry_space_group_name_H-M   'P 1'
_cell_length_a   13.14855181
_cell_length_b   16.24309007
_cell_length_c   17.21825538
_cell_angle_alpha   99.19879335
_cell_angle_beta   93.67172147
_cell_angle_gamma   97.11324413
_symmetry_Int_Tables_number   1
_chemical_formula_structural   ZnH6C18Br4N3O4F
_chemical_formula_sum   'Zn2 H12 C36 Br8 N6 O8 F2'
_cell_volume   3588.90777437
_cell_formula_units_Z   2
loop_
 _symmetry_equiv_pos_site_id
 _symmetry_equiv_pos_as_xyz
  1  'x, y, z'
loop_
 _atom_site_type_symbol
 _atom_site_label
 _atom_site_symmetry_multiplicity
 _atom_site_fract_x
 _atom_site_fract_y
 _atom_site_fract_z
 _atom_site_occupancy
  Zn  Zn0  1  0.50157666  0.41050776  0.49956493  1.0
  Zn  Zn1  1  0.51236995  0.59279414  0.50854064  1.0
  H  H2  1  0.38170137  0.70033719  0.45248969  1.0
  H  H3  1  0.36803092  0.85380447  0.44748891  1.0
  H  H4  1  0.35538609  0.09397599  0.38556961  1.0
  H  H5  1  0.60501048  0.12414580  0.56757890  1.0
  H  H6  1  0.42377078  0.59689204  0.26093948  1.0
  H  H7  1  0.41594794  0.58477388  0.11305225  1.0
  H  H8  1  0.53346539  0.66045502  0.92093418  1.0
  H  H9  1  0.42618595  0.39508158  0.87498554  1.0
  H  H10  1  0.82737249  0.38031162  0.50564663  1.0
  H  H11  1  0.82272548  0.63830687  0.47586280  1.0
  H  H12  1  0.18064055  0.60243631  0.48135094  1.0
  H  H13  1  0.18680571  0.34741857  0.51933263  1.0
  C  C14  1  0.49986687  0.50115127  0.35196411  1.0
  C  C15  1  0.30959939  0.48846290  0.50030381  1.0
  C  C16  1  0.50391816  0.52431900  0.65507109  1.0
  C  C17  1  0.70024538  0.49700474  0.49537592  1.0
  C  C18  1  0.44149886  0.75088193  0.48047924  1.0
  C  C19  1  0.43430914  0.83475863  0.47767918  1.0
  C  C20  1  0.51407490  0.89576870  0.51624368  1.0
  C  C21  1  0.59865447  0.87000655  0.55534761  1.0
  C  C22  1  0.59987432  0.78345048  0.55451296  1.0
  C  C23  1  0.41186755  0.13319222  0.42926814  1.0
  C  C24  1  0.47803793  0.09783598  0.47691630  1.0
  C  C25  1  0.55119217  0.15044694  0.53113151  1.0
  C  C26  1  0.55431921  0.23695271  0.53607191  1.0
  C  C27  1  0.42033746  0.22083349  0.43953243  1.0
  C  C28  1  0.50069000  0.48849418  0.26334054  1.0
  C  C29  1  0.45529132  0.54642588  0.22473103  1.0
  C  C30  1  0.45119240  0.54025881  0.14355558  1.0
  C  C31  1  0.49318831  0.47519864  0.09804805  1.0
  C  C32  1  0.53906294  0.41626539  0.13561063  1.0
  C  C33  1  0.54366053  0.42331667  0.21825859  1.0
  C  C34  1  0.51207589  0.60251464  0.87861448  1.0
  C  C35  1  0.48388171  0.52748028  0.90644168  1.0
  C  C36  1  0.45206171  0.45263080  0.85297001  1.0
  C  C37  1  0.45365432  0.45390869  0.77265803  1.0
  C  C38  1  0.48947535  0.52730164  0.74186615  1.0
  C  C39  1  0.51548494  0.60180361  0.79789450  1.0
  C  C40  1  0.86859624  0.44072221  0.49881683  1.0
  C  C41  1  0.86623258  0.58651640  0.48185705  1.0
  C  C42  1  0.97096888  0.59611464  0.48009439  1.0
  C  C43  1  0.03151947  0.53115614  0.48893476  1.0
  C  C44  1  0.13976791  0.54223968  0.48898804  1.0
  C  C45  1  0.14279371  0.39804262  0.51021443  1.0
  C  C46  1  0.03773639  0.38740683  0.50931085  1.0
  C  C47  1  0.97687869  0.45169868  0.49887191  1.0
  C  C48  1  0.81443910  0.50728180  0.49132779  1.0
  C  C49  1  0.19461345  0.47682778  0.49946224  1.0
  Br  Br50  1  0.71170079  0.74650981  0.60575297  1.0
  Br  Br51  1  0.70839485  0.95134524  0.60369925  1.0
  Br  Br52  1  0.32894496  0.26643170  0.37476797  1.0
  Br  Br53  1  0.65487854  0.30386764  0.61033096  1.0
  Br  Br54  1  0.61493807  0.34867085  0.26815788  1.0
  Br  Br55  1  0.59918918  0.33190256  0.07238881  1.0
  Br  Br56  1  0.56100190  0.70870985  0.77064919  1.0
  Br  Br57  1  0.39634321  0.35081345  0.70576004  1.0
  N  N58  1  0.52264885  0.72579021  0.51814490  1.0
  N  N59  1  0.51265050  0.98314738  0.52346641  1.0
  N  N60  1  0.47203612  0.00845787  0.46495037  1.0
  N  N61  1  0.48984520  0.27326805  0.49164004  1.0
  N  N62  1  0.48995946  0.46592069  0.01499857  1.0
  N  N63  1  0.48985661  0.53484057  0.98949915  1.0
  O  O64  1  0.48071099  0.43657337  0.38388329  1.0
  O  O65  1  0.51572977  0.57749038  0.38690572  1.0
  O  O66  1  0.35383922  0.55811123  0.48640259  1.0
  O  O67  1  0.35382724  0.42638516  0.51545735  1.0
  O  O68  1  0.48589945  0.58765986  0.62429484  1.0
  O  O69  1  0.53525807  0.45870969  0.62004429  1.0
  O  O70  1  0.65309843  0.42221935  0.48394126  1.0
  O  O71  1  0.65966075  0.56431473  0.51088154  1.0
  F  F72  1  0.98764311  0.31154589  0.51951268  1.0
  F  F73  1  0.02123542  0.67204596  0.47003820  1.0
