# generated using pymatgen
data_Zn8H37C70N8(O2F)13
_symmetry_space_group_name_H-M   'P 1'
_cell_length_a   18.29748517
_cell_length_b   18.33000917
_cell_length_c   18.32747205
_cell_angle_alpha   61.01746305
_cell_angle_beta   60.74844792
_cell_angle_gamma   60.86355224
_symmetry_Int_Tables_number   1
_chemical_formula_structural   Zn8H37C70N8(O2F)13
_chemical_formula_sum   'Zn8 H37 C70 N8 O26 F13'
_cell_volume   4432.35559977
_cell_formula_units_Z   1
loop_
 _symmetry_equiv_pos_site_id
 _symmetry_equiv_pos_as_xyz
  1  'x, y, z'
loop_
 _atom_site_type_symbol
 _atom_site_label
 _atom_site_symmetry_multiplicity
 _atom_site_fract_x
 _atom_site_fract_y
 _atom_site_fract_z
 _atom_site_occupancy
  Zn  Zn0  1  0.94852020  0.45548766  0.46143906  1.0
  Zn  Zn1  1  0.12798309  0.45251695  0.45774743  1.0
  Zn  Zn2  1  0.95892908  0.45885866  0.62911633  1.0
  Zn  Zn3  1  0.95814135  0.62932637  0.45231924  1.0
  Zn  Zn4  1  0.54117466  0.04201185  0.05043827  1.0
  Zn  Zn5  1  0.54184378  0.04537756  0.87096757  1.0
  Zn  Zn6  1  0.36980773  0.03643437  0.04480165  1.0
  Zn  Zn7  1  0.54499424  0.87321559  0.04300890  1.0
  H  H8  1  0.58965591  0.08401516  0.32382757  1.0
  H  H9  1  0.13717496  0.95835042  0.17587570  1.0
  H  H10  1  0.10463689  0.82030373  0.15869580  1.0
  H  H11  1  0.08832912  0.29739313  0.81407474  1.0
  H  H12  1  0.44785723  0.29440627  0.63711777  1.0
  H  H13  1  0.17764481  0.16570885  0.23225963  1.0
  H  H14  1  0.46323784  0.16682260  0.24520817  1.0
  H  H15  1  0.68895570  0.54349426  0.35894758  1.0
  H  H16  1  0.44834185  0.26322615  0.15215273  1.0
  H  H17  1  0.36205912  0.25959915  0.34647514  1.0
  H  H18  1  0.34749598  0.35582832  0.25312040  1.0
  H  H19  1  0.61822285  0.92801817  0.34519197  1.0
  H  H20  1  0.79268729  0.80911084  0.31138057  1.0
  H  H21  1  0.78428858  0.96635146  0.07140251  1.0
  H  H22  1  0.96332318  0.25939658  0.28320395  1.0
  H  H23  1  0.86019359  0.25965098  0.35391896  1.0
  H  H24  1  0.57720743  0.22522685  0.67872432  1.0
  H  H25  1  0.56836095  0.32305590  0.67016162  1.0
  H  H26  1  0.44509125  0.60538155  0.30955398  1.0
  H  H27  1  0.47175964  0.70075400  0.22989279  1.0
  H  H28  1  0.97712663  0.83964291  0.27780141  1.0
  H  H29  1  0.01032909  0.88252840  0.31172294  1.0
  H  H30  1  0.81282347  0.28288982  0.82832370  1.0
  H  H31  1  0.49520357  0.12031709  0.62750210  1.0
  H  H32  1  0.55566674  0.18611817  0.57027023  1.0
  H  H33  1  0.39643001  0.40686569  0.52438292  1.0
  H  H34  1  0.32114409  0.41293384  0.49275976  1.0
  H  H35  1  0.71805828  0.34923770  0.34740421  1.0
  H  H36  1  0.66606584  0.40237563  0.42157577  1.0
  H  H37  1  0.69983446  0.71602302  0.11363318  1.0
  H  H38  1  0.75297290  0.60961330  0.17633721  1.0
  H  H39  1  0.72109378  0.18428097  0.92173534  1.0
  H  H40  1  0.73091512  0.17680345  0.62790949  1.0
  H  H41  1  0.81347043  0.59301815  0.81024366  1.0
  H  H42  1  0.00242027  0.39579243  0.20566110  1.0
  H  H43  1  0.70353969  0.97990004  0.63131809  1.0
  H  H44  1  0.81342594  0.88646463  0.52866586  1.0
  C  C45  1  0.14264211  0.63113606  0.36226635  1.0
  C  C46  1  0.78667310  0.65439480  0.26364461  1.0
  C  C47  1  0.74064455  0.99055703  0.12751687  1.0
  C  C48  1  0.85811071  0.36426780  0.64908102  1.0
  C  C49  1  0.72516674  0.07639276  0.11712449  1.0
  C  C50  1  0.67033164  0.11016243  0.18724470  1.0
  C  C51  1  0.63134074  0.05716697  0.26931146  1.0
  C  C52  1  0.64771559  0.97017087  0.28051495  1.0
  C  C53  1  0.70162766  0.93612200  0.21009989  1.0
  C  C54  1  0.76498840  0.28497996  0.67150154  1.0
  C  C55  1  0.80268089  0.30567335  0.70633928  1.0
  C  C56  1  0.75784201  0.51065776  0.32530026  1.0
  C  C57  1  0.78509116  0.26811022  0.79822065  1.0
  C  C58  1  0.73326958  0.21270635  0.85082681  1.0
  C  C59  1  0.69676399  0.19153208  0.81450292  1.0
  C  C60  1  0.12688601  0.34850914  0.37681510  1.0
  C  C61  1  0.71396775  0.22938992  0.72321230  1.0
  C  C62  1  0.69531481  0.23752632  0.64574258  1.0
  C  C63  1  0.75179939  0.30277423  0.58829850  1.0
  C  C64  1  0.75954494  0.79111365  0.65699747  1.0
  C  C65  1  0.80248626  0.70041728  0.68903913  1.0
  C  C66  1  0.78325025  0.66352155  0.78080245  1.0
  C  C67  1  0.78332752  0.42333127  0.33138324  1.0
  C  C68  1  0.72614341  0.71544001  0.83601678  1.0
  C  C69  1  0.68340976  0.80718479  0.80512062  1.0
  C  C70  1  0.70247822  0.84142093  0.71334688  1.0
  C  C71  1  0.68531862  0.92711823  0.63874110  1.0
  C  C72  1  0.86466496  0.64331724  0.63168437  1.0
  C  C73  1  0.75229124  0.87001570  0.57422869  1.0
  C  C74  1  0.17672761  0.77138422  0.24948873  1.0
  C  C75  1  0.20171882  0.68631710  0.30917734  1.0
  C  C76  1  0.28637802  0.65729792  0.31246233  1.0
  C  C77  1  0.34635665  0.70634521  0.26114830  1.0
  C  C78  1  0.87304124  0.38015181  0.28833710  1.0
  C  C79  1  0.31813222  0.79266293  0.20176536  1.0
  C  C80  1  0.23265715  0.82143592  0.19958428  1.0
  C  C81  1  0.16612903  0.89914986  0.15663676  1.0
  C  C82  1  0.10452424  0.84003077  0.20668586  1.0
  C  C83  1  0.29161538  0.28304521  0.65893798  1.0
  C  C84  1  0.14225114  0.36455659  0.63499322  1.0
  C  C85  1  0.19914271  0.30853732  0.69199143  1.0
  C  C86  1  0.16011812  0.28012480  0.78413650  1.0
  C  C87  1  0.21221183  0.22924083  0.83863326  1.0
  C  C88  1  0.30588157  0.20408883  0.80678298  1.0
  C  C89  1  0.73778418  0.71276961  0.20320055  1.0
  C  C90  1  0.34287782  0.23510564  0.71433152  1.0
  C  C91  1  0.42953299  0.24452904  0.63831726  1.0
  C  C92  1  0.37108917  0.29202218  0.57480907  1.0
  C  C93  1  0.27554009  0.26875545  0.28815238  1.0
  C  C94  1  0.18366244  0.28713513  0.32421824  1.0
  C  C95  1  0.15244889  0.24571254  0.30240810  1.0
  C  C96  1  0.85981294  0.63548704  0.36159015  1.0
  C  C97  1  0.20665852  0.19474913  0.24677550  1.0
  C  C98  1  0.29858345  0.18036247  0.20899212  1.0
  C  C99  1  0.33139365  0.21752700  0.23233301  1.0
  C  C100  1  0.70488508  0.80644298  0.18601734  1.0
  C  C101  1  0.41409864  0.22829146  0.21998437  1.0
  C  C102  1  0.35093212  0.28631293  0.28327284  1.0
  C  C103  1  0.62497296  0.86446816  0.86245651  1.0
  C  C104  1  0.35646077  0.12828279  0.14717121  1.0
  C  C105  1  0.64278371  0.13160304  0.87043437  1.0
  C  C106  1  0.37321902  0.85053386  0.14555512  1.0
  C  C107  1  0.36137524  0.14683495  0.86534306  1.0
  C  C108  1  0.93299538  0.42718338  0.23885497  1.0
  C  C109  1  0.64696254  0.86558847  0.13105331  1.0
  C  C110  1  0.90443440  0.51411438  0.23445497  1.0
  C  C111  1  0.72540480  0.84055673  0.22634418  1.0
  C  C112  1  0.81762513  0.55857474  0.27724541  1.0
  C  C113  1  0.77509576  0.78289627  0.28238797  1.0
  C  C114  1  0.80538359  0.69093283  0.30137899  1.0
  N  N115  1  0.89735898  0.29293925  0.29551702  1.0
  N  N116  1  0.60636168  0.27324476  0.64330164  1.0
  N  N117  1  0.42592531  0.66990156  0.27376686  1.0
  N  N118  1  0.01374566  0.87819714  0.25660600  1.0
  N  N119  1  0.50736103  0.16864957  0.62827943  1.0
  N  N120  1  0.37745362  0.37370863  0.50914215  1.0
  N  N121  1  0.72568199  0.37284834  0.38255667  1.0
  N  N122  1  0.72341543  0.67556880  0.16491007  1.0
  O  O123  1  0.99825283  0.50012838  0.50016191  1.0
  O  O124  1  0.33456601  0.93032035  0.10676999  1.0
  O  O125  1  0.44406948  0.13673760  0.82712356  1.0
  O  O126  1  0.05967983  0.67357816  0.38535380  1.0
  O  O127  1  0.64464440  0.83523033  0.08167975  1.0
  O  O128  1  0.32299602  0.11189799  0.94679472  1.0
  O  O129  1  0.60011129  0.94370149  0.13511720  1.0
  O  O130  1  0.62077894  0.10892272  0.95407947  1.0
  O  O131  1  0.45607324  0.81734606  0.13862234  1.0
  O  O132  1  0.60902630  0.94729474  0.82159294  1.0
  O  O133  1  0.31922487  0.09695824  0.13078638  1.0
  O  O134  1  0.04372109  0.37906979  0.39127841  1.0
  O  O135  1  0.87791867  0.38460126  0.56635190  1.0
  O  O136  1  0.16918305  0.36674235  0.40099687  1.0
  O  O137  1  0.89448528  0.56113816  0.67158626  1.0
  O  O138  1  0.18171298  0.39195590  0.55181534  1.0
  O  O139  1  0.89359716  0.67565890  0.37161322  1.0
  O  O140  1  0.05884575  0.38151128  0.67413693  1.0
  O  O141  1  0.86805723  0.55384990  0.39878293  1.0
  O  O142  1  0.88202226  0.68223045  0.54861550  1.0
  O  O143  1  0.17924183  0.54802296  0.37847901  1.0
  O  O144  1  0.88079703  0.38843226  0.68751598  1.0
  O  O145  1  0.49955963  0.00151142  0.00027263  1.0
  O  O146  1  0.59698335  0.82652352  0.94528140  1.0
  O  O147  1  0.43854630  0.12011498  0.11567963  1.0
  O  O148  1  0.62358732  0.10840127  0.82824783  1.0
  F  F149  1  0.65633024  0.19488626  0.17432716  1.0
  F  F150  1  0.16771045  0.20558762  0.92653176  1.0
  F  F151  1  0.39072906  0.23319903  0.53291966  1.0
  F  F152  1  0.06478793  0.25410043  0.33751355  1.0
  F  F153  1  0.76517275  0.12885159  0.03800507  1.0
  F  F154  1  0.82661898  0.27867118  0.52072099  1.0
  F  F155  1  0.70385605  0.38908109  0.55219432  1.0
  F  F156  1  0.71438414  0.67264051  0.92330477  1.0
  F  F157  1  0.59900683  0.96431897  0.63608005  1.0
  F  F158  1  0.71401651  0.87084925  0.52401214  1.0
  F  F159  1  0.31769526  0.57621316  0.36932981  1.0
  F  F160  1  0.19357528  0.92664042  0.06404694  1.0
  F  F161  1  0.96548301  0.55771656  0.18598303  1.0
