# generated using pymatgen
data_AlH21C24(NO)6
_symmetry_space_group_name_H-M   'P 1'
_cell_length_a   3.91906126
_cell_length_b   28.67062209
_cell_length_c   28.67054141
_cell_angle_alpha   60.00029968
_cell_angle_beta   89.99685059
_cell_angle_gamma   89.99856687
_symmetry_Int_Tables_number   1
_chemical_formula_structural   AlH21C24(NO)6
_chemical_formula_sum   'Al2 H42 C48 N12 O12'
_cell_volume   2789.88951756
_cell_formula_units_Z   2
loop_
 _symmetry_equiv_pos_site_id
 _symmetry_equiv_pos_as_xyz
  1  'x, y, z'
loop_
 _atom_site_type_symbol
 _atom_site_label
 _atom_site_symmetry_multiplicity
 _atom_site_fract_x
 _atom_site_fract_y
 _atom_site_fract_z
 _atom_site_occupancy
  Al  Al0  1  0.00612662  0.99999533  0.50000408  1.0
  Al  Al1  1  0.00617049  0.66666315  0.16666807  1.0
  H  H2  1  0.20876545  0.41141475  0.34489810  1.0
  H  H3  1  0.76617479  0.42043008  0.21104861  1.0
  H  H4  1  0.76617511  0.24623482  0.45560794  1.0
  H  H5  1  0.20885832  0.25524062  0.32176221  1.0
  H  H6  1  0.51229193  0.33463194  0.27912557  1.0
  H  H7  1  0.51227566  0.33203324  0.38752719  1.0
  H  H8  1  0.20879907  0.84490295  0.24367485  1.0
  H  H9  1  0.76612395  0.71105912  0.36851348  1.0
  H  H10  1  0.76614372  0.95561851  0.29814285  1.0
  H  H11  1  0.20877054  0.82176958  0.42298162  1.0
  H  H12  1  0.51220901  0.77914253  0.38622701  1.0
  H  H13  1  0.51224828  0.88753982  0.28042260  1.0
  H  H14  1  0.20879768  0.74368094  0.91142577  1.0
  H  H15  1  0.76612969  0.86851669  0.92043435  1.0
  H  H16  1  0.76613001  0.79814731  0.74624444  1.0
  H  H17  1  0.20874355  0.92298522  0.75525023  1.0
  H  H18  1  0.51219661  0.88623447  0.83463650  1.0
  H  H19  1  0.51218637  0.78043063  0.83204436  1.0
  H  H20  1  0.89097001  0.56279549  0.14573684  1.0
  H  H21  1  0.99332596  0.50340820  0.14828751  1.0
  H  H22  1  0.11733427  0.55360010  0.28543326  1.0
  H  H23  1  0.00751516  0.49097678  0.33693495  1.0
  H  H24  1  0.11734773  0.11305602  0.38124411  1.0
  H  H25  1  0.00755048  0.17567647  0.32973841  1.0
  H  H26  1  0.89091159  0.10386624  0.52093047  1.0
  H  H27  1  0.99330620  0.16325682  0.51837354  1.0
  H  H28  1  0.89093339  0.64573815  0.29146650  1.0
  H  H29  1  0.99331114  0.64829331  0.34830045  1.0
  H  H30  1  0.11738385  0.78542576  0.16096707  1.0
  H  H31  1  0.00755669  0.83693160  0.17208091  1.0
  H  H32  1  0.11734153  0.88123641  0.50569996  1.0
  H  H33  1  0.00750837  0.82973359  0.49458006  1.0
  H  H34  1  0.89094566  0.02092561  0.37520119  1.0
  H  H35  1  0.99334144  0.01837613  0.31836258  1.0
  H  H36  1  0.89097077  0.79146251  0.06279828  1.0
  H  H37  1  0.99331315  0.84830036  0.00340929  1.0
  H  H38  1  0.11737323  0.66096127  0.05361146  1.0
  H  H39  1  0.00754373  0.67208407  0.99098790  1.0
  H  H40  1  0.11734194  0.00569567  0.61306690  1.0
  H  H41  1  0.00751591  0.99457876  0.67569025  1.0
  H  H42  1  0.89092614  0.87519440  0.60387702  1.0
  H  H43  1  0.99329604  0.81836304  0.66326408  1.0
  C  C44  1  0.50536110  0.95378092  0.58451486  1.0
  C  C45  1  0.50537875  0.08450360  0.46170939  1.0
  C  C46  1  0.50538644  0.96170508  0.45378783  1.0
  C  C47  1  0.50539727  0.58215675  0.20496118  1.0
  C  C48  1  0.50539468  0.70495849  0.21288253  1.0
  C  C49  1  0.50542002  0.71287741  0.08216056  1.0
  C  C50  1  0.50285344  0.52349843  0.23105209  1.0
  C  C51  1  0.33603841  0.49129653  0.28204449  1.0
  C  C52  1  0.34367819  0.43503858  0.30684345  1.0
  C  C53  1  0.49327501  0.40932765  0.28134500  1.0
  C  C54  1  0.64378262  0.44031125  0.23065383  1.0
  C  C55  1  0.66396834  0.49655390  0.20606855  1.0
  C  C56  1  0.49545188  0.35074788  0.30652464  1.0
  C  C57  1  0.49546734  0.31591649  0.36012551  1.0
  C  C58  1  0.64378928  0.22635521  0.43600043  1.0
  C  C59  1  0.49329368  0.25733912  0.38530955  1.0
  C  C60  1  0.34375509  0.23161846  0.35981954  1.0
  C  C61  1  0.33606211  0.17536172  0.38462458  1.0
  C  C62  1  0.50283718  0.14316272  0.43561845  1.0
  C  C63  1  0.66398823  0.17011135  0.46059279  1.0
  C  C64  1  0.50284183  0.73105288  0.24545154  1.0
  C  C65  1  0.33605806  0.78204353  0.22665530  1.0
  C  C66  1  0.34370952  0.80684954  0.25810707  1.0
  C  C67  1  0.49326297  0.78135746  0.30931533  1.0
  C  C68  1  0.64376655  0.73066066  0.32902908  1.0
  C  C69  1  0.66395595  0.70607537  0.29737301  1.0
  C  C70  1  0.49543056  0.80653843  0.34271285  1.0
  C  C71  1  0.49542940  0.86013987  0.32394101  1.0
  C  C72  1  0.64376395  0.93601328  0.33763072  1.0
  C  C73  1  0.49326432  0.88531883  0.35734129  1.0
  C  C74  1  0.34367215  0.85982467  0.40854963  1.0
  C  C75  1  0.33603934  0.88462261  0.44000794  1.0
  C  C76  1  0.50281561  0.93561592  0.42121622  1.0
  C  C77  1  0.66395921  0.96059456  0.36929038  1.0
  C  C78  1  0.50287711  0.74544496  0.02350234  1.0
  C  C79  1  0.33606889  0.72665424  0.99130420  1.0
  C  C80  1  0.34370151  0.75811222  0.93504722  1.0
  C  C81  1  0.49327350  0.80932299  0.90933322  1.0
  C  C82  1  0.64378371  0.82903147  0.94031618  1.0
  C  C83  1  0.66400217  0.79737172  0.99655814  1.0
  C  C84  1  0.49538722  0.84271898  0.85075570  1.0
  C  C85  1  0.49539843  0.82395457  0.81592176  1.0
  C  C86  1  0.64373882  0.83763369  0.72636191  1.0
  C  C87  1  0.49324327  0.85734532  0.75734548  1.0
  C  C88  1  0.34365688  0.90855319  0.73162779  1.0
  C  C89  1  0.33603074  0.94000835  0.67537332  1.0
  C  C90  1  0.50281096  0.92121337  0.64317205  1.0
  C  C91  1  0.66394330  0.86928580  0.67012257  1.0
  N  N92  1  0.82024268  0.52458456  0.15651585  1.0
  N  N93  1  0.18378274  0.51426798  0.30906510  1.0
  N  N94  1  0.18380864  0.15238698  0.35760886  1.0
  N  N95  1  0.82020965  0.14207956  0.51014976  1.0
  N  N96  1  0.82021612  0.65651890  0.31889860  1.0
  N  N97  1  0.18382815  0.80906096  0.17666216  1.0
  N  N98  1  0.18377344  0.85760325  0.49000090  1.0
  N  N99  1  0.82022344  0.01015006  0.34776772  1.0
  N  N100  1  0.82025997  0.81889224  0.02458855  1.0
  N  N101  1  0.18383178  0.67666146  0.01427690  1.0
  N  N102  1  0.18377746  0.99000115  0.65239777  1.0
  N  N103  1  0.82020001  0.84776383  0.64208701  1.0
  O  O104  1  0.73907600  0.99678591  0.44579611  1.0
  O  O105  1  0.73905075  0.94579083  0.55742065  1.0
  O  O106  1  0.73904499  0.05741180  0.49679285  1.0
  O  O107  1  0.27420502  0.94953371  0.49028782  1.0
  O  O108  1  0.27418263  0.06017161  0.44954324  1.0
  O  O109  1  0.27418736  0.99028008  0.56018227  1.0
  O  O110  1  0.73910506  0.72086479  0.10925191  1.0
  O  O111  1  0.73910061  0.60924503  0.16988294  1.0
  O  O112  1  0.73906705  0.66987655  0.22087443  1.0
  O  O113  1  0.27424835  0.67637330  0.10649145  1.0
  O  O114  1  0.27423835  0.71712612  0.17638232  1.0
  O  O115  1  0.27420970  0.60648460  0.21713674  1.0
