# generated using pymatgen
data_CuSiH20C24N4(O2F3)2
_symmetry_space_group_name_H-M   'P 1'
_cell_length_a   8.03312747
_cell_length_b   13.59436649
_cell_length_c   13.59435527
_cell_angle_alpha   89.73906183
_cell_angle_beta   86.17107649
_cell_angle_gamma   86.17101452
_symmetry_Int_Tables_number   1
_chemical_formula_structural   CuSiH20C24N4(O2F3)2
_chemical_formula_sum   'Cu1 Si1 H20 C24 N4 O4 F6'
_cell_volume   1477.95515684
_cell_formula_units_Z   1
loop_
 _symmetry_equiv_pos_site_id
 _symmetry_equiv_pos_as_xyz
  1  'x, y, z'
loop_
 _atom_site_type_symbol
 _atom_site_label
 _atom_site_symmetry_multiplicity
 _atom_site_fract_x
 _atom_site_fract_y
 _atom_site_fract_z
 _atom_site_occupancy
  Cu  Cu0  1  0.49999104  0.49999976  0.49999933  1.0
  Si  Si1  1  0.99999461  0.49999904  0.50000294  1.0
  H  H2  1  0.26131567  0.49986706  0.34103341  1.0
  H  H3  1  0.27098127  0.49979411  0.16068842  1.0
  H  H4  1  0.81295229  0.50016700  0.16489850  1.0
  H  H5  1  0.77910462  0.50011399  0.34158738  1.0
  H  H6  1  0.18703149  0.49981779  0.83510237  1.0
  H  H7  1  0.72899990  0.50020247  0.83931028  1.0
  H  H8  1  0.73867271  0.50014280  0.65896422  1.0
  H  H9  1  0.22087530  0.49988259  0.65841358  1.0
  H  H10  1  0.26131510  0.34103419  0.49986285  1.0
  H  H11  1  0.27098055  0.16068902  0.49979223  1.0
  H  H12  1  0.81294911  0.16489945  0.50016860  1.0
  H  H13  1  0.77910015  0.34158782  0.50011325  1.0
  H  H14  1  0.18703388  0.83510303  0.49981751  1.0
  H  H15  1  0.72900029  0.83931051  0.50020206  1.0
  H  H16  1  0.73867703  0.65896461  0.50014277  1.0
  H  H17  1  0.22088060  0.65841244  0.49988031  1.0
  H  H18  1  0.79914526  0.49997794  0.04495499  1.0
  H  H19  1  0.20084132  0.50001496  0.95504425  1.0
  H  H20  1  0.79914756  0.04495629  0.49998041  1.0
  H  H21  1  0.20083693  0.95504397  0.50001594  1.0
  C  C22  1  0.38101029  0.49994335  0.29837186  1.0
  C  C23  1  0.38756409  0.49992135  0.19614417  1.0
  C  C24  1  0.54235664  0.50001790  0.14047243  1.0
  C  C25  1  0.68424500  0.50010238  0.19670331  1.0
  C  C26  1  0.66898140  0.50009471  0.29896857  1.0
  C  C27  1  0.56274003  0.50002564  0.03240940  1.0
  C  C28  1  0.43724772  0.49996799  0.96758759  1.0
  C  C29  1  0.31573844  0.49988535  0.80329609  1.0
  C  C30  1  0.45763029  0.49997205  0.85952534  1.0
  C  C31  1  0.61241875  0.50007154  0.80385154  1.0
  C  C32  1  0.61897437  0.50005545  0.70162891  1.0
  C  C33  1  0.33100359  0.49990113  0.70103146  1.0
  C  C34  1  0.38100976  0.29836965  0.49994047  1.0
  C  C35  1  0.38756316  0.19614449  0.49991996  1.0
  C  C36  1  0.54235556  0.14047247  0.50001768  1.0
  C  C37  1  0.68424446  0.19670374  0.50010073  1.0
  C  C38  1  0.66897698  0.29896927  0.50009320  1.0
  C  C39  1  0.56273995  0.03240978  0.50002553  1.0
  C  C40  1  0.43724879  0.96758607  0.49996921  1.0
  C  C41  1  0.31574013  0.80329579  0.49988385  1.0
  C  C42  1  0.45763053  0.85952485  0.49997200  1.0
  C  C43  1  0.61242059  0.80385135  0.50007203  1.0
  C  C44  1  0.61897757  0.70162767  0.50005578  1.0
  C  C45  1  0.33100618  0.70103173  0.49989952  1.0
  N  N46  1  0.51905797  0.50002462  0.34961800  1.0
  N  N47  1  0.48092627  0.49997786  0.65037982  1.0
  N  N48  1  0.51905511  0.34961812  0.50002178  1.0
  N  N49  1  0.48092955  0.65038067  0.49997678  1.0
  O  O50  1  0.72427648  0.50007831  0.99157890  1.0
  O  O51  1  0.27571363  0.49990574  0.00841878  1.0
  O  O52  1  0.72427942  0.99157981  0.50007688  1.0
  O  O53  1  0.27571049  0.00841677  0.49991192  1.0
  F  F54  1  0.21582105  0.49943922  0.49944313  1.0
  F  F55  1  0.78416877  0.50055811  0.50056038  1.0
  F  F56  1  0.00000506  0.58927473  0.41072501  1.0
  F  F57  1  0.99998849  0.41072259  0.58927762  1.0
  F  F58  1  0.01863887  0.41073118  0.41073615  1.0
  F  F59  1  0.98135468  0.58926614  0.58927310  1.0
