# generated using pymatgen
data_Zn4C40Cl4O13F16
_symmetry_space_group_name_H-M   'P 1'
_cell_length_a   23.95593798
_cell_length_b   23.95636970
_cell_length_c   23.95460446
_cell_angle_alpha   66.58719381
_cell_angle_beta   72.46089727
_cell_angle_gamma   107.53688454
_symmetry_Int_Tables_number   1
_chemical_formula_structural   Zn4C40Cl4O13F16
_chemical_formula_sum   'Zn8 C80 Cl8 O26 F32'
_cell_volume   10544.76025853
_cell_formula_units_Z   2
loop_
 _symmetry_equiv_pos_site_id
 _symmetry_equiv_pos_as_xyz
  1  'x, y, z'
loop_
 _atom_site_type_symbol
 _atom_site_label
 _atom_site_symmetry_multiplicity
 _atom_site_fract_x
 _atom_site_fract_y
 _atom_site_fract_z
 _atom_site_occupancy
  Zn  Zn0  1  0.05705450  0.09959255  0.45745286  1.0
  Zn  Zn1  1  0.05705260  0.95745778  0.48548369  1.0
  Zn  Zn2  1  0.94294127  0.95744966  0.59960465  1.0
  Zn  Zn3  1  0.94295600  0.98549831  0.45744613  1.0
  Zn  Zn4  1  0.94294589  0.40040819  0.04254716  1.0
  Zn  Zn5  1  0.05706150  0.54255055  0.90039445  1.0
  Zn  Zn6  1  0.94294523  0.54253995  0.01451363  1.0
  Zn  Zn7  1  0.05704280  0.51450599  0.04255384  1.0
  C  C8  1  0.18099730  0.09048774  0.40950717  1.0
  C  C9  1  0.99999499  0.86304339  0.63695907  1.0
  C  C10  1  0.99998362  0.09048688  0.59050699  1.0
  C  C11  1  0.81900309  0.90951588  0.59048106  1.0
  C  C12  1  0.00000657  0.13696178  0.36303987  1.0
  C  C13  1  0.99998848  0.90949458  0.40950574  1.0
  C  C14  1  0.00000333  0.40951699  0.90948876  1.0
  C  C15  1  0.00000867  0.63695746  0.86303734  1.0
  C  C16  1  0.81900112  0.40950841  0.09050772  1.0
  C  C17  1  0.99999385  0.59050897  0.09049158  1.0
  C  C18  1  0.99999442  0.36304253  0.13695944  1.0
  C  C19  1  0.18099700  0.59050347  0.90952091  1.0
  C  C20  1  0.00000221  0.19486293  0.30513812  1.0
  C  C21  1  0.00000005  0.30514019  0.19486035  1.0
  C  C22  1  0.95719010  0.18022120  0.27697174  1.0
  C  C23  1  0.04281188  0.31978052  0.22302704  1.0
  C  C24  1  0.95718923  0.23416090  0.22303088  1.0
  C  C25  1  0.04281259  0.26584237  0.27696775  1.0
  C  C26  1  0.99999926  0.80514017  0.69486167  1.0
  C  C27  1  0.00000420  0.69486120  0.80513459  1.0
  C  C28  1  0.95719062  0.77696761  0.76584865  1.0
  C  C29  1  0.04281216  0.72303323  0.73414887  1.0
  C  C30  1  0.95719304  0.72302842  0.81978424  1.0
  C  C31  1  0.04281062  0.77697242  0.68021175  1.0
  C  C32  1  0.99999878  0.37203032  0.87200905  1.0
  C  C33  1  0.95747693  0.29991326  0.90689487  1.0
  C  C34  1  0.95758938  0.26530822  0.87202587  1.0
  C  C35  1  0.99999961  0.30026845  0.80025145  1.0
  C  C36  1  0.04240225  0.37203794  0.76528674  1.0
  C  C37  1  0.04251898  0.40691075  0.79988773  1.0
  C  C38  1  0.99999639  0.26520768  0.76519184  1.0
  C  C39  1  0.99999255  0.23480725  0.73479150  1.0
  C  C40  1  0.99998585  0.19974181  0.69973688  1.0
  C  C41  1  0.95758590  0.12796852  0.73470929  1.0
  C  C42  1  0.95746539  0.09309416  0.70010921  1.0
  C  C43  1  0.99997484  0.12797424  0.62798303  1.0
  C  C44  1  0.04247786  0.20009585  0.59308805  1.0
  C  C45  1  0.04236807  0.23470192  0.62795668  1.0
  C  C46  1  0.00000638  0.62800341  0.12796121  1.0
  C  C47  1  0.04253028  0.63564913  0.15755398  1.0
  C  C48  1  0.04241476  0.67040533  0.19226964  1.0
  C  C49  1  0.00000116  0.69975959  0.19972405  1.0
  C  C50  1  0.95759844  0.69231547  0.17035385  1.0
  C  C51  1  0.95748644  0.65760213  0.13559554  1.0
  C  C52  1  0.99999819  0.73481376  0.23478991  1.0
  C  C53  1  0.99999229  0.76519603  0.26520122  1.0
  C  C54  1  0.99998768  0.80024745  0.30026983  1.0
  C  C55  1  0.04237274  0.80767236  0.32966049  1.0
  C  C56  1  0.04248083  0.84238104  0.36442183  1.0
  C  C57  1  0.99997606  0.87199738  0.37204167  1.0
  C  C58  1  0.95746551  0.86436725  0.34243118  1.0
  C  C59  1  0.95758500  0.82961676  0.30771080  1.0
  C  C60  1  0.74403793  0.37202740  0.12798345  1.0
  C  C61  1  0.70680200  0.29991025  0.15759289  1.0
  C  C62  1  0.63732992  0.26530575  0.19231078  1.0
  C  C63  1  0.60051913  0.30026613  0.19974347  1.0
  C  C64  1  0.63732698  0.37203794  0.17036509  1.0
  C  C65  1  0.70679978  0.40690919  0.13560970  1.0
  C  C66  1  0.53040013  0.26520122  0.23480785  1.0
  C  C67  1  0.46959863  0.23478714  0.26522338  1.0
  C  C68  1  0.39947869  0.19972587  0.30028576  1.0
  C  C69  1  0.36267009  0.12795718  0.32965521  1.0
  C  C70  1  0.29319782  0.09308801  0.36441045  1.0
  C  C71  1  0.25596340  0.12797030  0.37204206  1.0
  C  C72  1  0.29320236  0.20008639  0.34245132  1.0
  C  C73  1  0.36267407  0.23468726  0.30773749  1.0
  C  C74  1  0.25595826  0.62799072  0.87203703  1.0
  C  C75  1  0.29320010  0.65761248  0.79990892  1.0
  C  C76  1  0.36267205  0.69232790  0.76530698  1.0
  C  C77  1  0.39948184  0.69975097  0.80027138  1.0
  C  C78  1  0.36266883  0.67036779  0.87205065  1.0
  C  C79  1  0.29319381  0.63561523  0.90692288  1.0
  C  C80  1  0.46960051  0.73481328  0.76520395  1.0
  C  C81  1  0.53040067  0.76522165  0.73478316  1.0
  C  C82  1  0.60052005  0.80027982  0.69972009  1.0
  C  C83  1  0.63733796  0.82965468  0.62794180  1.0
  C  C84  1  0.70681112  0.86440984  0.59307202  1.0
  C  C85  1  0.74403785  0.87203798  0.62796451  1.0
  C  C86  1  0.70679386  0.84243802  0.70008840  1.0
  C  C87  1  0.63732522  0.80772313  0.73468662  1.0
  Cl  Cl88  1  0.90262473  0.09714149  0.30549342  1.0
  Cl  Cl89  1  0.09737924  0.40286075  0.19450205  1.0
  Cl  Cl90  1  0.90262566  0.20811795  0.19451342  1.0
  Cl  Cl91  1  0.09737747  0.29188532  0.30548357  1.0
  Cl  Cl92  1  0.90262867  0.80548342  0.79190203  1.0
  Cl  Cl93  1  0.09737236  0.69451742  0.70809602  1.0
  Cl  Cl94  1  0.90263047  0.69450437  0.90287764  1.0
  Cl  Cl95  1  0.09737076  0.80549596  0.59712096  1.0
  O  O96  1  0.99999993  0.99999830  0.49999976  1.0
  O  O97  1  0.15238032  0.12658219  0.41422760  1.0
  O  O98  1  0.03970144  0.88548873  0.57481403  1.0
  O  O99  1  0.95915982  0.02577695  0.62660530  1.0
  O  O100  1  0.15238175  0.02578180  0.43338151  1.0
  O  O101  1  0.04082040  0.12657700  0.52579581  1.0
  O  O102  1  0.96028654  0.88547294  0.65423053  1.0
  O  O103  1  0.84761634  0.91423349  0.62658229  1.0
  O  O104  1  0.96031071  0.07482283  0.38547242  1.0
  O  O105  1  0.84762532  0.93340669  0.52576534  1.0
  O  O106  1  0.03970478  0.15422377  0.38548078  1.0
  O  O107  1  0.04082035  0.91423366  0.43338246  1.0
  O  O108  1  0.95917390  0.93339213  0.41422550  1.0
  O  O109  1  0.00000066  0.50000197  0.99999952  1.0
  O  O110  1  0.95917970  0.37342218  0.97420493  1.0
  O  O111  1  0.03971807  0.61452997  0.84576770  1.0
  O  O112  1  0.84761736  0.47421489  0.06662794  1.0
  O  O113  1  0.04083015  0.47422588  0.87339162  1.0
  O  O114  1  0.84761887  0.37341658  0.08577308  1.0
  O  O115  1  0.96029975  0.61451057  0.92518123  1.0
  O  O116  1  0.95916741  0.58577389  0.06660862  1.0
  O  O117  1  0.03969004  0.42518096  0.11452800  1.0
  O  O118  1  0.04080767  0.56660867  0.08577597  1.0
  O  O119  1  0.96029724  0.34577899  0.11451758  1.0
  O  O120  1  0.15238303  0.58576355  0.87342540  1.0
  O  O121  1  0.15237534  0.56661578  0.97423522  1.0
  F  F122  1  0.91482425  0.26089484  0.97540765  1.0
  F  F123  1  0.08517764  0.47541434  0.76085629  1.0
  F  F124  1  0.08395578  0.40795559  0.69653277  1.0
  F  F125  1  0.91603004  0.19655891  0.90795828  1.0
  F  F126  1  0.91604254  0.09204825  0.80346582  1.0
  F  F127  1  0.08390877  0.30345542  0.59201780  1.0
  F  F128  1  0.08511631  0.23911948  0.52457292  1.0
  F  F129  1  0.91481574  0.02458641  0.73914377  1.0
  F  F130  1  0.08519615  0.60981022  0.15390447  1.0
  F  F131  1  0.91482971  0.65396677  0.10974773  1.0
  F  F132  1  0.91603875  0.71950454  0.17599379  1.0
  F  F133  1  0.08397569  0.67604845  0.21945410  1.0
  F  F134  1  0.08391677  0.78046461  0.32404186  1.0
  F  F135  1  0.91604020  0.82399335  0.28050448  1.0
  F  F136  1  0.91481395  0.89022380  0.34605936  1.0
  F  F137  1  0.08512078  0.84599719  0.39029275  1.0
  F  F138  1  0.73628944  0.26088919  0.15397395  1.0
  F  F139  1  0.73628254  0.47541713  0.10974392  1.0
  F  F140  1  0.60449685  0.40796035  0.17598557  1.0
  F  F141  1  0.60450216  0.19655420  0.21952210  1.0
  F  F142  1  0.39550271  0.09204204  0.32401732  1.0
  F  F143  1  0.39549973  0.30343047  0.28055765  1.0
  F  F144  1  0.26371039  0.23909860  0.34610395  1.0
  F  F145  1  0.26371650  0.02458319  0.39025868  1.0
  F  F146  1  0.26371771  0.65400339  0.76087835  1.0
  F  F147  1  0.26370684  0.60974679  0.97543671  1.0
  F  F148  1  0.39549133  0.67598042  0.90798333  1.0
  F  F149  1  0.39550406  0.71954750  0.69654604  1.0
  F  F150  1  0.60451305  0.82402648  0.59201435  1.0
  F  F151  1  0.60449274  0.78052895  0.80343971  1.0
  F  F152  1  0.73627763  0.84607462  0.73911057  1.0
  F  F153  1  0.73629672  0.89026116  0.52456330  1.0
