# generated using pymatgen
data_AlH12(C2O)12
_symmetry_space_group_name_H-M   'P 1'
_cell_length_a   4.02382938
_cell_length_b   28.94135024
_cell_length_c   28.93932444
_cell_angle_alpha   120.00016442
_cell_angle_beta   90.00026615
_cell_angle_gamma   89.99837933
_symmetry_Int_Tables_number   1
_chemical_formula_structural   AlH12(C2O)12
_chemical_formula_sum   'Al2 H24 C48 O24'
_cell_volume   2918.61390347
_cell_formula_units_Z   2
loop_
 _symmetry_equiv_pos_site_id
 _symmetry_equiv_pos_as_xyz
  1  'x, y, z'
loop_
 _atom_site_type_symbol
 _atom_site_label
 _atom_site_symmetry_multiplicity
 _atom_site_fract_x
 _atom_site_fract_y
 _atom_site_fract_z
 _atom_site_occupancy
  Al  Al0  1  0.99992444  0.49999822  0.99999539  1.0
  Al  Al1  1  0.00001538  0.83334918  0.66668100  1.0
  H  H2  1  0.20257679  0.69784747  0.52014883  1.0
  H  H3  1  0.79725696  0.82229842  0.52010765  1.0
  H  H4  1  0.79708679  0.51102348  0.14655060  1.0
  H  H5  1  0.20258880  0.63552193  0.14654768  1.0
  H  H6  1  0.20263423  0.82231070  0.80221838  1.0
  H  H7  1  0.79730900  0.69784355  0.67771068  1.0
  H  H8  1  0.79699996  0.63552904  0.98897431  1.0
  H  H9  1  0.20266557  0.51101124  0.86445578  1.0
  H  H10  1  0.20248512  0.97989656  0.67771272  1.0
  H  H11  1  0.79733108  0.97991301  0.80220242  1.0
  H  H12  1  0.79706238  0.35344197  0.86445703  1.0
  H  H13  1  0.20260592  0.35345783  0.98898419  1.0
  H  H14  1  0.78498918  0.75446055  0.37791269  1.0
  H  H15  1  0.21438124  0.62345946  0.37795398  1.0
  H  H16  1  0.21465217  0.70989480  0.28873931  1.0
  H  H17  1  0.78488783  0.57884169  0.28874001  1.0
  H  H18  1  0.78514752  0.62344172  0.74549441  1.0
  H  H19  1  0.21464323  0.75445667  0.87654615  1.0
  H  H20  1  0.21481778  0.57880457  0.79006921  1.0
  H  H21  1  0.78484396  0.70987911  0.92113980  1.0
  H  H22  1  0.78508645  0.12208524  0.87657248  1.0
  H  H23  1  0.21442878  0.12207557  0.74554573  1.0
  H  H24  1  0.21469655  0.21127930  0.92116912  1.0
  H  H25  1  0.78482284  0.21126812  0.79009499  1.0
  C  C26  1  0.49993283  0.41808259  0.95903821  1.0
  C  C27  1  0.49989075  0.54096068  0.08191262  1.0
  C  C28  1  0.49990106  0.54094947  0.95902877  1.0
  C  C29  1  0.49996954  0.79238979  0.58476576  1.0
  C  C30  1  0.50003130  0.79240765  0.70765600  1.0
  C  C31  1  0.50001445  0.91526841  0.70763777  1.0
  C  C32  1  0.49990429  0.76262627  0.52524093  1.0
  C  C33  1  0.33400442  0.71362502  0.49819071  1.0
  C  C34  1  0.33884983  0.68548230  0.44275971  1.0
  C  C35  1  0.49971391  0.70706920  0.41414391  1.0
  C  C36  1  0.66066816  0.75726205  0.44273151  1.0
  C  C37  1  0.66569154  0.78456162  0.49816451  1.0
  C  C38  1  0.49974796  0.67894844  0.35791370  1.0
  C  C39  1  0.49975944  0.65436674  0.30875630  1.0
  C  C40  1  0.49974627  0.62625709  0.25252688  1.0
  C  C41  1  0.66059493  0.57606403  0.22394018  1.0
  C  C42  1  0.66561422  0.54876876  0.16850477  1.0
  C  C43  1  0.49980938  0.57071351  0.14143266  1.0
  C  C44  1  0.33400036  0.61972728  0.16849756  1.0
  C  C45  1  0.33889442  0.64786191  0.22393454  1.0
  C  C46  1  0.49992286  0.76262685  0.73739943  1.0
  C  C47  1  0.33416421  0.78456295  0.78641567  1.0
  C  C48  1  0.33896128  0.75725418  0.81453466  1.0
  C  C49  1  0.49992934  0.70706784  0.79292468  1.0
  C  C50  1  0.66078729  0.68547798  0.74271806  1.0
  C  C51  1  0.66587129  0.71362551  0.71544256  1.0
  C  C52  1  0.49990273  0.67893226  0.82101816  1.0
  C  C53  1  0.49984837  0.65434329  0.84558948  1.0
  C  C54  1  0.49982921  0.62624003  0.87370889  1.0
  C  C55  1  0.66058778  0.64785114  0.92391719  1.0
  C  C56  1  0.66558622  0.61972414  0.95121583  1.0
  C  C57  1  0.49984548  0.57070977  0.92927337  1.0
  C  C58  1  0.33407184  0.54875703  0.88024975  1.0
  C  C59  1  0.33899934  0.57604200  0.85210600  1.0
  C  C60  1  0.49993465  0.97479166  0.73740400  1.0
  C  C61  1  0.33405232  0.00185271  0.71546428  1.0
  C  C62  1  0.33887865  0.05727628  0.74275713  1.0
  C  C63  1  0.49982045  0.08587340  0.79294294  1.0
  C  C64  1  0.66078220  0.05727277  0.81454034  1.0
  C  C65  1  0.66581960  0.00185400  0.78640917  1.0
  C  C66  1  0.49985526  0.14210064  0.82106571  1.0
  C  C67  1  0.49986832  0.19125733  0.84563143  1.0
  C  C68  1  0.49980869  0.24748234  0.87374144  1.0
  C  C69  1  0.66059766  0.27607349  0.85213056  1.0
  C  C70  1  0.66564270  0.33149791  0.88026132  1.0
  C  C71  1  0.49985855  0.35856327  0.92927916  1.0
  C  C72  1  0.33407420  0.33150519  0.95122998  1.0
  C  C73  1  0.33896498  0.27607910  0.92393833  1.0
  O  O74  1  0.73493301  0.55079527  0.99231474  1.0
  O  O75  1  0.73492793  0.44152026  0.94918706  1.0
  O  O76  1  0.73489359  0.50767103  0.05847872  1.0
  O  O77  1  0.26496125  0.50765185  0.94917251  1.0
  O  O78  1  0.26491671  0.55080983  0.05846746  1.0
  O  O79  1  0.26495348  0.44152927  0.99233591  1.0
  O  O80  1  0.73504176  0.89183564  0.71749445  1.0
  O  O81  1  0.73509349  0.82567429  0.60818923  1.0
  O  O82  1  0.73507892  0.78255723  0.67436757  1.0
  O  O83  1  0.26500369  0.89182139  0.67434092  1.0
  O  O84  1  0.26503071  0.82570089  0.71751470  1.0
  O  O85  1  0.26502306  0.78253917  0.60821296  1.0
  O  O86  1  0.81424814  0.77908435  0.41618220  1.0
  O  O87  1  0.18516214  0.63711190  0.41622698  1.0
  O  O88  1  0.18534244  0.69623731  0.25047116  1.0
  O  O89  1  0.81412787  0.55422843  0.25047522  1.0
  O  O90  1  0.81445119  0.63709825  0.72087902  1.0
  O  O91  1  0.18542963  0.77907577  0.86290421  1.0
  O  O92  1  0.18551995  0.55419673  0.80372238  1.0
  O  O93  1  0.81408899  0.69623013  0.94575395  1.0
  O  O94  1  0.81444503  0.08382161  0.86292586  1.0
  O  O95  1  0.18522853  0.08381222  0.72092792  1.0
  O  O96  1  0.18541768  0.24954574  0.94578458  1.0
  O  O97  1  0.81413224  0.24953182  0.80374475  1.0
