# generated using pymatgen
data_ZnH11C27N2(ClO2)3
_symmetry_space_group_name_H-M   'P 1'
_cell_length_a   9.74175972
_cell_length_b   11.05479087
_cell_length_c   28.07778060
_cell_angle_alpha   89.85091753
_cell_angle_beta   89.30744143
_cell_angle_gamma   89.44214674
_symmetry_Int_Tables_number   1
_chemical_formula_structural   ZnH11C27N2(ClO2)3
_chemical_formula_sum   'Zn2 H22 C54 N4 Cl6 O12'
_cell_volume   3023.41015773
_cell_formula_units_Z   2
loop_
 _symmetry_equiv_pos_site_id
 _symmetry_equiv_pos_as_xyz
  1  'x, y, z'
loop_
 _atom_site_type_symbol
 _atom_site_label
 _atom_site_symmetry_multiplicity
 _atom_site_fract_x
 _atom_site_fract_y
 _atom_site_fract_z
 _atom_site_occupancy
  Zn  Zn0  1  0.63558644  0.50134348  0.50049812  1.0
  Zn  Zn1  1  0.35065526  0.50589923  0.49982703  1.0
  H  H2  1  0.29097077  0.45697013  0.65427036  1.0
  H  H3  1  0.28811843  0.51440351  0.34552692  1.0
  H  H4  1  0.29902039  0.51694048  0.25614791  1.0
  H  H5  1  0.56842129  0.81584492  0.96895829  1.0
  H  H6  1  0.30581117  0.12192364  0.45944468  1.0
  H  H7  1  0.30641996  0.89738083  0.45549072  1.0
  H  H8  1  0.29288051  0.45919642  0.74327177  1.0
  H  H9  1  0.12263914  0.59224464  0.43409194  1.0
  H  H10  1  0.86346995  0.58923207  0.43400811  1.0
  H  H11  1  0.86062367  0.45161971  0.61054318  1.0
  H  H12  1  0.86260334  0.30704447  0.58312135  1.0
  H  H13  1  0.45757199  0.22172134  0.87692956  1.0
  H  H14  1  0.72564524  0.47223837  0.35039259  1.0
  H  H15  1  0.73791226  0.47564002  0.26102611  1.0
  H  H16  1  0.70579175  0.58279471  0.65013040  1.0
  H  H17  1  0.70921636  0.58564154  0.73918885  1.0
  H  H18  1  0.50609373  0.81109200  0.03632418  1.0
  H  H19  1  0.49366765  0.80179696  0.12458325  1.0
  H  H20  1  0.80635382  0.11213468  0.53765519  1.0
  H  H21  1  0.11992373  0.45333411  0.61042541  1.0
  H  H22  1  0.12499076  0.30848392  0.58229674  1.0
  H  H23  1  0.48544715  0.20935879  0.96414223  1.0
  C  C24  1  0.48714048  0.26865514  0.50339615  1.0
  C  C25  1  0.38284014  0.48680399  0.72273901  1.0
  C  C26  1  0.50135164  0.52217079  0.74612190  1.0
  C  C27  1  0.52316595  0.51869459  0.89833700  1.0
  C  C28  1  0.49884431  0.41049089  0.87294000  1.0
  C  C29  1  0.48194944  0.30221564  0.89737281  1.0
  C  C30  1  0.53347730  0.63096981  0.87332701  1.0
  C  C31  1  0.49812868  0.51916931  0.64676749  1.0
  C  C32  1  0.50631352  0.49387987  0.35311619  1.0
  C  C33  1  0.55822929  0.39432811  0.02443557  1.0
  C  C34  1  0.53339304  0.61843528  0.02709203  1.0
  C  C35  1  0.49761051  0.51549631  0.59338932  1.0
  C  C36  1  0.54284645  0.50436777  0.05099588  1.0
  C  C37  1  0.59908107  0.29032404  0.04981116  1.0
  C  C38  1  0.59713492  0.28688630  0.10061548  1.0
  C  C39  1  0.55955439  0.38977175  0.12680144  1.0
  C  C40  1  0.54061885  0.50103870  0.10191045  1.0
  C  C41  1  0.52085366  0.61029716  0.12755727  1.0
  C  C42  1  0.51577691  0.61225082  0.18014817  1.0
  C  C43  1  0.54019468  0.38632305  0.17947378  1.0
  C  C44  1  0.63975804  0.48414258  0.27983366  1.0
  C  C45  1  0.63303299  0.48246019  0.32937243  1.0
  C  C46  1  0.48969294  0.73827571  0.49438405  1.0
  C  C47  1  0.38600728  0.50611139  0.32662864  1.0
  C  C48  1  0.39200378  0.50734405  0.27706988  1.0
  C  C49  1  0.51906945  0.49668075  0.25403071  1.0
  C  C50  1  0.53238817  0.39840963  0.97303486  1.0
  C  C51  1  0.53456229  0.51263801  0.94907733  1.0
  C  C52  1  0.54363940  0.62245735  0.97517345  1.0
  C  C53  1  0.49896447  0.29592336  0.94654305  1.0
  C  C54  1  0.55340191  0.73594984  0.90025599  1.0
  C  C55  1  0.51545064  0.72375036  0.05404272  1.0
  C  C56  1  0.50812006  0.71980216  0.10355756  1.0
  C  C57  1  0.49996537  0.49412582  0.40653349  1.0
  C  C58  1  0.55621367  0.73068823  0.95021755  1.0
  C  C59  1  0.59027814  0.06309266  0.52203738  1.0
  C  C60  1  0.48850595  0.13388642  0.50110286  1.0
  C  C61  1  0.38731166  0.07008599  0.47655350  1.0
  C  C62  1  0.38849161  0.94367555  0.47394508  1.0
  C  C63  1  0.49240800  0.87316213  0.49486985  1.0
  C  C64  1  0.59321789  0.93765364  0.51839974  1.0
  C  C65  1  0.71944767  0.92426285  0.54893006  1.0
  C  C66  1  0.71507066  0.06943729  0.55311268  1.0
  C  C67  1  0.06419954  0.45915487  0.53492629  1.0
  C  C68  1  0.48919566  0.40880947  0.82050019  1.0
  C  C69  1  0.06448899  0.55310780  0.46359316  1.0
  C  C70  1  0.92140519  0.55127006  0.46350475  1.0
  C  C71  1  0.92105470  0.45770069  0.53494008  1.0
  C  C72  1  0.91079738  0.39634214  0.58289001  1.0
  C  C73  1  0.07389615  0.39738534  0.58280855  1.0
  C  C74  1  0.52163784  0.63371192  0.82064779  1.0
  C  C75  1  0.61803286  0.55685284  0.72037365  1.0
  C  C76  1  0.61611945  0.55521158  0.67083309  1.0
  C  C77  1  0.38184361  0.48556192  0.67318505  1.0
  N  N78  1  0.50479033  0.52102288  0.79751798  1.0
  N  N79  1  0.52702750  0.49917651  0.20258885  1.0
  N  N80  1  0.13931304  0.50606771  0.49990437  1.0
  N  N81  1  0.84638149  0.50242051  0.49972351  1.0
  Cl  Cl82  1  0.57356137  0.87788449  0.87606016  1.0
  Cl  Cl83  1  0.69725833  0.84100723  0.60214788  1.0
  Cl  Cl84  1  0.87215995  0.87382752  0.51822182  1.0
  Cl  Cl85  1  0.68861862  0.13131574  0.61084351  1.0
  Cl  Cl86  1  0.64381948  0.15439235  0.12782776  1.0
  Cl  Cl87  1  0.66209262  0.16310077  0.02113483  1.0
  O  O88  1  0.60195276  0.31885900  0.51079648  1.0
  O  O89  1  0.53377904  0.29300253  0.20310953  1.0
  O  O90  1  0.52557711  0.72688350  0.79683838  1.0
  O  O91  1  0.50140064  0.70577663  0.20338468  1.0
  O  O92  1  0.37225002  0.32169100  0.49712148  1.0
  O  O93  1  0.61337096  0.52662177  0.57236632  1.0
  O  O94  1  0.38268224  0.50101282  0.57294869  1.0
  O  O95  1  0.60505522  0.68439861  0.49090894  1.0
  O  O96  1  0.37219574  0.68980294  0.49837078  1.0
  O  O97  1  0.61302671  0.47855853  0.42828790  1.0
  O  O98  1  0.38273690  0.51014055  0.42619981  1.0
  O  O99  1  0.46991934  0.31536286  0.79796291  1.0
