# generated using pymatgen
data_Zn4H10C26S4O13F2
_symmetry_space_group_name_H-M   'P 1'
_cell_length_a   19.67854887
_cell_length_b   19.68905324
_cell_length_c   33.42623051
_cell_angle_alpha   79.05458786
_cell_angle_beta   79.08746475
_cell_angle_gamma   63.85486357
_symmetry_Int_Tables_number   1
_chemical_formula_structural   Zn4H10C26S4O13F2
_chemical_formula_sum   'Zn16 H40 C104 S16 O52 F8'
_cell_volume   11332.12839606
_cell_formula_units_Z   4
loop_
 _symmetry_equiv_pos_site_id
 _symmetry_equiv_pos_as_xyz
  1  'x, y, z'
loop_
 _atom_site_type_symbol
 _atom_site_label
 _atom_site_symmetry_multiplicity
 _atom_site_fract_x
 _atom_site_fract_y
 _atom_site_fract_z
 _atom_site_occupancy
  Zn  Zn0  1  0.60043601  0.94359800  0.52209177  1.0
  Zn  Zn1  1  0.51640898  0.01572649  0.44031020  1.0
  Zn  Zn2  1  0.43929493  0.94094123  0.51773286  1.0
  Zn  Zn3  1  0.44474248  0.09898751  0.52084012  1.0
  Zn  Zn4  1  0.64990455  0.30601933  0.72825738  1.0
  Zn  Zn5  1  0.81049130  0.31100110  0.73322323  1.0
  Zn  Zn6  1  0.73334874  0.23176979  0.80969720  1.0
  Zn  Zn7  1  0.80598362  0.15251440  0.72841636  1.0
  Zn  Zn8  1  0.23316512  0.73322025  0.31072303  1.0
  Zn  Zn9  1  0.30408505  0.65121862  0.22855386  1.0
  Zn  Zn10  1  0.15062732  0.80723050  0.22861983  1.0
  Zn  Zn11  1  0.31071260  0.80873365  0.23256200  1.0
  Zn  Zn12  1  0.93921388  0.43969589  0.01666065  1.0
  Zn  Zn13  1  0.94463126  0.59916467  0.02191017  1.0
  Zn  Zn14  1  0.09883127  0.44365577  0.02120953  1.0
  Zn  Zn15  1  0.01732288  0.51770915  0.93999864  1.0
  H  H16  1  0.54786014  0.25124680  0.64965299  1.0
  H  H17  1  0.70232896  0.99864044  0.60046992  1.0
  H  H18  1  0.29961242  0.79948880  0.40126423  1.0
  H  H19  1  0.45042417  0.95049606  0.34876783  1.0
  H  H20  1  0.76075620  0.53637523  0.65920951  1.0
  H  H21  1  0.29729799  0.52094366  0.39862043  1.0
  H  H22  1  0.02119656  0.79703250  0.39876866  1.0
  H  H23  1  0.02919903  0.05107704  0.65213908  1.0
  H  H24  1  0.84857061  0.34874093  0.95045597  1.0
  H  H25  1  0.90137022  0.40120848  0.79961314  1.0
  H  H26  1  0.22846675  0.45295683  0.85148397  1.0
  H  H27  1  0.85837424  0.83741829  0.95992537  1.0
  H  H28  1  0.99863764  0.70226641  0.10036056  1.0
  H  H29  1  0.25127800  0.54775625  0.14967694  1.0
  H  H30  1  0.72045668  0.69932810  0.09785218  1.0
  H  H31  1  0.98910023  0.21360395  0.09083157  1.0
  H  H32  1  0.42444479  0.76866890  0.60090717  1.0
  H  H33  1  0.44905088  0.66933498  0.60310444  1.0
  H  H34  1  0.46422779  0.72403536  0.55600723  1.0
  H  H35  1  0.52307748  0.17879855  0.34648404  1.0
  H  H36  1  0.46328034  0.24289448  0.30905170  1.0
  H  H37  1  0.43578051  0.17618181  0.34407203  1.0
  H  H38  1  0.67633211  0.93563152  0.34396013  1.0
  H  H39  1  0.74296886  0.96345322  0.30909364  1.0
  H  H40  1  0.67864574  0.02293919  0.34653718  1.0
  H  H41  1  0.27808020  0.20173129  0.61011351  1.0
  H  H42  1  0.18007923  0.26794604  0.61369295  1.0
  H  H43  1  0.23326826  0.24146292  0.56522312  1.0
  H  H44  1  0.57122575  0.22699318  0.90336772  1.0
  H  H45  1  0.50710655  0.28675939  0.94074171  1.0
  H  H46  1  0.57395833  0.31411212  0.90579015  1.0
  H  H47  1  0.85171866  0.92798912  0.76022057  1.0
  H  H48  1  0.93023859  0.84227197  0.77609644  1.0
  H  H49  1  0.93890095  0.93061790  0.76276370  1.0
  H  H50  1  0.51702641  0.50826323  0.18475438  1.0
  H  H51  1  0.57000114  0.48195767  0.13620384  1.0
  H  H52  1  0.47201207  0.54825521  0.13991148  1.0
  H  H53  1  0.28571040  0.02623674  0.19400879  1.0
  H  H54  1  0.30121307  0.08062699  0.14684502  1.0
  H  H55  1  0.32549059  0.98131403  0.14920761  1.0
  C  C56  1  0.68423664  0.93852631  0.43846706  1.0
  C  C57  1  0.43080864  0.93096007  0.43098508  1.0
  C  C58  1  0.56169747  0.81570130  0.56160217  1.0
  C  C59  1  0.31553655  0.06157889  0.56144393  1.0
  C  C60  1  0.56906987  0.06928528  0.56911339  1.0
  C  C61  1  0.43824943  0.18403800  0.43832022  1.0
  C  C62  1  0.68897496  0.43451614  0.68852134  1.0
  C  C63  1  0.81919985  0.31886026  0.81910074  1.0
  C  C64  1  0.56541090  0.31129146  0.81130498  1.0
  C  C65  1  0.81141268  0.06555094  0.81138249  1.0
  C  C66  1  0.68119697  0.18075059  0.68096220  1.0
  C  C67  1  0.93469381  0.18823431  0.68868114  1.0
  C  C68  1  0.31126848  0.56580583  0.31178668  1.0
  C  C69  1  0.18076139  0.68097968  0.18100359  1.0
  C  C70  1  0.06595702  0.81126226  0.31202134  1.0
  C  C71  1  0.18853473  0.93458272  0.18853098  1.0
  C  C72  1  0.31919475  0.81904152  0.31902513  1.0
  C  C73  1  0.43418679  0.68828211  0.18845686  1.0
  C  C74  1  0.81561499  0.56206097  0.06144354  1.0
  C  C75  1  0.06916882  0.56904337  0.06905313  1.0
  C  C76  1  0.06074282  0.31555772  0.06128237  1.0
  C  C77  1  0.18420602  0.43871412  0.93823279  1.0
  C  C78  1  0.93086588  0.43102957  0.93088200  1.0
  C  C79  1  0.93833674  0.68488566  0.93893737  1.0
  C  C80  1  0.59632679  0.09914202  0.59786137  1.0
  C  C81  1  0.65379548  0.15066063  0.65236576  1.0
  C  C82  1  0.55414983  0.17048023  0.61250882  1.0
  C  C83  1  0.69592024  0.07927339  0.63775895  1.0
  C  C84  1  0.58203782  0.19565587  0.63899791  1.0
  C  C85  1  0.66810640  0.05415653  0.61120602  1.0
  C  C86  1  0.40159338  0.90146173  0.40303123  1.0
  C  C87  1  0.34845797  0.84852472  0.34701041  1.0
  C  C88  1  0.35865241  0.85838227  0.41675031  1.0
  C  C89  1  0.39140793  0.89158135  0.33333333  1.0
  C  C90  1  0.33273934  0.83263768  0.38955166  1.0
  C  C91  1  0.41731128  0.91733677  0.36049855  1.0
  C  C92  1  0.54467045  0.69636736  0.59869612  1.0
  C  C93  1  0.70393760  0.55386759  0.65112288  1.0
  C  C94  1  0.58555535  0.74099551  0.58626929  1.0
  C  C95  1  0.66371982  0.50928853  0.66355437  1.0
  C  C96  1  0.66126118  0.62207648  0.62746067  1.0
  C  C97  1  0.58904483  0.62840224  0.62228680  1.0
  C  C98  1  0.42465908  0.27277821  0.37031444  1.0
  C  C99  1  0.32636657  0.47588314  0.37889301  1.0
  C  C100  1  0.41412318  0.25816661  0.41301731  1.0
  C  C101  1  0.33650061  0.49078740  0.33653405  1.0
  C  C102  1  0.35822529  0.39672969  0.39156251  1.0
  C  C103  1  0.39217574  0.35251950  0.35856459  1.0
  C  C104  1  0.77285070  0.92458913  0.37039746  1.0
  C  C105  1  0.97606146  0.82608633  0.37904781  1.0
  C  C106  1  0.75832203  0.91415821  0.41312783  1.0
  C  C107  1  0.99089408  0.83625335  0.33668860  1.0
  C  C108  1  0.89690030  0.85801787  0.39168292  1.0
  C  C109  1  0.85263310  0.89200580  0.35866780  1.0
  C  C110  1  0.20016612  0.15664899  0.60252511  1.0
  C  C111  1  0.05017060  0.09500858  0.64749680  1.0
  C  C112  1  0.24117617  0.08730133  0.58644441  1.0
  C  C113  1  0.00932278  0.16370018  0.66359126  1.0
  C  C114  1  0.11981629  0.09167616  0.62523768  1.0
  C  C115  1  0.13079516  0.15807510  0.62468683  1.0
  C  C116  1  0.84693274  0.34702610  0.84849278  1.0
  C  C117  1  0.90294568  0.40297767  0.90155805  1.0
  C  C118  1  0.83306895  0.33333333  0.89147944  1.0
  C  C119  1  0.91673576  0.41670692  0.85857136  1.0
  C  C120  1  0.86031499  0.36049011  0.91733532  1.0
  C  C121  1  0.88954330  0.38952556  0.83273406  1.0
  C  C122  1  0.47711941  0.32548538  0.87946469  1.0
  C  C123  1  0.27374151  0.42392701  0.87112011  1.0
  C  C124  1  0.49141776  0.33603315  0.83672570  1.0
  C  C125  1  0.25915354  0.41363334  0.91350182  1.0
  C  C126  1  0.35284970  0.39210860  0.85834770  1.0
  C  C127  1  0.39734098  0.35804549  0.89126496  1.0
  C  C128  1  0.87572621  0.91916793  0.82168728  1.0
  C  C129  1  0.87465530  0.83040597  0.92752450  1.0
  C  C130  1  0.83656687  0.99052819  0.83576357  1.0
  C  C131  1  0.91341870  0.75943468  0.91376691  1.0
  C  C132  1  0.86056544  0.88901469  0.89430785  1.0
  C  C133  1  0.88894333  0.86166478  0.85568585  1.0
  C  C134  1  0.15071847  0.65370527  0.15232811  1.0
  C  C135  1  0.09915923  0.59632291  0.09775410  1.0
  C  C136  1  0.07932316  0.69585645  0.13766848  1.0
  C  C137  1  0.17055002  0.55417626  0.11241911  1.0
  C  C138  1  0.05418777  0.66805480  0.11110212  1.0
  C  C139  1  0.19570943  0.58199393  0.13895838  1.0
  C  C140  1  0.54995576  0.59320780  0.14748117  1.0
  C  C141  1  0.69968745  0.65525240  0.10251808  1.0
  C  C142  1  0.50875833  0.66251093  0.16358860  1.0
  C  C143  1  0.74077704  0.58661477  0.08640610  1.0
  C  C144  1  0.63013078  0.65834420  0.12481348  1.0
  C  C145  1  0.61933253  0.59186636  0.12533503  1.0
  C  C146  1  0.20538140  0.05392579  0.15126426  1.0
  C  C147  1  0.04589457  0.19625115  0.09890283  1.0
  C  C148  1  0.16461550  0.00919397  0.16374060  1.0
  C  C149  1  0.08599859  0.24092221  0.08637705  1.0
  C  C150  1  0.08872771  0.12809416  0.12255880  1.0
  C  C151  1  0.16093994  0.12188315  0.12767424  1.0
  C  C152  1  0.46645394  0.71530998  0.58926896  1.0
  C  C153  1  0.46373832  0.21479848  0.34073530  1.0
  C  C154  1  0.71484787  0.96368128  0.34076377  1.0
  C  C155  1  0.22388176  0.22054339  0.59773969  1.0
  C  C156  1  0.53519371  0.28631588  0.90905745  1.0
  C  C157  1  0.90061753  0.90383424  0.77790100  1.0
  C  C158  1  0.52628553  0.52929069  0.15223781  1.0
  C  C159  1  0.28360078  0.03482469  0.16073769  1.0
  S  S160  1  0.67549471  0.70069451  0.60299118  1.0
  S  S161  1  0.57415802  0.54987264  0.64668308  1.0
  S  S162  1  0.36598656  0.33982441  0.43792874  1.0
  S  S163  1  0.38460575  0.40901110  0.31193213  1.0
  S  S164  1  0.84004168  0.86590959  0.43803625  1.0
  S  S165  1  0.90911317  0.88442079  0.31204908  1.0
  S  S166  1  0.19591323  0.02590192  0.59817809  1.0
  S  S167  1  0.05497152  0.22443461  0.65173221  1.0
  S  S168  1  0.40953514  0.38438852  0.81193167  1.0
  S  S169  1  0.34114521  0.36536960  0.93796914  1.0
  S  S170  1  0.81670904  0.98702755  0.88905867  1.0
  S  S171  1  0.93294463  0.76347675  0.86058235  1.0
  S  S172  1  0.55393851  0.72399850  0.15190069  1.0
  S  S173  1  0.69531218  0.52566886  0.09823619  1.0
  S  S174  1  0.07465010  0.04937145  0.14703829  1.0
  S  S175  1  0.17564710  0.20047933  0.10318554  1.0
  O  O176  1  0.50130742  0.99929327  0.50032703  1.0
  O  O177  1  0.68515194  0.92232547  0.47742061  1.0
  O  O178  1  0.46872996  0.96939688  0.41353709  1.0
  O  O179  1  0.49535209  0.84429899  0.54988862  1.0
  O  O180  1  0.62502021  0.97388704  0.41954767  1.0
  O  O181  1  0.60935265  0.84604230  0.55390621  1.0
  O  O182  1  0.41563004  0.91564820  0.46933708  1.0
  O  O183  1  0.34246626  0.99458675  0.55050863  1.0
  O  O184  1  0.50379019  0.11172374  0.55761928  1.0
  O  O185  1  0.34730927  0.10778126  0.55254476  1.0
  O  O186  1  0.61416491  0.00347886  0.55863320  1.0
  O  O187  1  0.47409107  0.12472545  0.41959187  1.0
  O  O188  1  0.42123663  0.18508123  0.47724365  1.0
  O  O189  1  0.74945314  0.25150082  0.74952930  1.0
  O  O190  1  0.64207293  0.40344231  0.69637978  1.0
  O  O191  1  0.83690435  0.33600293  0.78096141  1.0
  O  O192  1  0.62466999  0.27535455  0.83008266  1.0
  O  O193  1  0.75526868  0.40744621  0.70007134  1.0
  O  O194  1  0.56442604  0.32774085  0.77231097  1.0
  O  O195  1  0.78077565  0.28053420  0.83441369  1.0
  O  O196  1  0.77512856  0.12355555  0.83129115  1.0
  O  O197  1  0.74652092  0.13839031  0.69239930  1.0
  O  O198  1  0.82767172  0.06713172  0.77240173  1.0
  O  O199  1  0.63620201  0.24665464  0.69134129  1.0
  O  O200  1  0.90706018  0.25472509  0.70014605  1.0
  O  O201  1  0.90424023  0.14095380  0.69682881  1.0
  O  O202  1  0.24945526  0.74960300  0.25052969  1.0
  O  O203  1  0.27601447  0.62402017  0.33131093  1.0
  O  O204  1  0.24676432  0.63573179  0.19139863  1.0
  O  O205  1  0.06592130  0.82760365  0.27307977  1.0
  O  O206  1  0.32712699  0.56573044  0.27280316  1.0
  O  O207  1  0.12422220  0.77573313  0.33158490  1.0
  O  O208  1  0.13867080  0.74616643  0.19251545  1.0
  O  O209  1  0.14055029  0.90459969  0.19655373  1.0
  O  O210  1  0.33444605  0.83446752  0.28067492  1.0
  O  O211  1  0.25502472  0.90550016  0.20009943  1.0
  O  O212  1  0.28125201  0.78068233  0.33644724  1.0
  O  O213  1  0.40205234  0.64232238  0.19704583  1.0
  O  O214  1  0.40736689  0.75512154  0.19954068  1.0
  O  O215  1  0.99919693  0.50034962  0.00022878  1.0
  O  O216  1  0.84287606  0.49570306  0.04984820  1.0
  O  O217  1  0.00313087  0.61411282  0.05873099  1.0
  O  O218  1  0.10798142  0.34624299  0.05307155  1.0
  O  O219  1  0.84648323  0.60896715  0.05361944  1.0
  O  O220  1  0.99427198  0.34303160  0.04991325  1.0
  O  O221  1  0.11150253  0.50392985  0.05744701  1.0
  O  O222  1  0.18420897  0.42193806  0.97718490  1.0
  O  O223  1  0.96923750  0.46939082  0.91551858  1.0
  O  O224  1  0.12588219  0.47494079  0.91879078  1.0
  O  O225  1  0.91341937  0.41374200  0.96904197  1.0
  O  O226  1  0.92220729  0.68498014  0.97782591  1.0
  O  O227  1  0.97412208  0.62648338  0.91944641  1.0
  F  F228  1  0.48420466  0.21786905  0.60130585  1.0
  F  F229  1  0.76581355  0.03178361  0.64902702  1.0
  F  F230  1  0.34075025  0.84010921  0.45728528  1.0
  F  F231  1  0.40938555  0.90988661  0.29276231  1.0
  F  F232  1  0.79230722  0.29301548  0.90954982  1.0
  F  F233  1  0.95733544  0.45719219  0.84049636  1.0
  F  F234  1  0.03189878  0.76567899  0.14889454  1.0
  F  F235  1  0.21800935  0.48435524  0.10120404  1.0
