# generated using pymatgen
data_AlH6C11SBrO5
_symmetry_space_group_name_H-M   'P 1'
_cell_length_a   6.97473289
_cell_length_b   11.08168233
_cell_length_c   12.63388919
_cell_angle_alpha   81.40211424
_cell_angle_beta   75.93084680
_cell_angle_gamma   72.06637036
_symmetry_Int_Tables_number   1
_chemical_formula_structural   AlH6C11SBrO5
_chemical_formula_sum   'Al2 H12 C22 S2 Br2 O10'
_cell_volume   898.23000608
_cell_formula_units_Z   2
loop_
 _symmetry_equiv_pos_site_id
 _symmetry_equiv_pos_as_xyz
  1  'x, y, z'
loop_
 _atom_site_type_symbol
 _atom_site_label
 _atom_site_symmetry_multiplicity
 _atom_site_fract_x
 _atom_site_fract_y
 _atom_site_fract_z
 _atom_site_occupancy
  Al  Al0  1  0.49836699  0.50040294  0.49429562  1.0
  Al  Al1  1  0.99709955  0.50117957  0.49478956  1.0
  H  H2  1  0.20692918  0.64991186  0.41961219  1.0
  H  H3  1  0.78769660  0.35663163  0.57921684  1.0
  H  H4  1  0.84092101  0.76173058  0.65136484  1.0
  H  H5  1  0.58871338  0.23336290  0.63920966  1.0
  H  H6  1  0.20849655  0.11951571  0.42053782  1.0
  H  H7  1  0.32436161  0.88163133  0.43218847  1.0
  H  H8  1  0.48790903  0.49912643  0.21624197  1.0
  H  H9  1  0.54395334  0.41803731  0.09594839  1.0
  H  H10  1  0.46717492  0.58646557  0.08741674  1.0
  H  H11  1  0.53591514  0.40957193  0.90079476  1.0
  H  H12  1  0.45592705  0.57804412  0.89487490  1.0
  H  H13  1  0.51177512  0.49893422  0.77338591  1.0
  C  C14  1  0.62687529  0.72471174  0.51436245  1.0
  C  C15  1  0.83109835  0.50701020  0.29962141  1.0
  C  C16  1  0.35705932  0.27542011  0.49424051  1.0
  C  C17  1  0.16734862  0.49182227  0.69070781  1.0
  C  C18  1  0.77546911  0.50038831  0.10497730  1.0
  C  C19  1  0.22623541  0.49431974  0.88525058  1.0
  C  C20  1  0.88972976  0.50291518  0.18025559  1.0
  C  C21  1  0.11158215  0.49187378  0.81020387  1.0
  C  C22  1  0.10240817  0.49743830  0.99258359  1.0
  C  C23  1  0.89942624  0.49739099  0.99776599  1.0
  C  C24  1  0.55086833  0.86499759  0.52486662  1.0
  C  C25  1  0.63946437  0.92990642  0.58154739  1.0
  C  C26  1  0.39284948  0.93343017  0.47220013  1.0
  C  C27  1  0.78764715  0.86508494  0.64577173  1.0
  C  C28  1  0.86632359  0.93072468  0.70124119  1.0
  C  C29  1  0.41834913  0.13365637  0.51330077  1.0
  C  C30  1  0.32733560  0.06686552  0.46584357  1.0
  C  C31  1  0.56952195  0.06672888  0.57652619  1.0
  C  C32  1  0.64784486  0.13068028  0.63787818  1.0
  C  C33  1  0.79493724  0.06541635  0.69743940  1.0
  C  C34  1  0.55698412  0.50095175  0.12880083  1.0
  C  C35  1  0.44401044  0.49549642  0.86093475  1.0
  S  S36  1  0.14185765  0.50129129  0.12107899  1.0
  S  S37  1  0.85945960  0.49395725  0.86934244  1.0
  Br  Br38  1  0.06693741  0.83738322  0.78302971  1.0
  Br  Br39  1  0.89551913  0.16175647  0.77219997  1.0
  O  O40  1  0.49255952  0.67071731  0.50921816  1.0
  O  O41  1  0.97489784  0.50777537  0.34621035  1.0
  O  O42  1  0.16909791  0.32942167  0.48945505  1.0
  O  O43  1  0.35365138  0.48591834  0.64314136  1.0
  O  O44  1  0.49754971  0.33045047  0.48293626  1.0
  O  O45  1  0.02031901  0.49659409  0.64427086  1.0
  O  O46  1  0.81963903  0.67195665  0.50684357  1.0
  O  O47  1  0.64556436  0.51065460  0.34679693  1.0
  O  O48  1  0.23777077  0.56171449  0.44899811  1.0
  O  O49  1  0.75735797  0.44080931  0.54093213  1.0
