# generated using pymatgen
data_Zn4H44C51(N4O9)2
_symmetry_space_group_name_H-M   'P 1'
_cell_length_a   16.02039707
_cell_length_b   21.41002268
_cell_length_c   29.92909952
_cell_angle_alpha   90.00001776
_cell_angle_beta   90.00024678
_cell_angle_gamma   82.18459353
_symmetry_Int_Tables_number   1
_chemical_formula_structural   Zn4H44C51(N4O9)2
_chemical_formula_sum   'Zn16 H176 C204 N32 O72'
_cell_volume   10170.23938451
_cell_formula_units_Z   4
loop_
 _symmetry_equiv_pos_site_id
 _symmetry_equiv_pos_as_xyz
  1  'x, y, z'
loop_
 _atom_site_type_symbol
 _atom_site_label
 _atom_site_symmetry_multiplicity
 _atom_site_fract_x
 _atom_site_fract_y
 _atom_site_fract_z
 _atom_site_occupancy
  Zn  Zn0  1  0.67015580  0.56333204  0.77279104  1.0
  Zn  Zn1  1  0.32984628  0.93666853  0.27279035  1.0
  Zn  Zn2  1  0.32984326  0.43666905  0.22720923  1.0
  Zn  Zn3  1  0.67015599  0.06333206  0.72720792  1.0
  Zn  Zn4  1  0.65262377  0.41382125  0.78210635  1.0
  Zn  Zn5  1  0.34737452  0.08617703  0.28210830  1.0
  Zn  Zn6  1  0.34737708  0.58618030  0.21789292  1.0
  Zn  Zn7  1  0.65262478  0.91382264  0.71789265  1.0
  Zn  Zn8  1  0.62313297  0.48182709  0.68919875  1.0
  Zn  Zn9  1  0.37687114  0.01816929  0.18919975  1.0
  Zn  Zn10  1  0.37687055  0.51817349  0.31079985  1.0
  Zn  Zn11  1  0.62313105  0.98182801  0.81080019  1.0
  Zn  Zn12  1  0.80835519  0.45417799  0.72608748  1.0
  Zn  Zn13  1  0.19164397  0.04582359  0.22608872  1.0
  Zn  Zn14  1  0.19164270  0.54582263  0.27391146  1.0
  Zn  Zn15  1  0.80835829  0.95417700  0.77391256  1.0
  H  H16  1  0.59827219  0.86838958  0.58132516  1.0
  H  H17  1  0.40172748  0.63160872  0.08132323  1.0
  H  H18  1  0.40172992  0.13161196  0.41867445  1.0
  H  H19  1  0.59827065  0.36839049  0.91867705  1.0
  H  H20  1  0.19800195  0.78950069  0.84344717  1.0
  H  H21  1  0.80199929  0.71050081  0.34344819  1.0
  H  H22  1  0.80199649  0.21050040  0.15655243  1.0
  H  H23  1  0.19800117  0.28949933  0.65655142  1.0
  H  H24  1  0.82221854  0.37267721  0.43243080  1.0
  H  H25  1  0.17778628  0.12732662  0.93243272  1.0
  H  H26  1  0.17778021  0.62732576  0.56756680  1.0
  H  H27  1  0.82221793  0.87267725  0.06756923  1.0
  H  H28  1  0.08648747  0.75376748  0.83383065  1.0
  H  H29  1  0.91351385  0.74623308  0.33383059  1.0
  H  H30  1  0.91351362  0.24623265  0.16616896  1.0
  H  H31  1  0.08648318  0.25376897  0.66616969  1.0
  H  H32  1  0.59434702  0.92574423  0.52261073  1.0
  H  H33  1  0.40565412  0.57425360  0.02261046  1.0
  H  H34  1  0.40565032  0.07425593  0.47738821  1.0
  H  H35  1  0.59434822  0.42574652  0.97738914  1.0
  H  H36  1  0.88400290  0.32741217  0.37793675  1.0
  H  H37  1  0.11600257  0.17258884  0.87793552  1.0
  H  H38  1  0.11599889  0.67258748  0.62206252  1.0
  H  H39  1  0.88400203  0.82741644  0.12206442  1.0
  H  H40  1  0.37729999  0.89854769  0.38784798  1.0
  H  H41  1  0.62270436  0.60144858  0.88784991  1.0
  H  H42  1  0.62269626  0.10145153  0.61215162  1.0
  H  H43  1  0.37730580  0.39854959  0.11215270  1.0
  H  H44  1  0.51955039  0.05345901  0.40120964  1.0
  H  H45  1  0.48044941  0.44653969  0.90120730  1.0
  H  H46  1  0.48044578  0.94654069  0.59879131  1.0
  H  H47  1  0.51955254  0.55346278  0.09879197  1.0
  H  H48  1  0.47008678  0.78753190  0.73486988  1.0
  H  H49  1  0.52991515  0.71246397  0.23486960  1.0
  H  H50  1  0.52991383  0.21247105  0.26513073  1.0
  H  H51  1  0.47008548  0.28753146  0.76512700  1.0
  H  H52  1  0.71951816  0.40654953  0.48006727  1.0
  H  H53  1  0.28048314  0.09345148  0.98006808  1.0
  H  H54  1  0.28047785  0.59345111  0.51993133  1.0
  H  H55  1  0.71951693  0.90655101  0.01993287  1.0
  H  H56  1  0.63521788  0.82606353  0.64712904  1.0
  H  H57  1  0.36477733  0.67393477  0.14712837  1.0
  H  H58  1  0.36478376  0.17393706  0.35287090  1.0
  H  H59  1  0.63521705  0.32606447  0.85287257  1.0
  H  H60  1  0.92555786  0.38363089  0.60479194  1.0
  H  H61  1  0.07444578  0.11637164  0.10479092  1.0
  H  H62  1  0.07444173  0.61637443  0.39520633  1.0
  H  H63  1  0.92555579  0.88362566  0.89520802  1.0
  H  H64  1  0.90802499  0.26565865  0.31766433  1.0
  H  H65  1  0.09198062  0.23433861  0.81766239  1.0
  H  H66  1  0.09197502  0.73433678  0.68233528  1.0
  H  H67  1  0.90801969  0.76566246  0.18233655  1.0
  H  H68  1  0.72909890  0.68660484  0.77041250  1.0
  H  H69  1  0.27090379  0.81339196  0.27041198  1.0
  H  H70  1  0.27090001  0.31339342  0.22958844  1.0
  H  H71  1  0.72909989  0.18660391  0.72958897  1.0
  H  H72  1  0.67246215  0.43304246  0.55783301  1.0
  H  H73  1  0.32753908  0.06696104  0.05783290  1.0
  H  H74  1  0.32753620  0.56696287  0.44216660  1.0
  H  H75  1  0.67246162  0.93304144  0.94216638  1.0
  H  H76  1  0.41112114  0.90762187  0.84849937  1.0
  H  H77  1  0.58887959  0.59238293  0.34850321  1.0
  H  H78  1  0.58887064  0.09238540  0.15149856  1.0
  H  H79  1  0.41112400  0.40761718  0.65149506  1.0
  H  H80  1  0.65382244  0.73375386  0.69778143  1.0
  H  H81  1  0.34617763  0.76624392  0.19778141  1.0
  H  H82  1  0.34617740  0.26624628  0.30221784  1.0
  H  H83  1  0.65382355  0.23375573  0.80221954  1.0
  H  H84  1  0.12391778  0.63493888  0.74290278  1.0
  H  H85  1  0.87608429  0.86506405  0.24290467  1.0
  H  H86  1  0.87608550  0.36506311  0.25709549  1.0
  H  H87  1  0.12391352  0.13494082  0.75709694  1.0
  H  H88  1  0.34085474  0.73647080  0.74846552  1.0
  H  H89  1  0.65914839  0.76352600  0.24846388  1.0
  H  H90  1  0.65914596  0.26353169  0.25153609  1.0
  H  H91  1  0.34085536  0.23646940  0.75153339  1.0
  H  H92  1  0.57411592  0.61827028  0.59298265  1.0
  H  H93  1  0.42588986  0.88172560  0.09298417  1.0
  H  H94  1  0.42588455  0.38172985  0.40701629  1.0
  H  H95  1  0.57411600  0.11827214  0.90701777  1.0
  H  H96  1  0.45493272  0.84393185  0.45221920  1.0
  H  H97  1  0.54507419  0.65606344  0.95222263  1.0
  H  H98  1  0.54506861  0.15606686  0.54778007  1.0
  H  H99  1  0.45493488  0.34393380  0.04778065  1.0
  H  H100  1  0.00765008  0.19266186  0.27206618  1.0
  H  H101  1  0.99235132  0.30733969  0.77206701  1.0
  H  H102  1  0.99234906  0.80733499  0.72793175  1.0
  H  H103  1  0.00765047  0.69266373  0.22793327  1.0
  H  H104  1  0.97394660  0.35436324  0.52705126  1.0
  H  H105  1  0.02605017  0.14563560  0.02705114  1.0
  H  H106  1  0.02604942  0.64563740  0.47294701  1.0
  H  H107  1  0.97394609  0.85435986  0.97294880  1.0
  H  H108  1  0.55788732  0.71037440  0.54107864  1.0
  H  H109  1  0.44211147  0.78962344  0.04108018  1.0
  H  H110  1  0.44211228  0.28962715  0.45892096  1.0
  H  H111  1  0.55788665  0.21037577  0.95892210  1.0
  H  H112  1  0.58161993  0.73389071  0.85988980  1.0
  H  H113  1  0.41838208  0.76610701  0.35988961  1.0
  H  H114  1  0.41837859  0.26610614  0.14011114  1.0
  H  H115  1  0.58162152  0.23388934  0.64011067  1.0
  H  H116  1  0.60386526  0.81375579  0.85629868  1.0
  H  H117  1  0.39613383  0.68624430  0.35629809  1.0
  H  H118  1  0.39613326  0.18624106  0.14370226  1.0
  H  H119  1  0.60386555  0.31375490  0.64370286  1.0
  H  H120  1  0.66704070  0.75837503  0.89091957  1.0
  H  H121  1  0.33295960  0.74162316  0.39091984  1.0
  H  H122  1  0.33295758  0.24162323  0.10908104  1.0
  H  H123  1  0.66704188  0.25837462  0.60908143  1.0
  H  H124  1  0.48987431  0.63605217  0.80326887  1.0
  H  H125  1  0.51012160  0.86394937  0.30326757  1.0
  H  H126  1  0.51012209  0.36394988  0.19673274  1.0
  H  H127  1  0.48988003  0.13605122  0.69673237  1.0
  H  H128  1  0.28274547  0.85701571  0.86296808  1.0
  H  H129  1  0.71725311  0.64299145  0.36297022  1.0
  H  H130  1  0.71724514  0.14299110  0.13703286  1.0
  H  H131  1  0.28274650  0.35701010  0.63702738  1.0
  H  H132  1  0.59455775  0.00140844  0.46688226  1.0
  H  H133  1  0.40544399  0.49858928  0.96688143  1.0
  H  H134  1  0.40544006  0.99859266  0.53311935  1.0
  H  H135  1  0.59455804  0.50140895  0.03312085  1.0
  H  H136  1  0.20861485  0.21907503  0.36204039  1.0
  H  H137  1  0.79138754  0.28091754  0.86203707  1.0
  H  H138  1  0.79138352  0.78091900  0.63795955  1.0
  H  H139  1  0.20861363  0.71908588  0.13796354  1.0
  H  H140  1  0.85572721  0.65231294  0.82846551  1.0
  H  H141  1  0.14427821  0.84768523  0.32846537  1.0
  H  H142  1  0.14427529  0.34768624  0.17153477  1.0
  H  H143  1  0.85572688  0.15230969  0.67153290  1.0
  H  H144  1  0.01607344  0.56416227  0.72549952  1.0
  H  H145  1  0.98392630  0.93583880  0.22550000  1.0
  H  H146  1  0.98392647  0.43584116  0.27449975  1.0
  H  H147  1  0.01607355  0.06416134  0.77449961  1.0
  H  H148  1  0.96173556  0.72367869  0.84626103  1.0
  H  H149  1  0.03826595  0.77632139  0.34626163  1.0
  H  H150  1  0.03826632  0.27632049  0.15373958  1.0
  H  H151  1  0.96173351  0.22367734  0.65373831  1.0
  H  H152  1  0.36889801  0.65384501  0.83675153  1.0
  H  H153  1  0.63109982  0.84615415  0.33675018  1.0
  H  H154  1  0.63109995  0.34615514  0.16324941  1.0
  H  H155  1  0.36890283  0.15384785  0.66324809  1.0
  H  H156  1  0.34674067  0.58401876  0.86445096  1.0
  H  H157  1  0.65325786  0.91598134  0.36444934  1.0
  H  H158  1  0.65325652  0.41598234  0.13555032  1.0
  H  H159  1  0.34674518  0.08402207  0.63554993  1.0
  H  H160  1  0.28507325  0.61410940  0.81711068  1.0
  H  H161  1  0.71492551  0.88589071  0.31710819  1.0
  H  H162  1  0.71492385  0.38589217  0.18288993  1.0
  H  H163  1  0.28507636  0.11411224  0.68288841  1.0
  H  H164  1  0.42076466  0.49440543  0.75710568  1.0
  H  H165  1  0.57923006  0.00559429  0.25710513  1.0
  H  H166  1  0.57923205  0.50559473  0.24289560  1.0
  H  H167  1  0.42076892  0.99440727  0.74289381  1.0
  H  H168  1  0.32069610  0.50909506  0.78478331  1.0
  H  H169  1  0.67929983  0.99090555  0.28478209  1.0
  H  H170  1  0.67930124  0.49090510  0.21521730  1.0
  H  H171  1  0.32069954  0.00909741  0.71521551  1.0
  H  H172  1  0.41197090  0.47236099  0.81416852  1.0
  H  H173  1  0.58802538  0.02763964  0.31416800  1.0
  H  H174  1  0.58802629  0.52764011  0.18583309  1.0
  H  H175  1  0.41197297  0.97236192  0.68583094  1.0
  H  H176  1  0.78721526  0.79612553  0.83886669  1.0
  H  H177  1  0.21278752  0.70387030  0.33886434  1.0
  H  H178  1  0.21278358  0.20386944  0.16113559  1.0
  H  H179  1  0.78721522  0.29612746  0.66113627  1.0
  H  H180  1  0.71457897  0.83507948  0.79944645  1.0
  H  H181  1  0.28542075  0.66491780  0.29944493  1.0
  H  H182  1  0.28542009  0.16491784  0.20055483  1.0
  H  H183  1  0.71458043  0.33508186  0.70055501  1.0
  H  H184  1  0.78760231  0.76866941  0.78258869  1.0
  H  H185  1  0.21240009  0.73132597  0.28258768  1.0
  H  H186  1  0.21239825  0.23132648  0.21741326  1.0
  H  H187  1  0.78760397  0.26867131  0.71741260  1.0
  H  H188  1  0.10951575  0.29028332  0.40917535  1.0
  H  H189  1  0.89048249  0.20970644  0.90916990  1.0
  H  H190  1  0.89048215  0.70970977  0.59082626  1.0
  H  H191  1  0.10951727  0.79029417  0.09083071  1.0
  C  C192  1  0.42492440  0.92052054  0.40571226  1.0
  C  C193  1  0.57507821  0.57947575  0.90571341  1.0
  C  C194  1  0.57507208  0.07947727  0.59428735  1.0
  C  C195  1  0.42493054  0.42052338  0.09428854  1.0
  C  C196  1  0.50431342  0.00815542  0.41305461  1.0
  C  C197  1  0.49568821  0.49184043  0.91305365  1.0
  C  C198  1  0.49568518  0.99184096  0.58694366  1.0
  C  C199  1  0.50431781  0.50816013  0.08694729  1.0
  C  C200  1  0.00217807  0.28159052  0.36698351  1.0
  C  C201  1  0.99781896  0.21840445  0.86698199  1.0
  C  C202  1  0.99781804  0.71840212  0.63301710  1.0
  C  C203  1  0.00217986  0.78159805  0.13301795  1.0
  C  C204  1  0.42840557  0.80248777  0.76281855  1.0
  C  C205  1  0.57159745  0.69751044  0.26281903  1.0
  C  C206  1  0.57159036  0.19751711  0.23718039  1.0
  C  C207  1  0.42840701  0.30248448  0.73717690  1.0
  C  C208  1  0.76486524  0.40104627  0.50753825  1.0
  C  C209  1  0.23513706  0.09895583  0.00753760  1.0
  C  C210  1  0.23513467  0.59895717  0.49246002  1.0
  C  C211  1  0.76486480  0.90104712  0.99246235  1.0
  C  C212  1  0.62196543  0.78032686  0.63529071  1.0
  C  C213  1  0.37803483  0.71967047  0.13529008  1.0
  C  C214  1  0.37803488  0.21967422  0.36470990  1.0
  C  C215  1  0.62196454  0.28032873  0.86471053  1.0
  C  C216  1  0.52843581  0.91971023  0.46454409  1.0
  C  C217  1  0.47156791  0.58028602  0.96454533  1.0
  C  C218  1  0.47156052  0.08028852  0.53545552  1.0
  C  C219  1  0.52843818  0.41971406  0.03545628  1.0
  C  C220  1  0.88087482  0.38771221  0.57713453  1.0
  C  C221  1  0.11913070  0.11229267  0.07713394  1.0
  C  C222  1  0.11912540  0.61229311  0.42286475  1.0
  C  C223  1  0.88087188  0.88770604  0.92286600  1.0
  C  C224  1  0.97400331  0.25495093  0.32771649  1.0
  C  C225  1  0.02599794  0.24504307  0.82771507  1.0
  C  C226  1  0.02599342  0.74504170  0.67228378  1.0
  C  C227  1  0.97400323  0.75496035  0.17228587  1.0
  C  C228  1  0.84998980  0.37854466  0.49862428  1.0
  C  C229  1  0.15001258  0.12145822  0.99862412  1.0
  C  C230  1  0.15000847  0.62145738  0.50137466  1.0
  C  C231  1  0.84998781  0.87854238  0.00137649  1.0
  C  C232  1  0.56516362  0.83414791  0.52009841  1.0
  C  C233  1  0.43483469  0.66585182  0.02009724  1.0
  C  C234  1  0.43483403  0.16585413  0.47990086  1.0
  C  C235  1  0.56516570  0.33414878  0.97990204  1.0
  C  C236  1  0.04984631  0.68366897  0.79556817  1.0
  C  C237  1  0.95015595  0.81633159  0.29556855  1.0
  C  C238  1  0.95015603  0.31633115  0.20443211  1.0
  C  C239  1  0.04984256  0.18366903  0.70443173  1.0
  C  C240  1  0.44791299  0.85132318  0.79045122  1.0
  C  C241  1  0.55208774  0.64867881  0.29045298  1.0
  C  C242  1  0.55208106  0.14868172  0.20954772  1.0
  C  C243  1  0.44791406  0.35132085  0.70954362  1.0
  C  C244  1  0.52148728  0.88516091  0.78142798  1.0
  C  C245  1  0.47851408  0.61484060  0.28143157  1.0
  C  C246  1  0.47850756  0.11484303  0.21857062  1.0
  C  C247  1  0.52148912  0.38515810  0.71856737  1.0
  C  C248  1  0.68454605  0.69332245  0.79858369  1.0
  C  C249  1  0.31545717  0.80667622  0.29858327  1.0
  C  C250  1  0.31545340  0.30667628  0.20141691  1.0
  C  C251  1  0.68454611  0.19332201  0.70141700  1.0
  C  C252  1  0.86363286  0.56257847  0.76536571  1.0
  C  C253  1  0.13636697  0.93742400  0.26536691  1.0
  C  C254  1  0.13636737  0.43742308  0.23463322  1.0
  C  C255  1  0.86363342  0.06257661  0.73463269  1.0
  C  C256  1  0.73828691  0.41586453  0.55077306  1.0
  C  C257  1  0.26171738  0.08413895  0.05077280  1.0
  C  C258  1  0.26171402  0.58414031  0.44922621  1.0
  C  C259  1  0.73828394  0.91586353  0.94922747  1.0
  C  C260  1  0.39522587  0.87004450  0.82690130  1.0
  C  C261  1  0.60477523  0.62996077  0.32690352  1.0
  C  C262  1  0.60476661  0.12996229  0.17309630  1.0
  C  C263  1  0.39522836  0.37003934  0.67309108  1.0
  C  C264  1  0.94704391  0.33350553  0.43763257  1.0
  C  C265  1  0.05295058  0.16648190  0.93762886  1.0
  C  C266  1  0.05294963  0.66648006  0.56236971  1.0
  C  C267  1  0.94704591  0.83351215  0.06236908  1.0
  C  C268  1  0.63202633  0.72867724  0.66367513  1.0
  C  C269  1  0.36797409  0.77132055  0.16367516  1.0
  C  C270  1  0.36797368  0.27132195  0.33632481  1.0
  C  C271  1  0.63202575  0.22867959  0.83632612  1.0
  C  C272  1  0.06529213  0.63845639  0.76149365  1.0
  C  C273  1  0.93470844  0.86154513  0.26149467  1.0
  C  C274  1  0.93471200  0.36154418  0.23850595  1.0
  C  C275  1  0.06528991  0.13845643  0.73850427  1.0
  C  C276  1  0.35661788  0.77371168  0.77024836  1.0
  C  C277  1  0.64338629  0.72628746  0.27024667  1.0
  C  C278  1  0.64337937  0.22629272  0.22975258  1.0
  C  C279  1  0.35661450  0.27371079  0.72975126  1.0
  C  C280  1  0.58739972  0.66420350  0.60442538  1.0
  C  C281  1  0.41260147  0.83579431  0.10442653  1.0
  C  C282  1  0.41260012  0.33579664  0.39557356  1.0
  C  C283  1  0.58739830  0.16420630  0.89557408  1.0
  C  C284  1  0.92898659  0.60415622  0.77558060  1.0
  C  C285  1  0.07101066  0.89584721  0.27558097  1.0
  C  C286  1  0.07100973  0.39584630  0.22441900  1.0
  C  C287  1  0.92898918  0.10415293  0.72441797  1.0
  C  C288  1  0.18551365  0.73010786  0.79036470  1.0
  C  C289  1  0.81448927  0.76989222  0.29036642  1.0
  C  C290  1  0.81448736  0.26989274  0.20963424  1.0
  C  C291  1  0.18550916  0.23010887  0.70963586  1.0
  C  C292  1  0.59554242  0.77410300  0.59091581  1.0
  C  C293  1  0.40445475  0.72589578  0.09091457  1.0
  C  C294  1  0.40445922  0.22589760  0.40908447  1.0
  C  C295  1  0.59554447  0.27410436  0.90908637  1.0
  C  C296  1  0.46784241  0.89011147  0.44150490  1.0
  C  C297  1  0.53216300  0.60988477  0.94150662  1.0
  C  C298  1  0.53215447  0.10988775  0.55849504  1.0
  C  C299  1  0.46784677  0.39011199  0.05849599  1.0
  C  C300  1  0.02942603  0.21454904  0.30196654  1.0
  C  C301  1  0.97057602  0.28544638  0.80196597  1.0
  C  C302  1  0.97057008  0.78544360  0.69803373  1.0
  C  C303  1  0.02942663  0.71455562  0.19803564  1.0
  C  C304  1  0.30282034  0.79419044  0.80604457  1.0
  C  C305  1  0.69718278  0.70581293  0.30604467  1.0
  C  C306  1  0.69717551  0.20581491  0.19395571  1.0
  C  C307  1  0.30281995  0.29418859  0.69395293  1.0
  C  C308  1  0.90839825  0.37176539  0.53401699  1.0
  C  C309  1  0.09160263  0.12823906  0.03401601  1.0
  C  C310  1  0.09159955  0.62823947  0.46598262  1.0
  C  C311  1  0.90839753  0.87175919  0.96598360  1.0
  C  C312  1  0.44144681  0.97995481  0.39121369  1.0
  C  C313  1  0.55855436  0.52004196  0.89121512  1.0
  C  C314  1  0.55855320  0.02004062  0.60878258  1.0
  C  C315  1  0.44145314  0.47995717  0.10878750  1.0
  C  C316  1  0.76733587  0.42713763  0.63236159  1.0
  C  C317  1  0.23266995  0.07286440  0.13236259  1.0
  C  C318  1  0.23266662  0.57286532  0.36763769  1.0
  C  C319  1  0.76733169  0.92713619  0.86763768  1.0
  C  C320  1  0.57818758  0.71526957  0.57532995  1.0
  C  C321  1  0.42181071  0.78472921  0.07533044  1.0
  C  C322  1  0.42181429  0.28472961  0.42466966  1.0
  C  C323  1  0.57818648  0.21527189  0.92467084  1.0
  C  C324  1  0.62577105  0.61367287  0.67835113  1.0
  C  C325  1  0.37422901  0.88632398  0.17835187  1.0
  C  C326  1  0.37422754  0.38632728  0.32164814  1.0
  C  C327  1  0.62577232  0.11367473  0.82164908  1.0
  C  C328  1  0.63148229  0.76411680  0.85935894  1.0
  C  C329  1  0.36852089  0.73588138  0.35935896  1.0
  C  C330  1  0.36851678  0.23588052  0.14064167  1.0
  C  C331  1  0.63148271  0.26411497  0.64064232  1.0
  C  C332  1  0.11424803  0.20057629  0.31451396  1.0
  C  C333  1  0.88575381  0.29941724  0.81451253  1.0
  C  C334  1  0.88574916  0.79942105  0.68548598  1.0
  C  C335  1  0.11424790  0.70058288  0.18548942  1.0
  C  C336  1  0.48065907  0.58896197  0.79082678  1.0
  C  C337  1  0.51933753  0.91103864  0.29082719  1.0
  C  C338  1  0.51933686  0.41103914  0.20917349  1.0
  C  C339  1  0.48066599  0.08896194  0.70917342  1.0
  C  C340  1  0.39210230  0.01027865  0.35303029  1.0
  C  C341  1  0.60789860  0.48972241  0.85303026  1.0
  C  C342  1  0.60789716  0.98972008  0.64696732  1.0
  C  C343  1  0.39210281  0.51027960  0.14697001  1.0
  C  C344  1  0.17292325  0.15433491  0.28869033  1.0
  C  C345  1  0.82707595  0.34566194  0.78868810  1.0
  C  C346  1  0.82707581  0.84566241  0.71131129  1.0
  C  C347  1  0.17292443  0.65433866  0.21131284  1.0
  C  C348  1  0.61450567  0.66985739  0.64857810  1.0
  C  C349  1  0.38549900  0.83014037  0.14857918  1.0
  C  C350  1  0.38549417  0.33014275  0.35142218  1.0
  C  C351  1  0.61450014  0.16986024  0.85142143  1.0
  C  C352  1  0.32386985  0.84179174  0.83474108  1.0
  C  C353  1  0.67613218  0.65821210  0.33474146  1.0
  C  C354  1  0.67612272  0.15821458  0.16525919  1.0
  C  C355  1  0.32386914  0.34179038  0.66525447  1.0
  C  C356  1  0.54704329  0.97860373  0.44941469  1.0
  C  C357  1  0.45296148  0.52139299  0.94941454  1.0
  C  C358  1  0.45295546  0.02139548  0.55058425  1.0
  C  C359  1  0.54704157  0.47860665  0.05058674  1.0
  C  C360  1  0.14244580  0.22915532  0.35277676  1.0
  C  C361  1  0.85755534  0.27083680  0.85277258  1.0
  C  C362  1  0.85755288  0.77084060  0.64722452  1.0
  C  C363  1  0.14244473  0.72916570  0.14722870  1.0
  C  C364  1  0.91432028  0.64934369  0.80965345  1.0
  C  C365  1  0.08568335  0.85065685  0.30965184  1.0
  C  C366  1  0.08568152  0.35065596  0.19034850  1.0
  C  C367  1  0.91432048  0.14934184  0.69034610  1.0
  C  C368  1  0.79615702  0.40954485  0.58622324  1.0
  C  C369  1  0.20384835  0.09045767  0.08622319  1.0
  C  C370  1  0.20384211  0.59045953  0.41377569  1.0
  C  C371  1  0.79615392  0.90954292  0.91377642  1.0
  C  C372  1  0.00496959  0.59930083  0.75194769  1.0
  C  C373  1  0.99502817  0.90070213  0.25194852  1.0
  C  C374  1  0.99503033  0.40070261  0.24805192  1.0
  C  C375  1  0.00496979  0.09929802  0.74805076  1.0
  C  C376  1  0.97369462  0.68873381  0.81955626  1.0
  C  C377  1  0.02631160  0.81126295  0.31955350  1.0
  C  C378  1  0.02631062  0.31126393  0.18044602  1.0
  C  C379  1  0.97369036  0.18873576  0.68044544  1.0
  C  C380  1  0.34848677  0.60748286  0.83179780  1.0
  C  C381  1  0.65151032  0.89251679  0.33179616  1.0
  C  C382  1  0.65150924  0.39251778  0.16820281  1.0
  C  C383  1  0.34849077  0.10748711  0.66820278  1.0
  C  C384  1  0.38895282  0.50776637  0.78876145  1.0
  C  C385  1  0.61104189  0.99223425  0.28876042  1.0
  C  C386  1  0.61104366  0.49223520  0.21124049  1.0
  C  C387  1  0.38895639  0.00776779  0.71123852  1.0
  C  C388  1  0.74731341  0.78903565  0.80991456  1.0
  C  C389  1  0.25268890  0.71096161  0.30991297  1.0
  C  C390  1  0.25268566  0.21096167  0.19008706  1.0
  C  C391  1  0.74731384  0.28903616  0.69008731  1.0
  C  C392  1  0.08754148  0.26929270  0.37913031  1.0
  C  C393  1  0.91245714  0.23070083  0.87912726  1.0
  C  C394  1  0.91245618  0.73070180  0.62087063  1.0
  C  C395  1  0.08754294  0.76930166  0.12087402  1.0
  N  N396  1  0.58834266  0.82874215  0.56449102  1.0
  N  N397  1  0.41165547  0.67125711  0.06449013  1.0
  N  N398  1  0.41165749  0.17125987  0.43550825  1.0
  N  N399  1  0.58834250  0.32874305  0.93550948  1.0
  N  N400  1  0.68686758  0.74676117  0.82149318  1.0
  N  N401  1  0.31313458  0.75323750  0.32149207  1.0
  N  N402  1  0.31313203  0.25323662  0.17850843  1.0
  N  N403  1  0.68686854  0.24676167  0.67850854  1.0
  N  N404  1  0.22764121  0.77040892  0.81567691  1.0
  N  N405  1  0.77236106  0.72959257  0.31567786  1.0
  N  N406  1  0.77235777  0.22959263  0.18432270  1.0
  N  N407  1  0.22763846  0.27040946  0.68432275  1.0
  N  N408  1  0.87109155  0.36406238  0.45414184  1.0
  N  N409  1  0.12890869  0.13593630  0.95414063  1.0
  N  N410  1  0.12890439  0.63593497  0.54585777  1.0
  N  N411  1  0.87109217  0.86406524  0.04585898  1.0
  N  N412  1  0.40697799  0.57016486  0.80188917  1.0
  N  N413  1  0.59301886  0.92983480  0.30188808  1.0
  N  N414  1  0.59301795  0.42983625  0.19811210  1.0
  N  N415  1  0.40698262  0.07016674  0.69811086  1.0
  N  N416  1  0.10684792  0.72476879  0.80808783  1.0
  N  N417  1  0.89315562  0.77523223  0.30808840  1.0
  N  N418  1  0.89315568  0.27523132  0.19191178  1.0
  N  N419  1  0.10684266  0.22476981  0.69191321  1.0
  N  N420  1  0.56883365  0.89446057  0.50306651  1.0
  N  N421  1  0.43116875  0.60553631  0.00306597  1.0
  N  N422  1  0.43116565  0.10553910  0.49693343  1.0
  N  N423  1  0.56883430  0.39446333  0.99693464  1.0
  N  N424  1  0.94186370  0.31987370  0.39235389  1.0
  N  N425  1  0.05813737  0.18012075  0.89235052  1.0
  N  N426  1  0.05813514  0.68012127  0.60764706  1.0
  N  N427  1  0.94186349  0.81988079  0.10764808  1.0
  O  O428  1  0.69085098  0.47650293  0.74302437  1.0
  O  O429  1  0.30914980  0.02349723  0.24302421  1.0
  O  O430  1  0.30914808  0.52349816  0.25697457  1.0
  O  O431  1  0.69085270  0.97650195  0.75697540  1.0
  O  O432  1  0.79413614  0.57424526  0.78589081  1.0
  O  O433  1  0.20586511  0.92575342  0.28589116  1.0
  O  O434  1  0.20586425  0.42575534  0.21410779  1.0
  O  O435  1  0.79413700  0.07424434  0.71410711  1.0
  O  O436  1  0.63678192  0.65308371  0.80749035  1.0
  O  O437  1  0.36321802  0.84691639  0.30748938  1.0
  O  O438  1  0.36321550  0.34691598  0.19251093  1.0
  O  O439  1  0.63678456  0.15308231  0.69251056  1.0
  O  O440  1  0.66698346  0.61668271  0.71431685  1.0
  O  O441  1  0.33301908  0.88331599  0.21431715  1.0
  O  O442  1  0.33301497  0.38331838  0.28568343  1.0
  O  O443  1  0.66698435  0.11668506  0.78568379  1.0
  O  O444  1  0.33442535  0.98285448  0.33634322  1.0
  O  O445  1  0.66557536  0.51714608  0.83634389  1.0
  O  O446  1  0.66557183  0.01714662  0.66365538  1.0
  O  O447  1  0.33442674  0.48285545  0.16365571  1.0
  O  O448  1  0.53601864  0.55601595  0.76831798  1.0
  O  O449  1  0.46397777  0.94398466  0.26831760  1.0
  O  O450  1  0.46397471  0.44398565  0.23168296  1.0
  O  O451  1  0.53602699  0.05601591  0.73168368  1.0
  O  O452  1  0.25088037  0.14917172  0.29946488  1.0
  O  O453  1  0.74911581  0.35082139  0.79945680  1.0
  O  O454  1  0.74911730  0.85082279  0.70054007  1.0
  O  O455  1  0.25088271  0.64917923  0.20054348  1.0
  O  O456  1  0.57130935  0.86511621  0.74968903  1.0
  O  O457  1  0.42869144  0.63488720  0.24969251  1.0
  O  O458  1  0.42868542  0.13488444  0.25030991  1.0
  O  O459  1  0.57130597  0.36511625  0.75030911  1.0
  O  O460  1  0.52789319  0.93262541  0.80656340  1.0
  O  O461  1  0.47211128  0.56737371  0.30656529  1.0
  O  O462  1  0.47210728  0.06737472  0.19343788  1.0
  O  O463  1  0.52789091  0.43262735  0.69343465  1.0
  O  O464  1  0.59276575  0.56564572  0.66442585  1.0
  O  O465  1  0.40723741  0.93435064  0.16442767  1.0
  O  O466  1  0.40723542  0.43435394  0.33557343  1.0
  O  O467  1  0.59276462  0.06564760  0.83557461  1.0
  O  O468  1  0.68783050  0.43694677  0.63868644  1.0
  O  O469  1  0.31217671  0.06305101  0.13868663  1.0
  O  O470  1  0.31217099  0.56305477  0.36131249  1.0
  O  O471  1  0.68782649  0.93694769  0.86131465  1.0
  O  O472  1  0.88338547  0.51812120  0.73686805  1.0
  O  O473  1  0.11661655  0.98187797  0.23686620  1.0
  O  O474  1  0.11661500  0.48187893  0.26313122  1.0
  O  O475  1  0.88338611  0.01812027  0.76313173  1.0
  O  O476  1  0.82411980  0.43051690  0.66197865  1.0
  O  O477  1  0.17588665  0.06948652  0.16197886  1.0
  O  O478  1  0.17588426  0.56948414  0.33802129  1.0
  O  O479  1  0.82411850  0.93051922  0.83802175  1.0
  O  O480  1  0.14121831  0.12351869  0.25790854  1.0
  O  O481  1  0.85878517  0.37648097  0.75791007  1.0
  O  O482  1  0.85878278  0.87648144  0.74209040  1.0
  O  O483  1  0.14121240  0.62352155  0.24209154  1.0
  O  O484  1  0.41093166  0.06378832  0.33884947  1.0
  O  O485  1  0.58906974  0.43621274  0.83884838  1.0
  O  O486  1  0.58906920  0.93620946  0.66114914  1.0
  O  O487  1  0.41093080  0.56379069  0.16115223  1.0
  O  O488  1  0.54379682  0.79102117  0.49736666  1.0
  O  O489  1  0.45619966  0.70897890  0.99736589  1.0
  O  O490  1  0.45620091  0.20898040  0.50263328  1.0
  O  O491  1  0.54379987  0.29102313  0.00263438  1.0
  O  O492  1  0.21507967  0.70221203  0.75666108  1.0
  O  O493  1  0.78492079  0.79778997  0.25666274  1.0
  O  O494  1  0.78491986  0.29778999  0.24333853  1.0
  O  O495  1  0.21507725  0.20221348  0.74333954  1.0
  O  O496  1  0.01076058  0.32013678  0.46045911  1.0
  O  O497  1  0.98923053  0.17983843  0.96045388  1.0
  O  O498  1  0.98922603  0.67983804  0.53954551  1.0
  O  O499  1  0.01076278  0.82014481  0.03954239  1.0
