# generated using pymatgen
data_CuH8(C2O)5
_symmetry_space_group_name_H-M   'P 1'
_cell_length_a   8.68081175
_cell_length_b   21.90789586
_cell_length_c   21.90792824
_cell_angle_alpha   120.00012188
_cell_angle_beta   90.00006458
_cell_angle_gamma   89.99992982
_symmetry_Int_Tables_number   1
_chemical_formula_structural   CuH8(C2O)5
_chemical_formula_sum   'Cu12 H96 C120 O60'
_cell_volume   3608.21505390
_cell_formula_units_Z   12
loop_
 _symmetry_equiv_pos_site_id
 _symmetry_equiv_pos_as_xyz
  1  'x, y, z'
loop_
 _atom_site_type_symbol
 _atom_site_label
 _atom_site_symmetry_multiplicity
 _atom_site_fract_x
 _atom_site_fract_y
 _atom_site_fract_z
 _atom_site_occupancy
  Cu  Cu0  1  0.60554682  0.41617798  0.46950652  1.0
  Cu  Cu1  1  0.60554754  0.05333160  0.58382842  1.0
  Cu  Cu2  1  0.60554272  0.53049447  0.94666785  1.0
  Cu  Cu3  1  0.89446001  0.46950788  0.41617532  1.0
  Cu  Cu4  1  0.89445023  0.94666718  0.53049602  1.0
  Cu  Cu5  1  0.89445125  0.58382387  0.05332742  1.0
  Cu  Cu6  1  0.39445722  0.58382602  0.53049428  1.0
  Cu  Cu7  1  0.39445189  0.94666685  0.41617133  1.0
  Cu  Cu8  1  0.39445210  0.46950377  0.05332874  1.0
  Cu  Cu9  1  0.10554633  0.53049578  0.58382390  1.0
  Cu  Cu10  1  0.10554690  0.05333525  0.46950530  1.0
  Cu  Cu11  1  0.10554472  0.41617417  0.94666968  1.0
  H  H12  1  0.11179262  0.07706071  0.32817260  1.0
  H  H13  1  0.11179435  0.25111310  0.92294125  1.0
  H  H14  1  0.11180038  0.67182860  0.74888768  1.0
  H  H15  1  0.38820524  0.32817213  0.07706087  1.0
  H  H16  1  0.38820545  0.74888529  0.67182573  1.0
  H  H17  1  0.38820458  0.92293904  0.25111197  1.0
  H  H18  1  0.88820335  0.92293773  0.67182714  1.0
  H  H19  1  0.88820392  0.74888450  0.07705955  1.0
  H  H20  1  0.88820827  0.32817475  0.25111366  1.0
  H  H21  1  0.61179188  0.67182579  0.92293782  1.0
  H  H22  1  0.61180089  0.25111400  0.32817297  1.0
  H  H23  1  0.61179485  0.07705966  0.74888830  1.0
  H  H24  1  0.72006644  0.16453898  0.46642907  1.0
  H  H25  1  0.72006791  0.30189121  0.83546204  1.0
  H  H26  1  0.72007427  0.53357156  0.69810908  1.0
  H  H27  1  0.77993350  0.46642890  0.16453843  1.0
  H  H28  1  0.77993713  0.69810806  0.53356998  1.0
  H  H29  1  0.77993083  0.83545948  0.30188979  1.0
  H  H30  1  0.27993183  0.83546077  0.53356963  1.0
  H  H31  1  0.27993037  0.69810711  0.16453928  1.0
  H  H32  1  0.27993667  0.46642943  0.30189119  1.0
  H  H33  1  0.22006248  0.53357111  0.83546080  1.0
  H  H34  1  0.22007497  0.30189346  0.46643135  1.0
  H  H35  1  0.22006975  0.16453923  0.69811049  1.0
  H  H36  1  0.85707556  0.20585282  0.53670128  1.0
  H  H37  1  0.85708034  0.33085244  0.79415195  1.0
  H  H38  1  0.85708457  0.46330066  0.66914912  1.0
  H  H39  1  0.64292092  0.53669925  0.20585080  1.0
  H  H40  1  0.64292684  0.66914992  0.46329937  1.0
  H  H41  1  0.64291955  0.79414624  0.33084850  1.0
  H  H42  1  0.14292042  0.79414798  0.46329952  1.0
  H  H43  1  0.14292024  0.66914850  0.20585095  1.0
  H  H44  1  0.14292868  0.53670194  0.33084799  1.0
  H  H45  1  0.35707275  0.46329920  0.79414895  1.0
  H  H46  1  0.35708411  0.33085486  0.53670301  1.0
  H  H47  1  0.35708103  0.20585031  0.66915019  1.0
  H  H48  1  0.09390688  0.25759684  0.29772672  1.0
  H  H49  1  0.09390669  0.04013103  0.74240468  1.0
  H  H50  1  0.09390484  0.70227376  0.95986854  1.0
  H  H51  1  0.40609558  0.29772563  0.25759544  1.0
  H  H52  1  0.40609635  0.95986770  0.70227228  1.0
  H  H53  1  0.40608883  0.74240350  0.04012979  1.0
  H  H54  1  0.90609255  0.74240259  0.70227408  1.0
  H  H55  1  0.90609504  0.95986826  0.25759402  1.0
  H  H56  1  0.90609229  0.29772697  0.04013121  1.0
  H  H57  1  0.59390731  0.70227176  0.74240220  1.0
  H  H58  1  0.59390423  0.04013152  0.29772536  1.0
  H  H59  1  0.59390599  0.25759540  0.95986995  1.0
  H  H60  1  0.21934118  0.06723021  0.22199700  1.0
  H  H61  1  0.21934321  0.15476582  0.93277095  1.0
  H  H62  1  0.21934329  0.77800627  0.84523625  1.0
  H  H63  1  0.28065899  0.22199519  0.06723029  1.0
  H  H64  1  0.28065791  0.84523223  0.77800253  1.0
  H  H65  1  0.28065573  0.93277001  0.15476570  1.0
  H  H66  1  0.78065364  0.93276876  0.77800380  1.0
  H  H67  1  0.78065737  0.84523263  0.06722880  1.0
  H  H68  1  0.78065729  0.22199767  0.15476718  1.0
  H  H69  1  0.71934159  0.77800162  0.93276892  1.0
  H  H70  1  0.71934152  0.15476509  0.22199406  1.0
  H  H71  1  0.71934254  0.06722915  0.84523457  1.0
  H  H72  1  0.33410111  0.14380619  0.25143190  1.0
  H  H73  1  0.33409972  0.10762467  0.85619395  1.0
  H  H74  1  0.33410110  0.74857013  0.89237682  1.0
  H  H75  1  0.16590136  0.25143122  0.14380621  1.0
  H  H76  1  0.16590124  0.89237326  0.74856574  1.0
  H  H77  1  0.16589808  0.85619360  0.10762495  1.0
  H  H78  1  0.66589717  0.85619199  0.74856732  1.0
  H  H79  1  0.66590086  0.89237332  0.14380580  1.0
  H  H80  1  0.66589948  0.25143336  0.10762662  1.0
  H  H81  1  0.83410153  0.74856704  0.85619407  1.0
  H  H82  1  0.83409934  0.10762517  0.25143032  1.0
  H  H83  1  0.83410135  0.14380556  0.89237532  1.0
  H  H84  1  0.17174642  0.13089622  0.19702506  1.0
  H  H85  1  0.17174632  0.06612805  0.86910391  1.0
  H  H86  1  0.17174414  0.80297564  0.93387311  1.0
  H  H87  1  0.32825375  0.19702398  0.13089609  1.0
  H  H88  1  0.32825474  0.93387047  0.80297315  1.0
  H  H89  1  0.32825033  0.86910380  0.06612825  1.0
  H  H90  1  0.82825070  0.86910223  0.80297469  1.0
  H  H91  1  0.82825310  0.93386994  0.13089584  1.0
  H  H92  1  0.82825183  0.19702622  0.06612981  1.0
  H  H93  1  0.67174798  0.80297375  0.86910314  1.0
  H  H94  1  0.67174469  0.06612757  0.19702396  1.0
  H  H95  1  0.67174795  0.13089628  0.93387202  1.0
  H  H96  1  0.84735739  0.26086797  0.46902138  1.0
  H  H97  1  0.84735440  0.20815643  0.73913618  1.0
  H  H98  1  0.84735859  0.53098002  0.79184267  1.0
  H  H99  1  0.65264484  0.46902146  0.26086571  1.0
  H  H100  1  0.65264358  0.79184241  0.53097747  1.0
  H  H101  1  0.65264090  0.73913303  0.20815391  1.0
  H  H102  1  0.15264665  0.73913382  0.53098048  1.0
  H  H103  1  0.15264042  0.79184281  0.26086515  1.0
  H  H104  1  0.15264545  0.46902141  0.20815391  1.0
  H  H105  1  0.34734998  0.53097894  0.73913246  1.0
  H  H106  1  0.34736160  0.20815851  0.46902175  1.0
  H  H107  1  0.34735622  0.26086541  0.79184583  1.0
  C  C108  1  0.07409447  0.13036161  0.34385460  1.0
  C  C109  1  0.07409625  0.21349484  0.86964123  1.0
  C  C110  1  0.07410121  0.65614709  0.78650515  1.0
  C  C111  1  0.42590453  0.34385327  0.13036032  1.0
  C  C112  1  0.42590691  0.78650310  0.65614441  1.0
  C  C113  1  0.42590270  0.86963845  0.21349333  1.0
  C  C114  1  0.92590265  0.86963730  0.65614515  1.0
  C  C115  1  0.92590203  0.78650413  0.13035957  1.0
  C  C116  1  0.92590628  0.34385547  0.21349460  1.0
  C  C117  1  0.57409374  0.65614367  0.86963732  1.0
  C  C118  1  0.57410173  0.21349665  0.34385429  1.0
  C  C119  1  0.57409788  0.13035981  0.78650695  1.0
  C  C120  1  0.89648393  0.33525740  0.40651314  1.0
  C  C121  1  0.89648931  0.07125607  0.66474689  1.0
  C  C122  1  0.89648889  0.59349022  0.92874339  1.0
  C  C123  1  0.60350678  0.40650849  0.33525624  1.0
  C  C124  1  0.60350751  0.92874203  0.59348924  1.0
  C  C125  1  0.60350601  0.66474459  0.07125527  1.0
  C  C126  1  0.10351665  0.66474635  0.59349083  1.0
  C  C127  1  0.10350782  0.92874454  0.33525444  1.0
  C  C128  1  0.10350478  0.40650820  0.07125266  1.0
  C  C129  1  0.39648919  0.59349159  0.66474403  1.0
  C  C130  1  0.39648847  0.07125778  0.40651050  1.0
  C  C131  1  0.39648420  0.33525404  0.92874394  1.0
  C  C132  1  0.82519491  0.15586569  0.48908359  1.0
  C  C133  1  0.82519514  0.33321936  0.84413874  1.0
  C  C134  1  0.82520268  0.51091979  0.66678054  1.0
  C  C135  1  0.67480388  0.48908122  0.15586341  1.0
  C  C136  1  0.67481103  0.66678062  0.51091803  1.0
  C  C137  1  0.67480014  0.84413382  0.33321777  1.0
  C  C138  1  0.17480222  0.84413492  0.51091774  1.0
  C  C139  1  0.17480429  0.66677904  0.15586365  1.0
  C  C140  1  0.17480596  0.48908433  0.33321868  1.0
  C  C141  1  0.32519094  0.51091761  0.84413528  1.0
  C  C142  1  0.32519877  0.33322261  0.48908488  1.0
  C  C143  1  0.32519699  0.15586371  0.66678197  1.0
  C  C144  1  0.06315177  0.23106141  0.32691105  1.0
  C  C145  1  0.06315376  0.09585140  0.76894169  1.0
  C  C146  1  0.06315192  0.67309001  0.90414770  1.0
  C  C147  1  0.43685068  0.32691022  0.23106016  1.0
  C  C148  1  0.43685043  0.90414641  0.67308780  1.0
  C  C149  1  0.43684521  0.76893882  0.09584957  1.0
  C  C150  1  0.93684766  0.76893893  0.67308974  1.0
  C  C151  1  0.93685028  0.90414784  0.23105964  1.0
  C  C152  1  0.93684751  0.32691136  0.09585151  1.0
  C  C153  1  0.56315220  0.67308815  0.76893853  1.0
  C  C154  1  0.56315130  0.09585281  0.32690984  1.0
  C  C155  1  0.56315307  0.23105963  0.90415018  1.0
  C  C156  1  0.98053508  0.16580008  0.40389648  1.0
  C  C157  1  0.98053673  0.23809977  0.83420543  1.0
  C  C158  1  0.98054070  0.59610646  0.76190049  1.0
  C  C159  1  0.51946487  0.40389469  0.16579693  1.0
  C  C160  1  0.51946839  0.76189897  0.59610373  1.0
  C  C161  1  0.51946201  0.83420155  0.23809742  1.0
  C  C162  1  0.01946435  0.83420261  0.59610537  1.0
  C  C163  1  0.01946385  0.76190026  0.16579748  1.0
  C  C164  1  0.01946565  0.40389674  0.23809873  1.0
  C  C165  1  0.48053111  0.59610323  0.83420176  1.0
  C  C166  1  0.48054026  0.23810183  0.40389707  1.0
  C  C167  1  0.48053742  0.16579644  0.76190232  1.0
  C  C168  1  0.21514451  0.12390230  0.24028590  1.0
  C  C169  1  0.21514658  0.11638304  0.87609875  1.0
  C  C170  1  0.21514561  0.75971644  0.88361850  1.0
  C  C171  1  0.28485566  0.24028402  0.12390193  1.0
  C  C172  1  0.28485559  0.88361591  0.75971380  1.0
  C  C173  1  0.28485353  0.87609815  0.11638227  1.0
  C  C174  1  0.78485031  0.87609641  0.75971437  1.0
  C  C175  1  0.78485400  0.88361515  0.12390048  1.0
  C  C176  1  0.78485382  0.24028606  0.11638388  1.0
  C  C177  1  0.71514723  0.75971325  0.87609728  1.0
  C  C178  1  0.71514384  0.11638357  0.24028437  1.0
  C  C179  1  0.71514705  0.12390166  0.88361747  1.0
  C  C180  1  0.92487086  0.23290692  0.42456563  1.0
  C  C181  1  0.92487141  0.19166120  0.76709723  1.0
  C  C182  1  0.92487204  0.57543580  0.80833741  1.0
  C  C183  1  0.57512908  0.42456438  0.23290404  1.0
  C  C184  1  0.57513013  0.80833687  0.57543425  1.0
  C  C185  1  0.57512735  0.76709295  0.19165877  1.0
  C  C186  1  0.07513087  0.76709440  0.57543622  1.0
  C  C187  1  0.07512687  0.80833830  0.23290463  1.0
  C  C188  1  0.07513085  0.42456524  0.19166022  1.0
  C  C189  1  0.42486805  0.57543465  0.76709413  1.0
  C  C190  1  0.42487505  0.19166386  0.42456550  1.0
  C  C191  1  0.42487208  0.23290432  0.80834045  1.0
  C  C192  1  0.96643023  0.26512940  0.38550191  1.0
  C  C193  1  0.96642865  0.12037681  0.73487416  1.0
  C  C194  1  0.96642695  0.61449800  0.87962211  1.0
  C  C195  1  0.53357892  0.38550326  0.26512639  1.0
  C  C196  1  0.53357176  0.87962158  0.61449657  1.0
  C  C197  1  0.53356782  0.73487186  0.12037356  1.0
  C  C198  1  0.03357496  0.73487284  0.61449995  1.0
  C  C199  1  0.03357078  0.87962327  0.26512611  1.0
  C  C200  1  0.03357248  0.38550220  0.12037658  1.0
  C  C201  1  0.46642396  0.61449668  0.73487178  1.0
  C  C202  1  0.46642882  0.12037869  0.38550317  1.0
  C  C203  1  0.46642931  0.26512632  0.87962566  1.0
  C  C204  1  0.11612270  0.16254033  0.30505758  1.0
  C  C205  1  0.11612464  0.14252050  0.83746403  1.0
  C  C206  1  0.11612613  0.69494360  0.85747940  1.0
  C  C207  1  0.38387861  0.30505731  0.16253786  1.0
  C  C208  1  0.38387853  0.85747769  0.69494162  1.0
  C  C209  1  0.38387432  0.83746238  0.14251909  1.0
  C  C210  1  0.88387328  0.83746158  0.69494270  1.0
  C  C211  1  0.88387825  0.85747795  0.16253572  1.0
  C  C212  1  0.88387676  0.30505856  0.14252140  1.0
  C  C213  1  0.61612312  0.69494126  0.83746030  1.0
  C  C214  1  0.61612435  0.14252180  0.30505655  1.0
  C  C215  1  0.61612511  0.16253751  0.85748172  1.0
  C  C216  1  0.79114751  0.10184918  0.51178966  1.0
  C  C217  1  0.79115105  0.40994179  0.89815720  1.0
  C  C218  1  0.79114128  0.48821291  0.59005862  1.0
  C  C219  1  0.70885473  0.51178728  0.10184669  1.0
  C  C220  1  0.70885056  0.59005746  0.48821278  1.0
  C  C221  1  0.70884652  0.89815169  0.40994133  1.0
  C  C222  1  0.20885076  0.89815234  0.48821167  1.0
  C  C223  1  0.20884608  0.59005588  0.10184465  1.0
  C  C224  1  0.20886391  0.51179356  0.40994165  1.0
  C  C225  1  0.29113548  0.48821011  0.89815094  1.0
  C  C226  1  0.29115348  0.40994444  0.51178748  1.0
  C  C227  1  0.29114945  0.10184591  0.59005947  1.0
  O  O228  1  0.77884750  0.35161153  0.44634013  1.0
  O  O229  1  0.77884242  0.09473171  0.64839404  1.0
  O  O230  1  0.77883517  0.55365853  0.90526341  1.0
  O  O231  1  0.72116971  0.44633981  0.35160656  1.0
  O  O232  1  0.72115777  0.90526665  0.55366118  1.0
  O  O233  1  0.72115290  0.64839046  0.09472675  1.0
  O  O234  1  0.22115999  0.64839366  0.55366489  1.0
  O  O235  1  0.22115471  0.90526851  0.35160834  1.0
  O  O236  1  0.22116310  0.44633604  0.09472949  1.0
  O  O237  1  0.27883318  0.55366020  0.64839266  1.0
  O  O238  1  0.27884165  0.09473664  0.44634278  1.0
  O  O239  1  0.27884307  0.35160823  0.90526984  1.0
  O  O240  1  0.94691045  0.13027913  0.43894498  1.0
  O  O241  1  0.94690849  0.30866911  0.86972637  1.0
  O  O242  1  0.94691476  0.56105810  0.69133104  1.0
  O  O243  1  0.55309180  0.43894137  0.13027459  1.0
  O  O244  1  0.55309779  0.69132913  0.56105558  1.0
  O  O245  1  0.55308679  0.86972144  0.30866688  1.0
  O  O246  1  0.05309013  0.86972266  0.56105688  1.0
  O  O247  1  0.05308979  0.69132994  0.13027549  1.0
  O  O248  1  0.05309273  0.43894681  0.30866977  1.0
  O  O249  1  0.44690532  0.56105557  0.86972305  1.0
  O  O250  1  0.44691431  0.30867246  0.43894680  1.0
  O  O251  1  0.44691148  0.13027537  0.69133233  1.0
  O  O252  1  0.66059178  0.11088877  0.54163341  1.0
  O  O253  1  0.66058257  0.43074463  0.88911534  1.0
  O  O254  1  0.66059820  0.45837344  0.56925880  1.0
  O  O255  1  0.83940470  0.54163021  0.11088601  1.0
  O  O256  1  0.83942128  0.56925503  0.45836638  1.0
  O  O257  1  0.83940578  0.88911072  0.43074583  1.0
  O  O258  1  0.33940419  0.88911085  0.45836686  1.0
  O  O259  1  0.33941225  0.56925266  0.11088757  1.0
  O  O260  1  0.33940699  0.54163670  0.43074516  1.0
  O  O261  1  0.16058666  0.45836927  0.88911215  1.0
  O  O262  1  0.16058045  0.43074563  0.54163231  1.0
  O  O263  1  0.16058904  0.11088775  0.56925761  1.0
  O  O264  1  0.95675470  0.37202443  0.38258106  1.0
  O  O265  1  0.95675330  0.01056173  0.62798262  1.0
  O  O266  1  0.95674598  0.61741734  0.98943397  1.0
  O  O267  1  0.54325329  0.38258604  0.37202090  1.0
  O  O268  1  0.54324580  0.98943562  0.61741831  1.0
  O  O269  1  0.54323858  0.62797830  0.01055837  1.0
  O  O270  1  0.04325164  0.62797917  0.61742078  1.0
  O  O271  1  0.04324959  0.98943986  0.37201977  1.0
  O  O272  1  0.04324308  0.38258234  0.01056368  1.0
  O  O273  1  0.45674729  0.61741757  0.62798096  1.0
  O  O274  1  0.45674556  0.01056393  0.38258091  1.0
  O  O275  1  0.45675163  0.37201936  0.98943980  1.0
  O  O276  1  0.88703261  0.05419980  0.50213315  1.0
  O  O277  1  0.88702343  0.44793293  0.94580440  1.0
  O  O278  1  0.88703431  0.49787240  0.55206324  1.0
  O  O279  1  0.61296503  0.50212860  0.05419533  1.0
  O  O280  1  0.61298171  0.55206687  0.49786915  1.0
  O  O281  1  0.61296607  0.94580027  0.44793206  1.0
  O  O282  1  0.11296682  0.94580343  0.49786977  1.0
  O  O283  1  0.11297369  0.55206605  0.05419640  1.0
  O  O284  1  0.11296972  0.50213518  0.44793651  1.0
  O  O285  1  0.38702633  0.49786678  0.94580284  1.0
  O  O286  1  0.38702002  0.44793609  0.50213323  1.0
  O  O287  1  0.38702760  0.05419628  0.55206663  1.0
