# generated using pymatgen
data_Al2H6C16S2ClO10F
_symmetry_space_group_name_H-M   'P 1'
_cell_length_a   6.64219726
_cell_length_b   11.10074833
_cell_length_c   12.74658182
_cell_angle_alpha   90.69499846
_cell_angle_beta   105.01503531
_cell_angle_gamma   106.89921044
_symmetry_Int_Tables_number   1
_chemical_formula_structural   Al2H6C16S2ClO10F
_chemical_formula_sum   'Al2 H6 C16 S2 Cl1 O10 F1'
_cell_volume   864.66414073
_cell_formula_units_Z   1
loop_
 _symmetry_equiv_pos_site_id
 _symmetry_equiv_pos_as_xyz
  1  'x, y, z'
loop_
 _atom_site_type_symbol
 _atom_site_label
 _atom_site_symmetry_multiplicity
 _atom_site_fract_x
 _atom_site_fract_y
 _atom_site_fract_z
 _atom_site_occupancy
  Al  Al0  1  0.00478300  0.50189103  0.50452305  1.0
  Al  Al1  1  0.50015589  0.49651937  0.49969220  1.0
  H  H2  1  0.36893754  0.65165660  0.56805673  1.0
  H  H3  1  0.65889568  0.42218986  0.37045087  1.0
  H  H4  1  0.34492921  0.11415342  0.46075881  1.0
  H  H5  1  0.76942700  0.12618931  0.55137396  1.0
  H  H6  1  0.22390345  0.87772635  0.45954534  1.0
  H  H7  1  0.24742484  0.57424646  0.85585664  1.0
  C  C8  1  0.83484106  0.49398846  0.69535826  1.0
  C  C9  1  0.86876733  0.72773116  0.50309264  1.0
  C  C10  1  0.15781933  0.49676391  0.30500023  1.0
  C  C11  1  0.13300673  0.27481776  0.50548885  1.0
  C  C12  1  0.93068877  0.86841137  0.50409876  1.0
  C  C13  1  0.06447712  0.13416723  0.50546313  1.0
  C  C14  1  0.80600079  0.94163892  0.52969289  1.0
  C  C15  1  0.19318310  0.06425719  0.47971523  1.0
  C  C16  1  0.86958822  0.07233117  0.53076725  1.0
  C  C17  1  0.12590712  0.93354959  0.47909862  1.0
  C  C18  1  0.88086599  0.44885093  0.11345845  1.0
  C  C19  1  0.10334799  0.53566008  0.88476983  1.0
  C  C20  1  0.08890672  0.49544075  0.18577035  1.0
  C  C21  1  0.89478236  0.49185443  0.81454797  1.0
  C  C22  1  0.09783072  0.52205498  0.99409171  1.0
  C  C23  1  0.88502743  0.46543855  0.00408833  1.0
  S  S24  1  0.28939012  0.55664246  0.11931575  1.0
  S  S25  1  0.69093507  0.43265254  0.87973463  1.0
  Cl  Cl26  1  0.64466203  0.37242408  0.14613378  1.0
  O  O27  1  0.99139868  0.52399628  0.65085154  1.0
  O  O28  1  0.68500048  0.67015223  0.51914429  1.0
  O  O29  1  0.36263703  0.51757971  0.34917715  1.0
  O  O30  1  0.00631354  0.33206742  0.52723874  1.0
  O  O31  1  0.00912618  0.47687846  0.35445952  1.0
  O  O32  1  0.31159501  0.32675427  0.48194195  1.0
  O  O33  1  0.63177843  0.46769196  0.64629633  1.0
  O  O34  1  0.00760872  0.67566924  0.48719425  1.0
  O  O35  1  0.30856852  0.56079059  0.54989289  1.0
  O  O36  1  0.70042826  0.44267791  0.44894951  1.0
  F  F37  1  0.61529844  0.88678004  0.55557184  1.0
