# generated using pymatgen
data_ZnH21C32N5O8
_symmetry_space_group_name_H-M   'P 1'
_cell_length_a   16.51510172
_cell_length_b   16.51510950
_cell_length_c   26.00006764
_cell_angle_alpha   89.99989048
_cell_angle_beta   90.00011181
_cell_angle_gamma   120.00268556
_symmetry_Int_Tables_number   1
_chemical_formula_structural   ZnH21C32N5O8
_chemical_formula_sum   'Zn6 H126 C192 N30 O48'
_cell_volume   6141.23995326
_cell_formula_units_Z   6
loop_
 _symmetry_equiv_pos_site_id
 _symmetry_equiv_pos_as_xyz
  1  'x, y, z'
loop_
 _atom_site_type_symbol
 _atom_site_label
 _atom_site_symmetry_multiplicity
 _atom_site_fract_x
 _atom_site_fract_y
 _atom_site_fract_z
 _atom_site_occupancy
  Zn  Zn0  1  0.28336091  0.71663609  0.99999896  1.0
  Zn  Zn1  1  0.43323368  0.71660974  0.66666667  1.0
  Zn  Zn2  1  0.28339553  0.56676587  0.33333333  1.0
  Zn  Zn3  1  0.71664164  0.28336396  0.99999888  1.0
  Zn  Zn4  1  0.56676445  0.28338956  0.66666667  1.0
  Zn  Zn5  1  0.71660356  0.43323618  0.33333333  1.0
  H  H6  1  0.33048155  0.66096402  0.83334022  1.0
  H  H7  1  0.33048434  0.66950912  0.49999955  1.0
  H  H8  1  0.33903878  0.66952437  0.16666003  1.0
  H  H9  1  0.66951511  0.33903495  0.83334233  1.0
  H  H10  1  0.66951491  0.33048980  0.50000012  1.0
  H  H11  1  0.66096048  0.33047662  0.16665945  1.0
  H  H12  1  0.17572501  0.39940901  0.91461277  1.0
  H  H13  1  0.22366137  0.82425035  0.58124879  1.0
  H  H14  1  0.60060308  0.77634211  0.24789223  1.0
  H  H15  1  0.82427918  0.60059121  0.91461282  1.0
  H  H16  1  0.77633554  0.17574703  0.58124969  1.0
  H  H17  1  0.39939295  0.22365312  0.24788875  1.0
  H  H18  1  0.77633608  0.60058866  0.75210014  1.0
  H  H19  1  0.39941647  0.17572956  0.08537421  1.0
  H  H20  1  0.82425097  0.22367361  0.41873973  1.0
  H  H21  1  0.22366551  0.39940978  0.75210014  1.0
  H  H22  1  0.60058558  0.82427508  0.08537878  1.0
  H  H23  1  0.17574811  0.77632548  0.41873844  1.0
  H  H24  1  0.35302958  0.90028824  0.05812865  1.0
  H  H25  1  0.54725079  0.64695061  0.72481026  1.0
  H  H26  1  0.09974443  0.45278903  0.39147482  1.0
  H  H27  1  0.64697118  0.09971156  0.05812909  1.0
  H  H28  1  0.45274781  0.35304927  0.72481054  1.0
  H  H29  1  0.90025590  0.54721151  0.39147465  1.0
  H  H30  1  0.45278328  0.09973859  0.60852216  1.0
  H  H31  1  0.90029349  0.35302348  0.94186872  1.0
  H  H32  1  0.64695031  0.54725576  0.27518710  1.0
  H  H33  1  0.54721585  0.90025943  0.60852272  1.0
  H  H34  1  0.09970910  0.64697458  0.94186711  1.0
  H  H35  1  0.35304884  0.45274919  0.27518797  1.0
  H  H36  1  0.41661861  0.06789646  0.03514403  1.0
  H  H37  1  0.65129075  0.58338389  0.70181982  1.0
  H  H38  1  0.93212823  0.34873889  0.36848908  1.0
  H  H39  1  0.58338053  0.93210267  0.03514383  1.0
  H  H40  1  0.34870650  0.41661465  0.70181957  1.0
  H  H41  1  0.06787171  0.65126100  0.36848935  1.0
  H  H42  1  0.34873364  0.93212297  0.63150790  1.0
  H  H43  1  0.06790294  0.41661513  0.96485487  1.0
  H  H44  1  0.58338278  0.65129607  0.29817524  1.0
  H  H45  1  0.65126553  0.06787499  0.63150801  1.0
  H  H46  1  0.93209954  0.58338499  0.96485200  1.0
  H  H47  1  0.41662120  0.34871234  0.29817510  1.0
  H  H48  1  0.38950496  0.98562289  0.87530341  1.0
  H  H49  1  0.59610867  0.61049788  0.54197502  1.0
  H  H50  1  0.01437275  0.40387732  0.20865142  1.0
  H  H51  1  0.61049491  0.01437740  0.87530353  1.0
  H  H52  1  0.40389207  0.38950376  0.54197481  1.0
  H  H53  1  0.98562772  0.59612219  0.20865130  1.0
  H  H54  1  0.40387720  0.01436767  0.79134555  1.0
  H  H55  1  0.98562591  0.38950183  0.12469472  1.0
  H  H56  1  0.61049532  0.59611662  0.45802157  1.0
  H  H57  1  0.59612603  0.98563139  0.79134568  1.0
  H  H58  1  0.01437317  0.61049784  0.12469229  1.0
  H  H59  1  0.38950368  0.40388449  0.45802178  1.0
  H  H60  1  0.32956484  0.82395227  0.90435532  1.0
  H  H61  1  0.49440694  0.67045812  0.57103408  1.0
  H  H62  1  0.17605834  0.50561559  0.23768831  1.0
  H  H63  1  0.67043509  0.17604797  0.90435571  1.0
  H  H64  1  0.50559325  0.32954347  0.57103484  1.0
  H  H65  1  0.82394142  0.49438596  0.23768811  1.0
  H  H66  1  0.50561365  0.17605411  0.76230790  1.0
  H  H67  1  0.82395530  0.32956449  0.09564166  1.0
  H  H68  1  0.67045584  0.49441445  0.42896367  1.0
  H  H69  1  0.49438650  0.82394501  0.76230887  1.0
  H  H70  1  0.17604442  0.67043663  0.09564089  1.0
  H  H71  1  0.32954249  0.50558671  0.42896406  1.0
  H  H72  1  0.41396811  0.25171066  0.81346458  1.0
  H  H73  1  0.83774979  0.58602931  0.48016012  1.0
  H  H74  1  0.74827396  0.16226914  0.14682004  1.0
  H  H75  1  0.58603293  0.74829114  0.81346461  1.0
  H  H76  1  0.16224630  0.41396826  0.48016042  1.0
  H  H77  1  0.25172793  0.83773117  0.14681993  1.0
  H  H78  1  0.16226696  0.74827188  0.85318117  1.0
  H  H79  1  0.25171434  0.41397447  0.18653355  1.0
  H  H80  1  0.58602157  0.83774620  0.51983878  1.0
  H  H81  1  0.83773251  0.25172775  0.85318167  1.0
  H  H82  1  0.74828674  0.58602157  0.18653314  1.0
  H  H83  1  0.41397791  0.16225549  0.51983771  1.0
  H  H84  1  0.43719640  0.41322505  0.80675567  1.0
  H  H85  1  0.97601693  0.56278439  0.47343717  1.0
  H  H86  1  0.58676081  0.02398851  0.14010389  1.0
  H  H87  1  0.56280463  0.58677677  0.80675587  1.0
  H  H88  1  0.02397914  0.43721318  0.47343764  1.0
  H  H89  1  0.41323925  0.97601182  0.14010342  1.0
  H  H90  1  0.02398728  0.58675926  0.85989655  1.0
  H  H91  1  0.41322897  0.43719958  0.19324131  1.0
  H  H92  1  0.56277686  0.97601412  0.52656251  1.0
  H  H93  1  0.97601195  0.41324107  0.85989702  1.0
  H  H94  1  0.58677178  0.56279575  0.19324111  1.0
  H  H95  1  0.43722143  0.02398756  0.52656202  1.0
  H  H96  1  0.55401579  0.47275483  0.95915185  1.0
  H  H97  1  0.91875076  0.44597360  0.62583257  1.0
  H  H98  1  0.52723017  0.08126000  0.29251111  1.0
  H  H99  1  0.44598244  0.52724531  0.95915197  1.0
  H  H100  1  0.08124798  0.55402718  0.62583221  1.0
  H  H101  1  0.47276954  0.91874353  0.29251195  1.0
  H  H102  1  0.08125827  0.52723073  0.70748817  1.0
  H  H103  1  0.47275530  0.55401603  0.04084436  1.0
  H  H104  1  0.44597351  0.91875671  0.37416518  1.0
  H  H105  1  0.91874262  0.47276779  0.70748773  1.0
  H  H106  1  0.52724472  0.44598240  0.04084385  1.0
  H  H107  1  0.55402532  0.08124457  0.37416592  1.0
  H  H108  1  0.52862003  0.31362531  0.96684422  1.0
  H  H109  1  0.78502895  0.47139662  0.63354284  1.0
  H  H110  1  0.68639128  0.21500144  0.30020457  1.0
  H  H111  1  0.47137822  0.68637481  0.96684379  1.0
  H  H112  1  0.21496981  0.52860415  0.63354268  1.0
  H  H113  1  0.31360965  0.78500207  0.30020575  1.0
  H  H114  1  0.21499857  0.68639186  0.69979548  1.0
  H  H115  1  0.31362672  0.52862280  0.03315276  1.0
  H  H116  1  0.47139660  0.78503427  0.36645337  1.0
  H  H117  1  0.78500110  0.31360668  0.69979584  1.0
  H  H118  1  0.68637363  0.47137634  0.03315165  1.0
  H  H119  1  0.52860533  0.21496841  0.36645353  1.0
  H  H120  1  0.46362993  0.17906207  0.97149463  1.0
  H  H121  1  0.71542430  0.53637232  0.63816621  1.0
  H  H122  1  0.82094942  0.28458476  0.30486306  1.0
  H  H123  1  0.53636857  0.82093733  0.97149451  1.0
  H  H124  1  0.28457377  0.46362704  0.63816544  1.0
  H  H125  1  0.17905124  0.71541455  0.30486301  1.0
  H  H126  1  0.28457953  0.82094403  0.69513623  1.0
  H  H127  1  0.17906526  0.46362966  0.02850350  1.0
  H  H128  1  0.53636985  0.71543051  0.36183039  1.0
  H  H129  1  0.71541987  0.17905521  0.69513628  1.0
  H  H130  1  0.82093422  0.53637019  0.02850132  1.0
  H  H131  1  0.46363095  0.28457358  0.36182961  1.0
  C  C132  1  0.26151212  0.58363679  0.92975459  1.0
  C  C133  1  0.32212347  0.73846828  0.59639656  1.0
  C  C134  1  0.41639782  0.67790544  0.26305790  1.0
  C  C135  1  0.73849185  0.41636410  0.92975515  1.0
  C  C136  1  0.67787277  0.26152767  0.59639723  1.0
  C  C137  1  0.58359731  0.32209396  0.26305685  1.0
  C  C138  1  0.67789706  0.41638780  0.73693985  1.0
  C  C139  1  0.58364526  0.26151512  0.07024123  1.0
  C  C140  1  0.73846683  0.32213299  0.40359927  1.0
  C  C141  1  0.32210096  0.58361206  0.73693898  1.0
  C  C142  1  0.41635806  0.73849094  0.07024260  1.0
  C  C143  1  0.26153413  0.67786753  0.40359937  1.0
  C  C144  1  0.25352869  0.53584784  0.87921590  1.0
  C  C145  1  0.28231656  0.74645896  0.54586127  1.0
  C  C146  1  0.46415846  0.71769686  0.21251304  1.0
  C  C147  1  0.74647179  0.46415244  0.87921680  1.0
  C  C148  1  0.71768087  0.25353848  0.54586162  1.0
  C  C149  1  0.53583994  0.28230333  0.21251082  1.0
  C  C150  1  0.71768827  0.46414755  0.78748356  1.0
  C  C151  1  0.53585398  0.25353255  0.12077684  1.0
  C  C152  1  0.74645930  0.28232561  0.45413301  1.0
  C  C153  1  0.28231011  0.53585152  0.78748231  1.0
  C  C154  1  0.46414789  0.74647272  0.12077942  1.0
  C  C155  1  0.25353900  0.71767411  0.45413267  1.0
  C  C156  1  0.29240112  0.58482565  0.83334678  1.0
  C  C157  1  0.29241563  0.70757956  0.49999873  1.0
  C  C158  1  0.41517742  0.70760280  0.16665160  1.0
  C  C159  1  0.70759771  0.41517403  0.83334769  1.0
  C  C160  1  0.70758267  0.29241868  0.49999940  1.0
  C  C161  1  0.58482228  0.29240028  0.16664981  1.0
  C  C162  1  0.20485102  0.43802178  0.87914785  1.0
  C  C163  1  0.23316718  0.79513157  0.54578891  1.0
  C  C164  1  0.56198055  0.76684403  0.21243461  1.0
  C  C165  1  0.79515214  0.56197781  0.87914831  1.0
  C  C166  1  0.76683025  0.20486586  0.54578899  1.0
  C  C167  1  0.43801689  0.23315546  0.21243079  1.0
  C  C168  1  0.76684013  0.56197013  0.78755968  1.0
  C  C169  1  0.43802755  0.20485384  0.12084181  1.0
  C  C170  1  0.79513383  0.23317683  0.45420230  1.0
  C  C171  1  0.23316319  0.43803033  0.78755888  1.0
  C  C172  1  0.56197422  0.79515003  0.12084560  1.0
  C  C173  1  0.20486567  0.76682288  0.45420145  1.0
  C  C174  1  0.19543417  0.39088513  0.83335261  1.0
  C  C175  1  0.19544281  0.80454794  0.49999323  1.0
  C  C176  1  0.60911776  0.80457002  0.16663704  1.0
  C  C177  1  0.80456734  0.60911385  0.83335379  1.0
  C  C178  1  0.80455488  0.19545028  0.49999414  1.0
  C  C179  1  0.39088131  0.19542816  0.16663244  1.0
  C  C180  1  0.36263601  0.92255207  0.01801528  1.0
  C  C181  1  0.55991653  0.63736305  0.68469538  1.0
  C  C182  1  0.07746234  0.44010660  0.35135607  1.0
  C  C183  1  0.63736501  0.07744850  0.01801497  1.0
  C  C184  1  0.44008139  0.36263693  0.68469563  1.0
  C  C185  1  0.92253791  0.55989402  0.35135630  1.0
  C  C186  1  0.44010118  0.07745720  0.64864013  1.0
  C  C187  1  0.92255516  0.36263159  0.98198247  1.0
  C  C188  1  0.63736254  0.55992195  0.31530121  1.0
  C  C189  1  0.55989899  0.92254144  0.64864107  1.0
  C  C190  1  0.07744605  0.63736710  0.98198085  1.0
  C  C191  1  0.36263721  0.44008153  0.31530134  1.0
  C  C192  1  0.39772781  0.01544083  0.00516297  1.0
  C  C193  1  0.61768786  0.60224290  0.67183871  1.0
  C  C194  1  0.98456815  0.38232513  0.33850456  1.0
  C  C195  1  0.60227128  0.98455838  0.00516312  1.0
  C  C196  1  0.38231063  0.39775709  0.67183853  1.0
  C  C197  1  0.01543233  0.61767482  0.33850480  1.0
  C  C198  1  0.38232168  0.98456364  0.66149127  1.0
  C  C199  1  0.01544500  0.39772302  0.99483477  1.0
  C  C200  1  0.60224195  0.61769430  0.32815750  1.0
  C  C201  1  0.61767852  0.01543498  0.66149179  1.0
  C  C202  1  0.98455658  0.60227633  0.99483271  1.0
  C  C203  1  0.39776044  0.38231196  0.32815691  1.0
  C  C204  1  0.40853085  0.04168839  0.95280127  1.0
  C  C205  1  0.63314942  0.59146539  0.61947694  1.0
  C  C206  1  0.95830765  0.36684375  0.28614584  1.0
  C  C207  1  0.59146857  0.95831175  0.95280105  1.0
  C  C208  1  0.36684992  0.40853541  0.61947673  1.0
  C  C209  1  0.04169323  0.63315490  0.28614610  1.0
  C  C210  1  0.36684209  0.95830168  0.71384961  1.0
  C  C211  1  0.04169229  0.40852851  0.04719724  1.0
  C  C212  1  0.59146241  0.63315509  0.38051850  1.0
  C  C213  1  0.63315908  0.04169614  0.71385011  1.0
  C  C214  1  0.95830844  0.59147130  0.04719478  1.0
  C  C215  1  0.40853878  0.36684967  0.38051833  1.0
  C  C216  1  0.38354163  0.97070552  0.91603101  1.0
  C  C217  1  0.58714785  0.61644978  0.58270683  1.0
  C  C218  1  0.02929420  0.41285035  0.24937324  1.0
  C  C219  1  0.61645737  0.02929400  0.91603112  1.0
  C  C220  1  0.41285227  0.38355038  0.58270702  1.0
  C  C221  1  0.97070634  0.58714906  0.24937350  1.0
  C  C222  1  0.41284770  0.02928792  0.75062296  1.0
  C  C223  1  0.97070976  0.38354018  0.08396713  1.0
  C  C224  1  0.61644948  0.58715604  0.41728938  1.0
  C  C225  1  0.58715354  0.97070982  0.75062387  1.0
  C  C226  1  0.02929174  0.61646095  0.08396509  1.0
  C  C227  1  0.38355049  0.41284725  0.41728957  1.0
  C  C228  1  0.34918489  0.87963677  0.93243254  1.0
  C  C229  1  0.53044670  0.65081260  0.59911212  1.0
  C  C230  1  0.12037314  0.46956673  0.26577207  1.0
  C  C231  1  0.65081605  0.12036410  0.93243219  1.0
  C  C232  1  0.46955295  0.34918894  0.59911281  1.0
  C  C233  1  0.87962693  0.53043406  0.26577267  1.0
  C  C234  1  0.46956408  0.12036776  0.73422413  1.0
  C  C235  1  0.87964073  0.34918104  0.06756560  1.0
  C  C236  1  0.65080987  0.53045217  0.40088409  1.0
  C  C237  1  0.53043687  0.87963071  0.73422509  1.0
  C  C238  1  0.12036030  0.65081803  0.06756363  1.0
  C  C239  1  0.34918876  0.46954975  0.40088455  1.0
  C  C240  1  0.44539965  0.17161670  0.89212022  1.0
  C  C241  1  0.72623931  0.55461100  0.55880333  1.0
  C  C242  1  0.82838797  0.27377211  0.22547482  1.0
  C  C243  1  0.55460156  0.82838496  0.89212049  1.0
  C  C244  1  0.27375729  0.44538711  0.55880296  1.0
  C  C245  1  0.17161460  0.72622666  0.22547436  1.0
  C  C246  1  0.27377399  0.82838582  0.77452485  1.0
  C  C247  1  0.17162113  0.44540435  0.10787791  1.0
  C  C248  1  0.55460459  0.72624037  0.44119327  1.0
  C  C249  1  0.72622946  0.17161257  0.77452493  1.0
  C  C250  1  0.82838103  0.55459674  0.10787611  1.0
  C  C251  1  0.44539507  0.27376216  0.44119325  1.0
  C  C252  1  0.46731791  0.27092083  0.89054363  1.0
  C  C253  1  0.80363619  0.53271525  0.55724032  1.0
  C  C254  1  0.72908373  0.19638191  0.22391212  1.0
  C  C255  1  0.53268139  0.72907944  0.89054362  1.0
  C  C256  1  0.19636197  0.46728357  0.55724021  1.0
  C  C257  1  0.27091711  0.80361825  0.22391207  1.0
  C  C258  1  0.19638058  0.72908438  0.77608909  1.0
  C  C259  1  0.27092520  0.46732239  0.10945296  1.0
  C  C260  1  0.53271114  0.80363635  0.44275705  1.0
  C  C261  1  0.80361995  0.27091541  0.77608991  1.0
  C  C262  1  0.72907583  0.53267521  0.10945259  1.0
  C  C263  1  0.46729000  0.19636549  0.44275677  1.0
  C  C264  1  0.44483491  0.30135380  0.84506026  1.0
  C  C265  1  0.85653324  0.55517394  0.51175738  1.0
  C  C266  1  0.69864513  0.14348758  0.17842532  1.0
  C  C267  1  0.55516499  0.69864795  0.84506069  1.0
  C  C268  1  0.14346326  0.44482426  0.51175684  1.0
  C  C269  1  0.30135527  0.85651198  0.17842525  1.0
  C  C270  1  0.14348667  0.69864446  0.82157550  1.0
  C  C271  1  0.30135573  0.44483870  0.15493672  1.0
  C  C272  1  0.55516855  0.85653187  0.48824114  1.0
  C  C273  1  0.85651395  0.30135524  0.82157596  1.0
  C  C274  1  0.69864504  0.55515811  0.15493590  1.0
  C  C275  1  0.44482991  0.14346918  0.48824051  1.0
  C  C276  1  0.45846929  0.39136269  0.84138868  1.0
  C  C277  1  0.93290048  0.54153278  0.50807706  1.0
  C  C278  1  0.60863196  0.06711496  0.17474379  1.0
  C  C279  1  0.54153120  0.60863906  0.84138844  1.0
  C  C280  1  0.06709541  0.45846544  0.50807757  1.0
  C  C281  1  0.39136878  0.93288530  0.17474373  1.0
  C  C282  1  0.06711325  0.60863175  0.82525704  1.0
  C  C283  1  0.39136552  0.45847181  0.15860791  1.0
  C  C284  1  0.54152711  0.93289887  0.49192223  1.0
  C  C285  1  0.93288556  0.39136794  0.82525710  1.0
  C  C286  1  0.60863482  0.54152290  0.15860777  1.0
  C  C287  1  0.45847136  0.06710218  0.49192210  1.0
  C  C288  1  0.49518063  0.45324176  0.88316394  1.0
  C  C289  1  0.95806822  0.50483656  0.54985930  1.0
  C  C290  1  0.54675938  0.04194109  0.21652096  1.0
  C  C291  1  0.50481900  0.54675921  0.88316412  1.0
  C  C292  1  0.04192750  0.49516227  0.54985934  1.0
  C  C293  1  0.45324215  0.95806049  0.21652095  1.0
  C  C294  1  0.04193942  0.54675790  0.78347986  1.0
  C  C295  1  0.45324272  0.49518088  0.11683150  1.0
  C  C296  1  0.50483497  0.95807076  0.45013961  1.0
  C  C297  1  0.95806017  0.45324118  0.78347988  1.0
  C  C298  1  0.54675701  0.50481530  0.11683094  1.0
  C  C299  1  0.49516472  0.04193177  0.45013955  1.0
  C  C300  1  0.52107374  0.42341648  0.92764232  1.0
  C  C301  1  0.90235171  0.47893709  0.59433686  1.0
  C  C302  1  0.57657676  0.09764613  0.26100660  1.0
  C  C303  1  0.47892503  0.57658371  0.92764243  1.0
  C  C304  1  0.09764627  0.52106236  0.59433617  1.0
  C  C305  1  0.42342399  0.90235605  0.26100739  1.0
  C  C306  1  0.09764369  0.57657701  0.73899384  1.0
  C  C307  1  0.42341825  0.52107453  0.07235350  1.0
  C  C308  1  0.47893693  0.90235463  0.40566128  1.0
  C  C309  1  0.90235640  0.42342214  0.73899344  1.0
  C  C310  1  0.57658174  0.47892243  0.07235263  1.0
  C  C311  1  0.52106317  0.09764658  0.40566080  1.0
  C  C312  1  0.50696980  0.33348937  0.93169351  1.0
  C  C313  1  0.82652848  0.49304742  0.59839102  1.0
  C  C314  1  0.66651393  0.17347198  0.26506006  1.0
  C  C315  1  0.49302897  0.66651081  0.93169353  1.0
  C  C316  1  0.17347011  0.50695201  0.59839045  1.0
  C  C317  1  0.33348613  0.82652880  0.26506006  1.0
  C  C318  1  0.17347133  0.66651420  0.73494038  1.0
  C  C319  1  0.33349237  0.50697227  0.06830308  1.0
  C  C320  1  0.49304596  0.82653162  0.40160673  1.0
  C  C321  1  0.82652902  0.33348428  0.73494038  1.0
  C  C322  1  0.66650892  0.49302611  0.06830230  1.0
  C  C323  1  0.50695570  0.17347030  0.40160653  1.0
  N  N324  1  0.14380940  0.28764587  0.83334072  1.0
  N  N325  1  0.14382494  0.85615988  0.49999047  1.0
  N  N326  1  0.71235817  0.85620015  0.16664515  1.0
  N  N327  1  0.85619427  0.71235381  0.83333952  1.0
  N  N328  1  0.85617431  0.14383905  0.49999151  1.0
  N  N329  1  0.28764001  0.14379383  0.16664125  1.0
  N  N330  1  0.33828153  0.85451881  0.98248588  1.0
  N  N331  1  0.51621777  0.66170480  0.64916466  1.0
  N  N332  1  0.14549310  0.48380492  0.31582502  1.0
  N  N333  1  0.66171917  0.14548128  0.98248590  1.0
  N  N334  1  0.48378163  0.33829593  0.64916500  1.0
  N  N335  1  0.85450708  0.51619577  0.31582522  1.0
  N  N336  1  0.48380149  0.14548721  0.68417118  1.0
  N  N337  1  0.85452240  0.33827868  0.01751187  1.0
  N  N338  1  0.66170371  0.51622265  0.35083193  1.0
  N  N339  1  0.51619814  0.85451136  0.68417215  1.0
  N  N340  1  0.14547913  0.66172050  0.01751069  1.0
  N  N341  1  0.33829541  0.48377936  0.35083236  1.0
  N  N342  1  0.44100342  0.13457147  0.94061511  1.0
  N  N343  1  0.69353993  0.55897230  0.60728703  1.0
  N  N344  1  0.86542091  0.30643561  0.27396970  1.0
  N  N345  1  0.55899563  0.86542799  0.94061535  1.0
  N  N346  1  0.30645782  0.44102782  0.60728632  1.0
  N  N347  1  0.13458090  0.69356376  0.27396961  1.0
  N  N348  1  0.30643401  0.86541644  0.72602921  1.0
  N  N349  1  0.13457455  0.44100410  0.05938340  1.0
  N  N350  1  0.55896939  0.69354512  0.39270957  1.0
  N  N351  1  0.69356753  0.13458205  0.72602929  1.0
  N  N352  1  0.86542569  0.55899709  0.05938087  1.0
  N  N353  1  0.44103208  0.30645890  0.39270874  1.0
  O  O354  1  0.29254118  0.67243167  0.92923264  1.0
  O  O355  1  0.37987965  0.70743361  0.59587123  1.0
  O  O356  1  0.32758845  0.62016480  0.26255404  1.0
  O  O357  1  0.70746132  0.32756992  0.92923403  1.0
  O  O358  1  0.62011754  0.29256303  0.59587141  1.0
  O  O359  1  0.67240763  0.37983529  0.26255418  1.0
  O  O360  1  0.62015962  0.32757821  0.73744409  1.0
  O  O361  1  0.67243802  0.29254260  0.07076473  1.0
  O  O362  1  0.70742389  0.37988295  0.40412575  1.0
  O  O363  1  0.37983719  0.67242165  0.73744357  1.0
  O  O364  1  0.32756416  0.70745997  0.07076525  1.0
  O  O365  1  0.29257647  0.62011757  0.40412673  1.0
  O  O366  1  0.23658165  0.53511105  0.97011142  1.0
  O  O367  1  0.29853482  0.76340202  0.63675796  1.0
  O  O368  1  0.46496253  0.70149382  0.30340051  1.0
  O  O369  1  0.76342405  0.46489185  0.97011195  1.0
  O  O370  1  0.70146366  0.23659453  0.63675831  1.0
  O  O371  1  0.53502869  0.29850479  0.30339788  1.0
  O  O372  1  0.70148374  0.46495196  0.69659647  1.0
  O  O373  1  0.53512268  0.23658571  0.02988209  1.0
  O  O374  1  0.76340834  0.29855221  0.36323633  1.0
  O  O375  1  0.29851636  0.53504867  0.69659487  1.0
  O  O376  1  0.46488298  0.76342044  0.02988503  1.0
  O  O377  1  0.23659219  0.70144769  0.36323598  1.0
  O  O378  1  0.09025929  0.24776201  0.86990869  1.0
  O  O379  1  0.15749345  0.90969002  0.53656766  1.0
  O  O380  1  0.75221758  0.84252369  0.20322048  1.0
  O  O381  1  0.90975025  0.75223829  0.86990636  1.0
  O  O382  1  0.84250492  0.09030813  0.53656798  1.0
  O  O383  1  0.24777983  0.15745764  0.20321997  1.0
  O  O384  1  0.84250352  0.75220017  0.79676074  1.0
  O  O385  1  0.24777274  0.09025459  0.13006212  1.0
  O  O386  1  0.90970597  0.15752435  0.46340817  1.0
  O  O387  1  0.15749826  0.24779958  0.79676046  1.0
  O  O388  1  0.75222963  0.90974436  0.13007024  1.0
  O  O389  1  0.09029461  0.84247745  0.46340669  1.0
  O  O390  1  0.42858532  0.12535314  0.85221303  1.0
  O  O391  1  0.69678389  0.57138305  0.51888764  1.0
  O  O392  1  0.87464784  0.30321759  0.18556493  1.0
  O  O393  1  0.57141919  0.87464931  0.85221327  1.0
  O  O394  1  0.30321037  0.42861304  0.51888694  1.0
  O  O395  1  0.12535541  0.69677915  0.18556522  1.0
  O  O396  1  0.30322418  0.87464484  0.81443320  1.0
  O  O397  1  0.12535779  0.42859318  0.14778510  1.0
  O  O398  1  0.57137231  0.69678121  0.48110934  1.0
  O  O399  1  0.69678194  0.12535138  0.81443329  1.0
  O  O400  1  0.87464490  0.57140994  0.14778294  1.0
  O  O401  1  0.42862709  0.30322055  0.48110889  1.0
