# generated using pymatgen
data_CuH9C10N2Cl
_symmetry_space_group_name_H-M   'P 1'
_cell_length_a   12.36574937
_cell_length_b   15.86369007
_cell_length_c   15.86369791
_cell_angle_alpha   90.00012230
_cell_angle_beta   89.99997662
_cell_angle_gamma   89.99997367
_symmetry_Int_Tables_number   1
_chemical_formula_structural   CuH9C10N2Cl
_chemical_formula_sum   'Cu8 H72 C80 N16 Cl8'
_cell_volume   3111.92475540
_cell_formula_units_Z   8
loop_
 _symmetry_equiv_pos_site_id
 _symmetry_equiv_pos_as_xyz
  1  'x, y, z'
loop_
 _atom_site_type_symbol
 _atom_site_label
 _atom_site_symmetry_multiplicity
 _atom_site_fract_x
 _atom_site_fract_y
 _atom_site_fract_z
 _atom_site_occupancy
  Cu  Cu0  1  0.37638621  0.52075537  0.99734932  1.0
  Cu  Cu1  1  0.87638610  0.47924433  0.00264984  1.0
  Cu  Cu2  1  0.12638519  0.49735100  0.97924511  1.0
  Cu  Cu3  1  0.62638668  0.50264941  0.02075540  1.0
  Cu  Cu4  1  0.37360837  0.97930325  0.49734974  1.0
  Cu  Cu5  1  0.87360989  0.02069707  0.50265068  1.0
  Cu  Cu6  1  0.62361049  0.00265085  0.47930432  1.0
  Cu  Cu7  1  0.12360976  0.99734830  0.52069682  1.0
  H  H8  1  0.75692945  0.59476621  0.17681304  1.0
  H  H9  1  0.76146215  0.62274130  0.06980964  1.0
  H  H10  1  0.23549880  0.70940115  0.28291019  1.0
  H  H11  1  0.24538910  0.64125724  0.05358717  1.0
  H  H12  1  0.23701919  0.59988993  0.15444823  1.0
  H  H13  1  0.87183309  0.72045445  0.16048342  1.0
  H  H14  1  0.76816933  0.77532122  0.10672238  1.0
  H  H15  1  0.13096412  0.72977712  0.15186386  1.0
  H  H16  1  0.23843920  0.78844878  0.10714924  1.0
  H  H17  1  0.25693052  0.40523542  0.82318301  1.0
  H  H18  1  0.26146319  0.37726096  0.93018641  1.0
  H  H19  1  0.73550005  0.29059733  0.71709091  1.0
  H  H20  1  0.74538857  0.35874250  0.94641330  1.0
  H  H21  1  0.73702112  0.40010856  0.84555161  1.0
  H  H22  1  0.37183423  0.27954650  0.83951512  1.0
  H  H23  1  0.26816886  0.22468166  0.89327619  1.0
  H  H24  1  0.63096450  0.27022266  0.84813664  1.0
  H  H25  1  0.73843717  0.21155033  0.89285249  1.0
  H  H26  1  0.50692902  0.67681351  0.90523349  1.0
  H  H27  1  0.51146174  0.56981000  0.87725755  1.0
  H  H28  1  0.98549686  0.78291031  0.79059758  1.0
  H  H29  1  0.99538794  0.55358732  0.85874223  1.0
  H  H30  1  0.98701963  0.65444851  0.90010911  1.0
  H  H31  1  0.62183435  0.66048361  0.77954460  1.0
  H  H32  1  0.51816820  0.60672307  0.72467778  1.0
  H  H33  1  0.88096301  0.65186324  0.77022264  1.0
  H  H34  1  0.98843731  0.60714784  0.71155088  1.0
  H  H35  1  0.00692891  0.32318631  0.09476579  1.0
  H  H36  1  0.01146074  0.43018982  0.12274173  1.0
  H  H37  1  0.48549756  0.21708998  0.20940218  1.0
  H  H38  1  0.49538773  0.44641296  0.14125753  1.0
  H  H39  1  0.48701950  0.34555177  0.09989065  1.0
  H  H40  1  0.12183335  0.33951680  0.22045464  1.0
  H  H41  1  0.01816795  0.39327675  0.27532150  1.0
  H  H42  1  0.38096362  0.34813708  0.22977715  1.0
  H  H43  1  0.48843706  0.39285181  0.28844888  1.0
  H  H44  1  0.99307666  0.90524490  0.67679890  1.0
  H  H45  1  0.98853431  0.87726391  0.56979860  1.0
  H  H46  1  0.51449912  0.79060532  0.78288572  1.0
  H  H47  1  0.50462026  0.85875693  0.55356978  1.0
  H  H48  1  0.51297880  0.90012194  0.65443029  1.0
  H  H49  1  0.87816495  0.77956544  0.66047850  1.0
  H  H50  1  0.98181984  0.72468217  0.60672110  1.0
  H  H51  1  0.61903791  0.77023726  0.65184309  1.0
  H  H52  1  0.51156933  0.71156236  0.60712397  1.0
  H  H53  1  0.49307656  0.09475538  0.32320149  1.0
  H  H54  1  0.48853495  0.12273637  0.43020116  1.0
  H  H55  1  0.01449901  0.20939514  0.21711419  1.0
  H  H56  1  0.00462007  0.14124289  0.44643014  1.0
  H  H57  1  0.01297868  0.09987725  0.34557025  1.0
  H  H58  1  0.37816557  0.22043488  0.33952129  1.0
  H  H59  1  0.48182040  0.27531748  0.39327866  1.0
  H  H60  1  0.11903772  0.22976189  0.34815741  1.0
  H  H61  1  0.01156908  0.28843746  0.39287594  1.0
  H  H62  1  0.24307773  0.82320078  0.40524497  1.0
  H  H63  1  0.23853371  0.93020108  0.37726359  1.0
  H  H64  1  0.76449625  0.71711428  0.29060441  1.0
  H  H65  1  0.75462050  0.94643048  0.35875838  1.0
  H  H66  1  0.76297828  0.84557127  0.40012189  1.0
  H  H67  1  0.12816600  0.83952033  0.27956435  1.0
  H  H68  1  0.23182167  0.89327697  0.22468185  1.0
  H  H69  1  0.86903740  0.84815752  0.27023854  1.0
  H  H70  1  0.76156878  0.89287721  0.21156376  1.0
  H  H71  1  0.74307911  0.17679833  0.59475613  1.0
  H  H72  1  0.73853513  0.06979803  0.62273688  1.0
  H  H73  1  0.26449908  0.28288609  0.70939289  1.0
  H  H74  1  0.25462188  0.05356925  0.64124271  1.0
  H  H75  1  0.26297881  0.15442973  0.59987731  1.0
  H  H76  1  0.62816652  0.16047882  0.72043490  1.0
  H  H77  1  0.73182057  0.10672088  0.77531799  1.0
  H  H78  1  0.36903948  0.15184218  0.72976188  1.0
  H  H79  1  0.26157005  0.10712442  0.78843733  1.0
  C  C80  1  0.38993592  0.65340768  0.12586035  1.0
  C  C81  1  0.44253521  0.70828273  0.18415891  1.0
  C  C82  1  0.38332081  0.76080463  0.23874398  1.0
  C  C83  1  0.55818691  0.70741406  0.18547699  1.0
  C  C84  1  0.61154400  0.64927368  0.13097576  1.0
  C  C85  1  0.73242386  0.64420296  0.13162186  1.0
  C  C86  1  0.26130394  0.75978471  0.23874589  1.0
  C  C87  1  0.26917332  0.65423348  0.11900950  1.0
  C  C88  1  0.78368234  0.72829816  0.15653480  1.0
  C  C89  1  0.21940356  0.73643571  0.15090885  1.0
  C  C90  1  0.88993867  0.34659264  0.87414070  1.0
  C  C91  1  0.94253640  0.29171757  0.81584212  1.0
  C  C92  1  0.88332126  0.23919317  0.76125833  1.0
  C  C93  1  0.05818806  0.29258511  0.81452164  1.0
  C  C94  1  0.11154346  0.35072737  0.86902223  1.0
  C  C95  1  0.23242574  0.35580120  0.86837482  1.0
  C  C96  1  0.76130439  0.24021313  0.76125520  1.0
  C  C97  1  0.76917284  0.34576499  0.88099095  1.0
  C  C98  1  0.28368349  0.27170408  0.84346313  1.0
  C  C99  1  0.71940314  0.26356341  0.84909289  1.0
  C  C100  1  0.13993714  0.62586005  0.84659269  1.0
  C  C101  1  0.19253484  0.68415789  0.79171714  1.0
  C  C102  1  0.13331885  0.73874288  0.73919351  1.0
  C  C103  1  0.30818735  0.68547787  0.79258577  1.0
  C  C104  1  0.36154279  0.63097610  0.85072600  1.0
  C  C105  1  0.48242346  0.63162158  0.85579730  1.0
  C  C106  1  0.01130360  0.73874542  0.74021410  1.0
  C  C107  1  0.01917131  0.61900921  0.84576566  1.0
  C  C108  1  0.53368118  0.65653498  0.77170218  1.0
  C  C109  1  0.96940164  0.65090821  0.76356402  1.0
  C  C110  1  0.63993702  0.37413973  0.15340718  1.0
  C  C111  1  0.69253472  0.31584187  0.20828271  1.0
  C  C112  1  0.63331955  0.26125753  0.26080636  1.0
  C  C113  1  0.80818724  0.31452185  0.20741467  1.0
  C  C114  1  0.86154429  0.36902297  0.14927254  1.0
  C  C115  1  0.98242334  0.36837807  0.14420246  1.0
  C  C116  1  0.51130349  0.26125503  0.25978581  1.0
  C  C117  1  0.51917118  0.38099062  0.15423425  1.0
  C  C118  1  0.03368099  0.34346484  0.22829773  1.0
  C  C119  1  0.46940225  0.34909208  0.23643637  1.0
  C  C120  1  0.36006370  0.84660287  0.62583478  1.0
  C  C121  1  0.30747247  0.79172668  0.68413198  1.0
  C  C122  1  0.36668118  0.73920175  0.73871314  1.0
  C  C123  1  0.19181025  0.79260670  0.68546334  1.0
  C  C124  1  0.13845562  0.85073877  0.63095153  1.0
  C  C125  1  0.01758061  0.85581012  0.63160210  1.0
  C  C126  1  0.48869562  0.74022481  0.73872257  1.0
  C  C127  1  0.48083115  0.84577705  0.61898579  1.0
  C  C128  1  0.96631489  0.77171227  0.65652795  1.0
  C  C129  1  0.53060090  0.76357489  0.65088431  1.0
  C  C130  1  0.86006440  0.15339746  0.37416502  1.0
  C  C131  1  0.80747236  0.20827367  0.31586784  1.0
  C  C132  1  0.86668106  0.26079858  0.26128666  1.0
  C  C133  1  0.69181014  0.20739306  0.31453651  1.0
  C  C134  1  0.63845632  0.14926101  0.36904834  1.0
  C  C135  1  0.51758132  0.14418970  0.36839781  1.0
  C  C136  1  0.98869631  0.25977547  0.26127719  1.0
  C  C137  1  0.98083104  0.15422260  0.38101397  1.0
  C  C138  1  0.46631551  0.22828802  0.34347182  1.0
  C  C139  1  0.03060070  0.23642556  0.34911560  1.0
  C  C140  1  0.61006317  0.87416547  0.34660290  1.0
  C  C141  1  0.55747278  0.81586877  0.29172661  1.0
  C  C142  1  0.61668071  0.76128745  0.23920222  1.0
  C  C143  1  0.44180976  0.81453682  0.29260726  1.0
  C  C144  1  0.38845671  0.86904817  0.35073942  1.0
  C  C145  1  0.26758090  0.86839828  0.35581076  1.0
  C  C146  1  0.73869515  0.76127798  0.24022403  1.0
  C  C147  1  0.73083143  0.88101442  0.34577836  1.0
  C  C148  1  0.21631594  0.84347083  0.27171245  1.0
  C  C149  1  0.78060119  0.84911569  0.26357492  1.0
  C  C150  1  0.11006450  0.12583306  0.65339824  1.0
  C  C151  1  0.05747324  0.18413104  0.70827454  1.0
  C  C152  1  0.11668191  0.23871296  0.76079829  1.0
  C  C153  1  0.94181026  0.18546159  0.70739441  1.0
  C  C154  1  0.88845728  0.13095026  0.64926289  1.0
  C  C155  1  0.76758228  0.13160145  0.64419033  1.0
  C  C156  1  0.23869716  0.23872303  0.75977455  1.0
  C  C157  1  0.23083195  0.11898596  0.65422274  1.0
  C  C158  1  0.71631645  0.15652766  0.72828866  1.0
  C  C159  1  0.28060084  0.15088530  0.73642491  1.0
  N  N160  1  0.44512225  0.60054161  0.07710746  1.0
  N  N161  1  0.55702408  0.59794384  0.08022210  1.0
  N  N162  1  0.94512333  0.39945806  0.92289231  1.0
  N  N163  1  0.05702511  0.40205723  0.91977653  1.0
  N  N164  1  0.19512102  0.57710788  0.89945798  1.0
  N  N165  1  0.30702366  0.58022253  0.90205635  1.0
  N  N166  1  0.69512089  0.42289251  0.10054187  1.0
  N  N167  1  0.80702354  0.41977782  0.09794346  1.0
  N  N168  1  0.30487578  0.89947640  0.57708328  1.0
  N  N169  1  0.19297071  0.90206220  0.58018851  1.0
  N  N170  1  0.80487648  0.10052332  0.42291716  1.0
  N  N171  1  0.69297061  0.09793756  0.41981197  1.0
  N  N172  1  0.55487684  0.92291775  0.39947714  1.0
  N  N173  1  0.44297178  0.91981194  0.40206356  1.0
  N  N174  1  0.05487661  0.07708143  0.60052402  1.0
  N  N175  1  0.94297159  0.08018773  0.59793873  1.0
  Cl  Cl176  1  0.25064884  0.44149164  0.07801884  1.0
  Cl  Cl177  1  0.75064902  0.55850810  0.92198037  1.0
  Cl  Cl178  1  0.00064778  0.57802043  0.05850907  1.0
  Cl  Cl179  1  0.50064884  0.42198066  0.94149084  1.0
  Cl  Cl180  1  0.49934139  0.05853772  0.57806069  1.0
  Cl  Cl181  1  0.99934080  0.94146256  0.42193906  1.0
  Cl  Cl182  1  0.74934136  0.92193955  0.55853838  1.0
  Cl  Cl183  1  0.24933959  0.07806082  0.44146271  1.0
