# generated using pymatgen
data_AlH7C13NClO5
_symmetry_space_group_name_H-M   'P 1'
_cell_length_a   6.63726424
_cell_length_b   13.05339156
_cell_length_c   16.90989736
_cell_angle_alpha   84.13778706
_cell_angle_beta   82.90882003
_cell_angle_gamma   78.17070892
_symmetry_Int_Tables_number   1
_chemical_formula_structural   AlH7C13NClO5
_chemical_formula_sum   'Al2 H14 C26 N2 Cl2 O10'
_cell_volume   1418.51249433
_cell_formula_units_Z   2
loop_
 _symmetry_equiv_pos_site_id
 _symmetry_equiv_pos_as_xyz
  1  'x, y, z'
loop_
 _atom_site_type_symbol
 _atom_site_label
 _atom_site_symmetry_multiplicity
 _atom_site_fract_x
 _atom_site_fract_y
 _atom_site_fract_z
 _atom_site_occupancy
  Al  Al0  1  0.49999704  0.50000539  0.49999806  1.0
  Al  Al1  1  0.99999569  0.50000600  0.50000324  1.0
  H  H2  1  0.26186677  0.55563463  0.40150435  1.0
  H  H3  1  0.73810235  0.44437086  0.59849809  1.0
  H  H4  1  0.89284165  0.45571888  0.73790067  1.0
  H  H5  1  0.83270143  0.44673067  0.88723935  1.0
  H  H6  1  0.34963363  0.59819855  0.89096307  1.0
  H  H7  1  0.65040120  0.40179549  0.10903081  1.0
  H  H8  1  0.16734030  0.55326866  0.11276333  1.0
  H  H9  1  0.10717812  0.54427857  0.26210264  1.0
  H  H10  1  0.31468082  0.82421295  0.53253750  1.0
  H  H11  1  0.95648985  0.80699011  0.44596770  1.0
  H  H12  1  0.91058856  0.00205500  0.44105408  1.0
  H  H13  1  0.68525253  0.17579738  0.46744872  1.0
  H  H14  1  0.04347002  0.19301917  0.55403558  1.0
  H  H15  1  0.08935537  0.99795581  0.55894459  1.0
  C  C16  1  0.66925014  0.68892819  0.48959690  1.0
  C  C17  1  0.81111226  0.47771205  0.35859354  1.0
  C  C18  1  0.33071632  0.31107978  0.51040138  1.0
  C  C19  1  0.18893448  0.52228273  0.64140619  1.0
  C  C20  1  0.15819772  0.52781464  0.73005657  1.0
  C  C21  1  0.99347626  0.48554283  0.77238356  1.0
  C  C22  1  0.95892046  0.48067668  0.85493926  1.0
  C  C23  1  0.09021388  0.52087301  0.89775953  1.0
  C  C24  1  0.25190320  0.56576779  0.85687946  1.0
  C  C25  1  0.28653197  0.56903494  0.77369081  1.0
  C  C26  1  0.74814250  0.43422234  0.14311765  1.0
  C  C27  1  0.90982830  0.47912175  0.10223926  1.0
  C  C28  1  0.04112525  0.51931713  0.14506532  1.0
  C  C29  1  0.00655165  0.51444997  0.22762080  1.0
  C  C30  1  0.84182909  0.47217359  0.26994279  1.0
  C  C31  1  0.71350596  0.43095905  0.22630587  1.0
  C  C32  1  0.44397817  0.86396209  0.51320705  1.0
  C  C33  1  0.80686247  0.85569228  0.46377947  1.0
  C  C34  1  0.78095057  0.96313449  0.46172752  1.0
  C  C35  1  0.58582898  0.02550761  0.48669419  1.0
  C  C36  1  0.55596409  0.13604892  0.48678578  1.0
  C  C37  1  0.19309626  0.14432281  0.53621523  1.0
  C  C38  1  0.21898818  0.03688112  0.53826758  1.0
  C  C39  1  0.41409870  0.97450883  0.51329550  1.0
  C  C40  1  0.63667678  0.80537844  0.48915080  1.0
  C  C41  1  0.36329746  0.19463231  0.51083865  1.0
  N  N42  1  0.07263175  0.52097852  0.98190565  1.0
  N  N43  1  0.92741361  0.47901939  0.01809396  1.0
  Cl  Cl44  1  0.48403532  0.62914070  0.72749955  1.0
  Cl  Cl45  1  0.51600658  0.37084408  0.27249156  1.0
  O  O46  1  0.51095763  0.64614416  0.50264429  1.0
  O  O47  1  0.97390182  0.46501800  0.39398791  1.0
  O  O48  1  0.14366650  0.35953351  0.52429272  1.0
  O  O49  1  0.37362863  0.50069823  0.60854727  1.0
  O  O50  1  0.48901882  0.35386172  0.49735007  1.0
  O  O51  1  0.02611384  0.53498515  0.60600876  1.0
  O  O52  1  0.85631806  0.64047843  0.47571151  1.0
  O  O53  1  0.62639126  0.49930241  0.39145526  1.0
  O  O54  1  0.24603962  0.54195266  0.45912756  1.0
  O  O55  1  0.75395782  0.45806107  0.54087532  1.0
