# generated using pymatgen
data_Zn2H24C37N10O
_symmetry_space_group_name_H-M   'P 1'
_cell_length_a   19.80830323
_cell_length_b   19.88741385
_cell_length_c   20.61492003
_cell_angle_alpha   108.61220932
_cell_angle_beta   105.57683353
_cell_angle_gamma   112.33120312
_symmetry_Int_Tables_number   1
_chemical_formula_structural   Zn2H24C37N10O
_chemical_formula_sum   'Zn4 H48 C74 N20 O2'
_cell_volume   6376.52604478
_cell_formula_units_Z   2
loop_
 _symmetry_equiv_pos_site_id
 _symmetry_equiv_pos_as_xyz
  1  'x, y, z'
loop_
 _atom_site_type_symbol
 _atom_site_label
 _atom_site_symmetry_multiplicity
 _atom_site_fract_x
 _atom_site_fract_y
 _atom_site_fract_z
 _atom_site_occupancy
  Zn  Zn0  1  0.60506977  0.60216291  0.50235149  1.0
  Zn  Zn1  1  0.38781646  0.39234030  0.49368889  1.0
  Zn  Zn2  1  0.50073974  0.59482876  0.60322739  1.0
  Zn  Zn3  1  0.49374156  0.40163214  0.39692341  1.0
  H  H4  1  0.76275164  0.79375797  0.61862193  1.0
  H  H5  1  0.37040210  0.63171768  0.51322451  1.0
  H  H6  1  0.37051796  0.39136566  0.24799488  1.0
  H  H7  1  0.23042682  0.37994984  0.37798133  1.0
  H  H8  1  0.50482123  0.63489258  0.37813540  1.0
  H  H9  1  0.53243004  0.38426117  0.24716549  1.0
  H  H10  1  0.36948962  0.62405762  0.67345250  1.0
  H  H11  1  0.02828933  0.60194031  0.73677713  1.0
  H  H12  1  0.07160528  0.48158459  0.73700670  1.0
  H  H13  1  0.08293269  0.61314113  0.62443426  1.0
  H  H14  1  0.33155521  0.20075418  0.47135524  1.0
  H  H15  1  0.92345700  0.48733464  0.50806949  1.0
  H  H16  1  0.96698474  0.36680858  0.50834125  1.0
  H  H17  1  0.91264650  0.35579089  0.62086179  1.0
  H  H18  1  0.43229921  0.99311483  0.52811085  1.0
  H  H19  1  0.29232228  0.83267411  0.44186087  1.0
  H  H20  1  0.48627201  0.95563744  0.34944117  1.0
  H  H21  1  0.34590135  0.79559537  0.26444738  1.0
  H  H22  1  0.25455115  0.86246798  0.31451841  1.0
  H  H23  1  0.70693181  0.58903030  0.83694314  1.0
  H  H24  1  0.63247642  0.60546080  0.74154500  1.0
  H  H25  1  0.73684235  0.58815545  0.96144142  1.0
  H  H26  1  0.73141684  0.65215858  0.16288384  1.0
  H  H27  1  0.70492844  0.65388000  0.27469007  1.0
  H  H28  1  0.52021855  0.33177180  0.72113717  1.0
  H  H29  1  0.61330691  0.38797754  0.05496946  1.0
  H  H30  1  0.55433775  0.33109771  0.84615852  1.0
  H  H31  1  0.58884322  0.38839528  0.16678070  1.0
  H  H32  1  0.25618652  0.34849304  0.14101533  1.0
  H  H33  1  0.12935951  0.25682567  0.01946273  1.0
  H  H34  1  0.98541058  0.05395469  0.82953007  1.0
  H  H35  1  0.61397981  0.35131518  0.48528950  1.0
  H  H36  1  0.87404703  0.91500088  0.72400513  1.0
  H  H37  1  0.11380698  0.32424969  0.26711483  1.0
  H  H38  1  0.83092864  0.06348200  0.93951956  1.0
  H  H39  1  0.98722930  0.23435114  0.14441049  1.0
  H  H40  1  0.71817455  0.92587885  0.83369238  1.0
  H  H41  1  0.48540003  0.33933061  0.60287734  1.0
  H  H42  1  0.47555805  0.21446594  0.34579032  1.0
  H  H43  1  0.62927303  0.78327587  0.75400772  1.0
  H  H44  1  0.68738341  0.64918530  0.38620870  1.0
  H  H45  1  0.11413822  0.36040585  0.46213878  1.0
  H  H46  1  0.11738371  0.32003217  0.52841966  1.0
  H  H47  1  0.09679889  0.25743142  0.43247091  1.0
  H  H48  1  0.58914236  0.04655288  0.56615642  1.0
  H  H49  1  0.61412594  0.03161264  0.48712235  1.0
  H  H50  1  0.65660256  0.00773639  0.55920641  1.0
  H  H51  1  0.75907606  0.61714627  0.62662062  1.0
  C  C52  1  0.72028991  0.77809689  0.64284034  1.0
  C  C53  1  0.40168854  0.17459245  0.40658354  1.0
  C  C54  1  0.57676404  0.46829291  0.70107770  1.0
  C  C55  1  0.71695772  0.48131741  0.57107258  1.0
  C  C56  1  0.64551493  0.58343158  0.36129944  1.0
  C  C57  1  0.27026726  0.42770493  0.54956397  1.0
  C  C58  1  0.40924815  0.62622505  0.48589700  1.0
  C  C59  1  0.34693308  0.39226142  0.28992178  1.0
  C  C60  1  0.27543222  0.38658695  0.35616668  1.0
  C  C61  1  0.47801804  0.62786036  0.41679124  1.0
  C  C62  1  0.56715868  0.44841012  0.29085671  1.0
  C  C63  1  0.36793369  0.21709460  0.44182948  1.0
  C  C64  1  0.34560587  0.56075326  0.63223296  1.0
  C  C65  1  0.62124619  0.51867636  0.29023609  1.0
  C  C66  1  0.26550016  0.49307574  0.59812035  1.0
  C  C67  1  0.42220155  0.65069698  0.43111706  1.0
  C  C68  1  0.26879548  0.37557635  0.28319472  1.0
  C  C69  1  0.03811667  0.48277028  0.68607518  1.0
  C  C70  1  0.01515074  0.54979588  0.68591689  1.0
  C  C71  1  0.78768249  0.47696210  0.59824744  1.0
  C  C72  1  0.19893375  0.49271153  0.61043764  1.0
  C  C73  1  0.95079050  0.41296871  0.62150107  1.0
  C  C74  1  0.59072278  0.54173221  0.69763836  1.0
  C  C75  1  0.92607838  0.47993005  0.62110317  1.0
  C  C76  1  0.97980180  0.41897847  0.55902766  1.0
  C  C77  1  0.06898327  0.48895042  0.62351248  1.0
  C  C78  1  0.95745244  0.48617276  0.55878777  1.0
  C  C79  1  0.04426476  0.55600503  0.62355805  1.0
  C  C80  1  0.85163831  0.47679286  0.61461395  1.0
  C  C81  1  0.14060501  0.49225868  0.62017306  1.0
  C  C82  1  0.33549603  0.86074426  0.42161099  1.0
  C  C83  1  0.41339978  0.94872120  0.46971906  1.0
  C  C84  1  0.39816291  0.10134536  0.40288508  1.0
  C  C85  1  0.63827670  0.41738992  0.51353201  1.0
  C  C86  1  0.39770946  0.70016709  0.40746165  1.0
  C  C87  1  0.31442455  0.87570332  0.35074163  1.0
  C  C88  1  0.39292635  0.96535324  0.39863029  1.0
  C  C89  1  0.36529773  0.83992332  0.32296464  1.0
  C  C90  1  0.38586055  0.82261416  0.39359488  1.0
  C  C91  1  0.44347102  0.92782586  0.37019090  1.0
  C  C92  1  0.46423238  0.91223698  0.44136530  1.0
  C  C93  1  0.39639363  0.03871267  0.40113639  1.0
  C  C94  1  0.38666826  0.75242841  0.39573343  1.0
  C  C95  1  0.64328095  0.52102115  0.22864154  1.0
  C  C96  1  0.51489802  0.40598307  0.62737763  1.0
  C  C97  1  0.61970263  0.44663649  0.16623083  1.0
  C  C98  1  0.63372430  0.44567348  0.10385445  1.0
  C  C99  1  0.67313962  0.52017763  0.10182062  1.0
  C  C100  1  0.70069669  0.59496404  0.16516866  1.0
  C  C101  1  0.68562159  0.59532119  0.22736938  1.0
  C  C102  1  0.69015781  0.53237029  0.90828435  1.0
  C  C103  1  0.67242738  0.53237998  0.83861355  1.0
  C  C104  1  0.64477565  0.46008856  0.91142877  1.0
  C  C105  1  0.60809058  0.46164532  0.76995438  1.0
  C  C106  1  0.56897099  0.38785089  0.77319696  1.0
  C  C107  1  0.71248098  0.55342910  0.58588933  1.0
  C  C108  1  0.58746829  0.38694637  0.84274475  1.0
  C  C109  1  0.78794273  0.90927060  0.77137738  1.0
  C  C110  1  0.77684164  0.95342828  0.83253170  1.0
  C  C111  1  0.83905627  0.03054724  0.89149392  1.0
  C  C112  1  0.91535259  0.06686414  0.89107293  1.0
  C  C113  1  0.92599188  0.02505261  0.82892846  1.0
  C  C114  1  0.86348515  0.94754106  0.77031623  1.0
  C  C115  1  0.12695566  0.27274455  0.07417749  1.0
  C  C116  1  0.19743728  0.32340167  0.14241781  1.0
  C  C117  1  0.05060434  0.23712812  0.07471766  1.0
  C  C118  1  0.44142896  0.22409990  0.37758016  1.0
  C  C119  1  0.19509577  0.33962010  0.21358870  1.0
  C  C120  1  0.11801295  0.31074563  0.21323562  1.0
  C  C121  1  0.04693449  0.26064646  0.14502559  1.0
  C  C122  1  0.65192560  0.77302980  0.71144429  1.0
  C  C123  1  0.72403336  0.82593434  0.71229866  1.0
  C  C124  1  0.13072494  0.32016840  0.48009470  1.0
  C  C125  1  0.60249789  0.00716322  0.52652105  1.0
  N  N126  1  0.65185490  0.70367256  0.60419731  1.0
  N  N127  1  0.34595483  0.45451325  0.55579749  1.0
  N  N128  1  0.45540122  0.59361884  0.50346670  1.0
  N  N129  1  0.39448908  0.40991440  0.36038300  1.0
  N  N130  1  0.35054626  0.40647135  0.40107736  1.0
  N  N131  1  0.49758562  0.59461805  0.46109911  1.0
  N  N132  1  0.56038746  0.46956279  0.35645335  1.0
  N  N133  1  0.39303333  0.53764392  0.60727954  1.0
  N  N134  1  0.68188112  0.52536137  0.03771782  1.0
  N  N135  1  0.64601131  0.45576372  0.97833907  1.0
  N  N136  1  0.98576261  0.13965830  0.95162297  1.0
  N  N137  1  0.38636490  0.28577040  0.43440958  1.0
  N  N138  1  0.97726582  0.17245238  0.01066553  1.0
  N  N139  1  0.54010602  0.52387356  0.62843435  1.0
  N  N140  1  0.59232785  0.44996269  0.49514267  1.0
  N  N141  1  0.49354195  0.44045058  0.58506748  1.0
  N  N142  1  0.63784282  0.53323314  0.53943738  1.0
  N  N143  1  0.43206860  0.29012744  0.39443294  1.0
  N  N144  1  0.60923573  0.70040278  0.64702877  1.0
  N  N145  1  0.60926293  0.55374124  0.40054323  1.0
  O  O146  1  0.21531408  0.34692967  0.50027751  1.0
  O  O147  1  0.53736206  0.92311268  0.48556112  1.0
