# generated using pymatgen
data_EuH14C17NO7
_symmetry_space_group_name_H-M   'P 1'
_cell_length_a   6.42763415
_cell_length_b   16.53516919
_cell_length_c   24.28497707
_cell_angle_alpha   89.99874996
_cell_angle_beta   88.84992991
_cell_angle_gamma   89.99616755
_symmetry_Int_Tables_number   1
_chemical_formula_structural   EuH14C17NO7
_chemical_formula_sum   'Eu4 H56 C68 N4 O28'
_cell_volume   2580.53642406
_cell_formula_units_Z   4
loop_
 _symmetry_equiv_pos_site_id
 _symmetry_equiv_pos_as_xyz
  1  'x, y, z'
loop_
 _atom_site_type_symbol
 _atom_site_label
 _atom_site_symmetry_multiplicity
 _atom_site_fract_x
 _atom_site_fract_y
 _atom_site_fract_z
 _atom_site_occupancy
  Eu  Eu0  1  0.73726849  0.93618921  0.02203353  1.0
  Eu  Eu1  1  0.26273420  0.43619048  0.47796589  1.0
  Eu  Eu2  1  0.26273601  0.06381317  0.97796621  1.0
  Eu  Eu3  1  0.73725939  0.56381129  0.52203473  1.0
  H  H4  1  0.36099277  0.22116395  0.81945457  1.0
  H  H5  1  0.63898052  0.72116004  0.68054538  1.0
  H  H6  1  0.63900866  0.77883480  0.18054313  1.0
  H  H7  1  0.36101461  0.27883931  0.31945687  1.0
  H  H8  1  0.98426969  0.16049495  0.76313310  1.0
  H  H9  1  0.01572376  0.66049070  0.73687302  1.0
  H  H10  1  0.01573017  0.83950259  0.23686543  1.0
  H  H11  1  0.98427293  0.33950563  0.26312882  1.0
  H  H12  1  0.03369462  0.08103167  0.84829535  1.0
  H  H13  1  0.96630539  0.58103332  0.65170944  1.0
  H  H14  1  0.96630521  0.91896889  0.15170442  1.0
  H  H15  1  0.03368820  0.41896422  0.34829159  1.0
  H  H16  1  0.94290182  0.30139252  0.73782544  1.0
  H  H17  1  0.05707239  0.80138765  0.76218403  1.0
  H  H18  1  0.05709645  0.69860865  0.26217433  1.0
  H  H19  1  0.94292272  0.19860868  0.23781863  1.0
  H  H20  1  0.26849633  0.29405136  0.64195188  1.0
  H  H21  1  0.73151683  0.79403951  0.85804190  1.0
  H  H22  1  0.73150508  0.70594497  0.35804664  1.0
  H  H23  1  0.26848612  0.20596165  0.14195745  1.0
  H  H24  1  0.32277211  0.20426985  0.72286693  1.0
  H  H25  1  0.67723229  0.70425829  0.77712944  1.0
  H  H26  1  0.67723399  0.79572708  0.27713075  1.0
  H  H27  1  0.32276598  0.29574166  0.22287074  1.0
  H  H28  1  0.88381971  0.77987578  0.92854328  1.0
  H  H29  1  0.11620214  0.27987972  0.57145561  1.0
  H  H30  1  0.11619414  0.22012720  0.07145602  1.0
  H  H31  1  0.88379143  0.72012144  0.42854624  1.0
  H  H32  1  0.02849361  0.68365157  0.88268647  1.0
  H  H33  1  0.97153468  0.18365776  0.61731299  1.0
  H  H34  1  0.97152022  0.31634838  0.11731365  1.0
  H  H35  1  0.02846206  0.81634038  0.38268597  1.0
  H  H36  1  0.15636223  0.60958720  0.92366665  1.0
  H  H37  1  0.84368719  0.10959483  0.57633217  1.0
  H  H38  1  0.84364688  0.39041517  0.07633596  1.0
  H  H39  1  0.15631111  0.89040331  0.42366596  1.0
  H  H40  1  0.30537646  0.68155018  0.88430268  1.0
  H  H41  1  0.69465224  0.18156144  0.61569475  1.0
  H  H42  1  0.69463422  0.31844977  0.11569952  1.0
  H  H43  1  0.30534295  0.81843550  0.38430380  1.0
  H  H44  1  0.29573750  0.76821745  0.02726782  1.0
  H  H45  1  0.70430176  0.26822555  0.47272775  1.0
  H  H46  1  0.70426855  0.23178855  0.97273234  1.0
  H  H47  1  0.29569810  0.73177078  0.52727037  1.0
  H  H48  1  0.47236732  0.73673029  0.97367600  1.0
  H  H49  1  0.52766864  0.23674125  0.52631647  1.0
  H  H50  1  0.52764026  0.26327451  0.02632538  1.0
  H  H51  1  0.47232968  0.76325508  0.47368125  1.0
  H  H52  1  0.32863191  0.66259876  0.01271150  1.0
  H  H53  1  0.67142638  0.16260841  0.48728430  1.0
  H  H54  1  0.67137412  0.33740664  0.98729030  1.0
  H  H55  1  0.32857501  0.83738791  0.51271504  1.0
  H  H56  1  0.86700153  0.43264942  0.62555277  1.0
  H  H57  1  0.13299269  0.93264938  0.87445182  1.0
  H  H58  1  0.13299364  0.56735114  0.37444702  1.0
  H  H59  1  0.86700712  0.06735058  0.12554960  1.0
  C  C60  1  0.76802133  0.05949505  0.93190555  1.0
  C  C61  1  0.23196703  0.55949569  0.56809754  1.0
  C  C62  1  0.23198162  0.94050672  0.06809420  1.0
  C  C63  1  0.76802655  0.44050427  0.43190390  1.0
  C  C64  1  0.72809414  0.10585328  0.88237088  1.0
  C  C65  1  0.27189834  0.60585136  0.61763110  1.0
  C  C66  1  0.27191037  0.89414849  0.11762845  1.0
  C  C67  1  0.72809838  0.39414739  0.38236868  1.0
  C  C68  1  0.53119796  0.14531355  0.87421454  1.0
  C  C69  1  0.46878430  0.64530954  0.62578691  1.0
  C  C70  1  0.46880343  0.85468822  0.12578481  1.0
  C  C71  1  0.53120930  0.35468860  0.37421371  1.0
  C  C72  1  0.50874786  0.18996006  0.82484070  1.0
  C  C73  1  0.49123104  0.68995634  0.67515969  1.0
  C  C74  1  0.49125356  0.81003929  0.17515783  1.0
  C  C75  1  0.50876097  0.31004301  0.32484216  1.0
  C  C76  1  0.66843622  0.19653924  0.78553529  1.0
  C  C77  1  0.33155233  0.69653397  0.71446826  1.0
  C  C78  1  0.33156518  0.80345950  0.21446365  1.0
  C  C79  1  0.66844278  0.30346478  0.28553441  1.0
  C  C80  1  0.86024031  0.15697077  0.79428030  1.0
  C  C81  1  0.13975533  0.65696929  0.70572545  1.0
  C  C82  1  0.13976109  0.84302737  0.20571864  1.0
  C  C83  1  0.86024291  0.34302885  0.29427679  1.0
  C  C84  1  0.88720221  0.11234056  0.84163815  1.0
  C  C85  1  0.11279371  0.61234187  0.65836661  1.0
  C  C86  1  0.11280074  0.88766000  0.15836120  1.0
  C  C87  1  0.88720299  0.38765688  0.34163399  1.0
  C  C88  1  0.63736958  0.24611838  0.73575643  1.0
  C  C89  1  0.36261940  0.74610834  0.76424556  1.0
  C  C90  1  0.36263339  0.75388037  0.26424208  1.0
  C  C91  1  0.63737575  0.25388860  0.23575505  1.0
  C  C92  1  0.79548568  0.29743342  0.71653889  1.0
  C  C93  1  0.20450020  0.79742666  0.78346771  1.0
  C  C94  1  0.20451417  0.70256593  0.28346005  1.0
  C  C95  1  0.79549805  0.20257027  0.21653412  1.0
  C  C96  1  0.76518747  0.34858428  0.67129966  1.0
  C  C97  1  0.23480475  0.84857775  0.82870658  1.0
  C  C98  1  0.23481236  0.65141507  0.32870011  1.0
  C  C99  1  0.76519660  0.15142100  0.17129565  1.0
  C  C100  1  0.57355742  0.34602709  0.64304239  1.0
  C  C101  1  0.42644155  0.84602098  0.85696057  1.0
  C  C102  1  0.42644086  0.65397165  0.35695738  1.0
  C  C103  1  0.57355980  0.15398018  0.14304166  1.0
  C  C104  1  0.41701096  0.29357687  0.66272954  1.0
  C  C105  1  0.58298977  0.79356874  0.83726841  1.0
  C  C106  1  0.58298734  0.70642006  0.33726899  1.0
  C  C107  1  0.41700849  0.20643242  0.16273219  1.0
  C  C108  1  0.44597088  0.24461046  0.70823283  1.0
  C  C109  1  0.55402464  0.74459966  0.79176669  1.0
  C  C110  1  0.55403209  0.75538708  0.29176569  1.0
  C  C111  1  0.44597052  0.25540030  0.20823351  1.0
  C  C112  1  0.54040783  0.39698997  0.59376206  1.0
  C  C113  1  0.45959292  0.89698570  0.90623685  1.0
  C  C114  1  0.45958735  0.60300999  0.40623732  1.0
  C  C115  1  0.54040847  0.10301607  0.09376291  1.0
  C  C116  1  0.00007183  0.78135514  0.96126896  1.0
  C  C117  1  0.99995136  0.28136133  0.53872702  1.0
  C  C118  1  0.99993739  0.21864723  0.03872830  1.0
  C  C119  1  0.00004381  0.71864105  0.46127235  1.0
  C  C120  1  0.16206895  0.67251385  0.90896861  1.0
  C  C121  1  0.83796754  0.17251933  0.59103221  1.0
  C  C122  1  0.83794016  0.32748974  0.09103441  1.0
  C  C123  1  0.16203074  0.82747820  0.40896715  1.0
  C  C124  1  0.32313080  0.72356834  0.99467252  1.0
  C  C125  1  0.67691059  0.22357689  0.50532301  1.0
  C  C126  1  0.67687369  0.27643706  0.00532805  1.0
  C  C127  1  0.32308927  0.77642064  0.49467511  1.0
  N  N128  1  0.15534229  0.72813343  0.95538248  1.0
  N  N129  1  0.84468733  0.22814023  0.54461632  1.0
  N  N130  1  0.84466530  0.27187197  0.04461849  1.0
  N  N131  1  0.15530628  0.77185792  0.45538389  1.0
  O  O132  1  0.94278703  0.02323067  0.93968619  1.0
  O  O133  1  0.05721090  0.52323042  0.56032110  1.0
  O  O134  1  0.05721434  0.97677170  0.06031439  1.0
  O  O135  1  0.94278735  0.47676953  0.43967990  1.0
  O  O136  1  0.62658653  0.05176237  0.97003155  1.0
  O  O137  1  0.37338927  0.55176497  0.52996841  1.0
  O  O138  1  0.37341485  0.94824061  0.02996821  1.0
  O  O139  1  0.62660120  0.44823559  0.47003263  1.0
  O  O140  1  0.38821489  0.38188817  0.56248182  1.0
  O  O141  1  0.61179170  0.88188279  0.93751605  1.0
  O  O142  1  0.61178027  0.61811118  0.43751838  1.0
  O  O143  1  0.38820814  0.11812080  0.06248330  1.0
  O  O144  1  0.67356803  0.45407164  0.58508184  1.0
  O  O145  1  0.32642866  0.95407038  0.91491666  1.0
  O  O146  1  0.32642869  0.54592892  0.41491835  1.0
  O  O147  1  0.67357584  0.04593078  0.08508350  1.0
  O  O148  1  0.37417927  0.14287467  0.90951760  1.0
  O  O149  1  0.62580189  0.64287094  0.59048265  1.0
  O  O150  1  0.62582213  0.85712710  0.09048134  1.0
  O  O151  1  0.37419326  0.35712902  0.40951796  1.0
  O  O152  1  0.92315525  0.39786360  0.65594525  1.0
  O  O153  1  0.07683118  0.89786168  0.84406235  1.0
  O  O154  1  0.07683992  0.60213696  0.34405413  1.0
  O  O155  1  0.92316396  0.10213707  0.15593908  1.0
  O  O156  1  0.98218949  0.83040654  0.00039152  1.0
  O  O157  1  0.01783701  0.33041135  0.49960400  1.0
  O  O158  1  0.01781815  0.16959885  0.99960698  1.0
  O  O159  1  0.98215346  0.66958921  0.50039745  1.0
