# generated using pymatgen
data_Cu4H40C44N12O11
_symmetry_space_group_name_H-M   'P 1'
_cell_length_a   16.36884619
_cell_length_b   16.54033791
_cell_length_c   16.53930603
_cell_angle_alpha   90.00115263
_cell_angle_beta   90.00132830
_cell_angle_gamma   89.99983971
_symmetry_Int_Tables_number   1
_chemical_formula_structural   Cu4H40C44N12O11
_chemical_formula_sum   'Cu8 H80 C88 N24 O22'
_cell_volume   4477.95503645
_cell_formula_units_Z   2
loop_
 _symmetry_equiv_pos_site_id
 _symmetry_equiv_pos_as_xyz
  1  'x, y, z'
loop_
 _atom_site_type_symbol
 _atom_site_label
 _atom_site_symmetry_multiplicity
 _atom_site_fract_x
 _atom_site_fract_y
 _atom_site_fract_z
 _atom_site_occupancy
  Cu  Cu0  1  0.58074626  0.42216614  0.46013878  1.0
  Cu  Cu1  1  0.58077359  0.57781293  0.53991602  1.0
  Cu  Cu2  1  0.41937396  0.53997747  0.42217292  1.0
  Cu  Cu3  1  0.41934427  0.46002093  0.57787440  1.0
  Cu  Cu4  1  0.91935940  0.07787052  0.96008910  1.0
  Cu  Cu5  1  0.91936578  0.92213336  0.03988752  1.0
  Cu  Cu6  1  0.08068923  0.96002111  0.92213968  1.0
  Cu  Cu7  1  0.08070819  0.03994883  0.07778266  1.0
  H  H8  1  0.80373003  0.18315403  0.48548560  1.0
  H  H9  1  0.89467239  0.10032910  0.39389724  1.0
  H  H10  1  0.79937499  0.22695386  0.18676343  1.0
  H  H11  1  0.71220748  0.31114661  0.27913930  1.0
  H  H12  1  0.75648566  0.02845367  0.25225986  1.0
  H  H13  1  0.81660714  0.95617430  0.30470672  1.0
  H  H14  1  0.79203504  0.94038835  0.20020162  1.0
  H  H15  1  0.06569200  0.20348792  0.15779530  1.0
  H  H16  1  0.02434051  0.22788203  0.25516555  1.0
  H  H17  1  0.96893679  0.25262896  0.16568872  1.0
  H  H18  1  0.80369723  0.81687986  0.51453745  1.0
  H  H19  1  0.89466079  0.89969469  0.60611999  1.0
  H  H20  1  0.79942980  0.77306037  0.81326237  1.0
  H  H21  1  0.71224416  0.68882843  0.72089688  1.0
  H  H22  1  0.75655988  0.97151985  0.74774931  1.0
  H  H23  1  0.81664174  0.04382006  0.69528087  1.0
  H  H24  1  0.79209187  0.05960174  0.79979755  1.0
  H  H25  1  0.06573569  0.79649179  0.84217234  1.0
  H  H26  1  0.02434708  0.77210908  0.74481314  1.0
  H  H27  1  0.96896642  0.74737863  0.83430705  1.0
  H  H28  1  0.19607179  0.51444479  0.18323576  1.0
  H  H29  1  0.10512177  0.60604544  0.10040821  1.0
  H  H30  1  0.20063924  0.81318580  0.22695845  1.0
  H  H31  1  0.28779009  0.72076720  0.31110795  1.0
  H  H32  1  0.24348587  0.74759661  0.02847778  1.0
  H  H33  1  0.18332281  0.69517555  0.95619363  1.0
  H  H34  1  0.20793135  0.79967267  0.94042813  1.0
  H  H35  1  0.93426433  0.84221298  0.20347448  1.0
  H  H36  1  0.97559838  0.74484217  0.22787053  1.0
  H  H37  1  0.03103060  0.83428911  0.25259103  1.0
  H  H38  1  0.19608838  0.48558098  0.81676533  1.0
  H  H39  1  0.10514226  0.39398922  0.89960595  1.0
  H  H40  1  0.20060710  0.18683366  0.77306828  1.0
  H  H41  1  0.28776176  0.27923462  0.68889754  1.0
  H  H42  1  0.24341831  0.25240491  0.97153114  1.0
  H  H43  1  0.18325034  0.30483172  0.04380482  1.0
  H  H44  1  0.20788718  0.20034795  0.05960772  1.0
  H  H45  1  0.93428274  0.15778778  0.79646169  1.0
  H  H46  1  0.97561792  0.25516592  0.77206426  1.0
  H  H47  1  0.03103178  0.16572970  0.74733152  1.0
  H  H48  1  0.69621205  0.31679806  0.98552497  1.0
  H  H49  1  0.60524595  0.39960621  0.89392849  1.0
  H  H50  1  0.70059000  0.27303894  0.68680125  1.0
  H  H51  1  0.78777646  0.18884626  0.77918465  1.0
  H  H52  1  0.74349735  0.47146312  0.75226741  1.0
  H  H53  1  0.68342685  0.54375656  0.80474904  1.0
  H  H54  1  0.70796932  0.55954740  0.70024537  1.0
  H  H55  1  0.43423246  0.29650553  0.65781285  1.0
  H  H56  1  0.47559436  0.27212019  0.75517811  1.0
  H  H57  1  0.53098828  0.24735774  0.66571277  1.0
  H  H58  1  0.69618968  0.68322535  0.01451969  1.0
  H  H59  1  0.60522542  0.60041218  0.10609478  1.0
  H  H60  1  0.70060587  0.72695397  0.31322614  1.0
  H  H61  1  0.78780861  0.81114835  0.22085051  1.0
  H  H62  1  0.74349260  0.52854509  0.24773491  1.0
  H  H63  1  0.68340190  0.45625681  0.19524945  1.0
  H  H64  1  0.70797469  0.44045936  0.29975485  1.0
  H  H65  1  0.43423741  0.70347100  0.34219704  1.0
  H  H66  1  0.47559362  0.72786973  0.24483766  1.0
  H  H67  1  0.53100714  0.75262122  0.33430113  1.0
  H  H68  1  0.30391369  0.98556460  0.68319040  1.0
  H  H69  1  0.39486368  0.89395152  0.60038464  1.0
  H  H70  1  0.29938412  0.68680358  0.72696473  1.0
  H  H71  1  0.21222736  0.77922048  0.81110403  1.0
  H  H72  1  0.25656263  0.75237596  0.52846864  1.0
  H  H73  1  0.31673121  0.80480505  0.45620163  1.0
  H  H74  1  0.29212191  0.70031184  0.44040233  1.0
  H  H75  1  0.56570378  0.65775576  0.70355077  1.0
  H  H76  1  0.52437952  0.75513423  0.72796028  1.0
  H  H77  1  0.46894957  0.66567865  0.75265414  1.0
  H  H78  1  0.30390861  0.01445536  0.31682472  1.0
  H  H79  1  0.39485231  0.10607768  0.39963615  1.0
  H  H80  1  0.29938256  0.31321605  0.27309065  1.0
  H  H81  1  0.21221487  0.22080106  0.18890971  1.0
  H  H82  1  0.25657553  0.24765556  0.47152837  1.0
  H  H83  1  0.31670865  0.19521950  0.54382218  1.0
  H  H84  1  0.29210373  0.29972356  0.55960826  1.0
  H  H85  1  0.56569971  0.34222399  0.29648644  1.0
  H  H86  1  0.52437245  0.24484485  0.27207348  1.0
  H  H87  1  0.46895769  0.33429928  0.24735912  1.0
  C  C88  1  0.69814645  0.29985390  0.44394139  1.0
  C  C89  1  0.75335036  0.25223336  0.38779772  1.0
  C  C90  1  0.80449529  0.19268556  0.42025553  1.0
  C  C91  1  0.85425926  0.14686485  0.36966891  1.0
  C  C92  1  0.85185623  0.16014688  0.28619287  1.0
  C  C93  1  0.80122074  0.21901978  0.25234570  1.0
  C  C94  1  0.75257419  0.26516050  0.30393107  1.0
  C  C95  1  0.80756004  0.98595808  0.24586777  1.0
  C  C96  1  0.88216922  0.02881323  0.21848268  1.0
  C  C97  1  0.97015277  0.12726270  0.19456520  1.0
  C  C98  1  0.00967485  0.20771156  0.19350400  1.0
  C  C99  1  0.69813704  0.70017932  0.55607047  1.0
  C  C100  1  0.75335447  0.74777741  0.61222379  1.0
  C  C101  1  0.80449164  0.80732844  0.57976383  1.0
  C  C102  1  0.85425576  0.85315107  0.63034722  1.0
  C  C103  1  0.85186371  0.83985133  0.71381861  1.0
  C  C104  1  0.80124405  0.78097221  0.74767392  1.0
  C  C105  1  0.75259114  0.73482905  0.69609170  1.0
  C  C106  1  0.80760938  0.01404164  0.75412113  1.0
  C  C107  1  0.88223672  0.97120115  0.78146356  1.0
  C  C108  1  0.97019350  0.87273773  0.80539964  1.0
  C  C109  1  0.00970462  0.79228389  0.80647824  1.0
  C  C110  1  0.30180937  0.55602762  0.29985292  1.0
  C  C111  1  0.24657659  0.61214933  0.25222940  1.0
  C  C112  1  0.19538243  0.57968059  0.19271356  1.0
  C  C113  1  0.14561708  0.63027204  0.14688987  1.0
  C  C114  1  0.14807892  0.71374877  0.16015142  1.0
  C  C115  1  0.19875187  0.74760853  0.21899597  1.0
  C  C116  1  0.24739258  0.69600924  0.26512880  1.0
  C  C117  1  0.19240477  0.75399520  0.98598589  1.0
  C  C118  1  0.11778046  0.78139778  0.02880070  1.0
  C  C119  1  0.02980879  0.80541001  0.12723511  1.0
  C  C120  1  0.99027490  0.80649271  0.20768129  1.0
  C  C121  1  0.30182265  0.44396376  0.70015813  1.0
  C  C122  1  0.24658277  0.38786512  0.74778895  1.0
  C  C123  1  0.19539158  0.42034332  0.80729725  1.0
  C  C124  1  0.14562334  0.36975418  0.85312238  1.0
  C  C125  1  0.14807205  0.28627703  0.83986547  1.0
  C  C126  1  0.19873611  0.25241140  0.78101761  1.0
  C  C127  1  0.24738204  0.30400224  0.73488586  1.0
  C  C128  1  0.19234927  0.24600490  0.01403423  1.0
  C  C129  1  0.11774986  0.21858282  0.97119314  1.0
  C  C130  1  0.02981054  0.19458030  0.87271897  1.0
  C  C131  1  0.99028801  0.19351466  0.79225963  1.0
  C  C132  1  0.80188814  0.20017386  0.94395322  1.0
  C  C133  1  0.74664785  0.24777577  0.88782979  1.0
  C  C134  1  0.69547035  0.30729122  0.92029309  1.0
  C  C135  1  0.64570063  0.35310578  0.86970497  1.0
  C  C136  1  0.64811393  0.33983714  0.78623083  1.0
  C  C137  1  0.69875799  0.28097502  0.75238048  1.0
  C  C138  1  0.74741409  0.23484134  0.80396449  1.0
  C  C139  1  0.69243845  0.51397876  0.74590712  1.0
  C  C140  1  0.61780037  0.47116575  0.71853993  1.0
  C  C141  1  0.52980282  0.37273113  0.69460172  1.0
  C  C142  1  0.49025776  0.29228797  0.69351646  1.0
  C  C143  1  0.80185529  0.79977585  0.05600952  1.0
  C  C144  1  0.74663759  0.75223329  0.11220190  1.0
  C  C145  1  0.69544746  0.69272548  0.07974982  1.0
  C  C146  1  0.64567748  0.64691202  0.13032727  1.0
  C  C147  1  0.64811363  0.66017842  0.21379880  1.0
  C  C148  1  0.69876993  0.71903347  0.24764403  1.0
  C  C149  1  0.74743041  0.76516838  0.19606473  1.0
  C  C150  1  0.69243556  0.48602683  0.25409249  1.0
  C  C151  1  0.61779556  0.52883242  0.28145940  1.0
  C  C152  1  0.52980819  0.62726709  0.30540562  1.0
  C  C153  1  0.49026338  0.70770305  0.30649817  1.0
  C  C154  1  0.19818773  0.94396104  0.79985389  1.0
  C  C155  1  0.25341940  0.88785459  0.75220920  1.0
  C  C156  1  0.30461097  0.92032670  0.69268800  1.0
  C  C157  1  0.35437971  0.86972384  0.64687605  1.0
  C  C158  1  0.35192321  0.78624429  0.66014826  1.0
  C  C159  1  0.30125766  0.75238459  0.71899789  1.0
  C  C160  1  0.25261176  0.80398934  0.76511802  1.0
  C  C161  1  0.30764323  0.74597466  0.48597656  1.0
  C  C162  1  0.38224975  0.71855312  0.52882169  1.0
  C  C163  1  0.47020082  0.69456569  0.62728611  1.0
  C  C164  1  0.50970290  0.69348933  0.70775182  1.0
  C  C165  1  0.19816150  0.05604857  0.20014281  1.0
  C  C166  1  0.25340127  0.11215916  0.24779592  1.0
  C  C167  1  0.30459810  0.07969089  0.30731922  1.0
  C  C168  1  0.35437089  0.13029145  0.35313336  1.0
  C  C169  1  0.35191257  0.21377020  0.33986860  1.0
  C  C170  1  0.30124600  0.24762912  0.28102107  1.0
  C  C171  1  0.25260037  0.19602798  0.23489321  1.0
  C  C172  1  0.30763408  0.25405224  0.51404613  1.0
  C  C173  1  0.38224456  0.28144853  0.47120612  1.0
  C  C174  1  0.47019288  0.30543229  0.37274095  1.0
  C  C175  1  0.50969941  0.30649348  0.29227764  1.0
  N  N176  1  0.94010054  0.99906577  0.17190991  1.0
  N  N177  1  0.99465276  0.06055767  0.15731463  1.0
  N  N178  1  0.89926774  0.10886780  0.23482645  1.0
  N  N179  1  0.94020668  0.00096806  0.82797079  1.0
  N  N180  1  0.99473300  0.93946212  0.84258362  1.0
  N  N181  1  0.89929090  0.89112731  0.76516987  1.0
  N  N182  1  0.05986663  0.82796520  0.99901078  1.0
  N  N183  1  0.00533341  0.84262603  0.06050372  1.0
  N  N184  1  0.10067562  0.76511459  0.10886539  1.0
  N  N185  1  0.05985407  0.17197658  0.00094401  1.0
  N  N186  1  0.00533562  0.15733282  0.93943714  1.0
  N  N187  1  0.10065620  0.23490100  0.89113158  1.0
  N  N188  1  0.55987643  0.50093678  0.67197303  1.0
  N  N189  1  0.50531891  0.43945443  0.65737757  1.0
  N  N190  1  0.60068864  0.39111166  0.73487166  1.0
  N  N191  1  0.55985732  0.49905221  0.32799934  1.0
  N  N192  1  0.50531369  0.56054376  0.34261473  1.0
  N  N193  1  0.60069901  0.60889551  0.26515197  1.0
  N  N194  1  0.44016835  0.67196852  0.49906825  1.0
  N  N195  1  0.49470141  0.65732497  0.56057236  1.0
  N  N196  1  0.39933778  0.73486245  0.60888464  1.0
  N  N197  1  0.44017773  0.32800544  0.50096839  1.0
  N  N198  1  0.49470490  0.34265127  0.43946732  1.0
  N  N199  1  0.39932020  0.26515197  0.39113762  1.0
  O  O200  1  0.66574839  0.36227429  0.40813229  1.0
  O  O201  1  0.68687247  0.27754614  0.51477042  1.0
  O  O202  1  0.66576328  0.63775046  0.59188691  1.0
  O  O203  1  0.68683520  0.72248866  0.48524715  1.0
  O  O204  1  0.33427776  0.59183276  0.36224585  1.0
  O  O205  1  0.31303708  0.48520039  0.27753448  1.0
  O  O206  1  0.33426843  0.40812358  0.63777661  1.0
  O  O207  1  0.31308889  0.51479788  0.72243883  1.0
  O  O208  1  0.83431897  0.13778182  0.90812690  1.0
  O  O209  1  0.81316558  0.22247014  0.01478647  1.0
  O  O210  1  0.83429709  0.86220841  0.09175594  1.0
  O  O211  1  0.81308525  0.77738187  0.98520322  1.0
  O  O212  1  0.16578156  0.90813824  0.86226910  1.0
  O  O213  1  0.18689938  0.01478229  0.77755108  1.0
  O  O214  1  0.16572010  0.09188102  0.13774703  1.0
  O  O215  1  0.18690397  0.98521376  0.22241142  1.0
  O  O216  1  0.49999950  0.49999316  0.50004201  1.0
  O  O217  1  0.00005149  0.99998981  0.99998208  1.0
  O  O218  1  0.64763788  0.50001743  0.49994863  1.0
  O  O219  1  0.35256516  0.49984251  0.49993406  1.0
  O  O220  1  0.85256056  0.99992324  0.99982278  1.0
  O  O221  1  0.14753897  0.99995302  0.99995523  1.0
