# generated using pymatgen
data_FeH14C16(NO3)2
_symmetry_space_group_name_H-M   'P 1'
_cell_length_a   7.84917577
_cell_length_b   11.61533117
_cell_length_c   12.24995811
_cell_angle_alpha   118.15813334
_cell_angle_beta   100.11070064
_cell_angle_gamma   90.09611118
_symmetry_Int_Tables_number   1
_chemical_formula_structural   FeH14C16(NO3)2
_chemical_formula_sum   'Fe2 H28 C32 N4 O12'
_cell_volume   964.76032104
_cell_formula_units_Z   2
loop_
 _symmetry_equiv_pos_site_id
 _symmetry_equiv_pos_as_xyz
  1  'x, y, z'
loop_
 _atom_site_type_symbol
 _atom_site_label
 _atom_site_symmetry_multiplicity
 _atom_site_fract_x
 _atom_site_fract_y
 _atom_site_fract_z
 _atom_site_occupancy
  Fe  Fe0  1  0.00000228  0.50000019  0.50000057  1.0
  Fe  Fe1  1  0.49999933  0.99999988  0.49999847  1.0
  H  H2  1  0.16542601  0.29117902  0.38810590  1.0
  H  H3  1  0.33414576  0.90223056  0.61148540  1.0
  H  H4  1  0.83457705  0.70882222  0.61189653  1.0
  H  H5  1  0.66585199  0.09776903  0.38851436  1.0
  H  H6  1  0.97810558  0.23932763  0.39262840  1.0
  H  H7  1  0.52190449  0.84618903  0.60748137  1.0
  H  H8  1  0.02189607  0.76067400  0.60737344  1.0
  H  H9  1  0.47809196  0.15380960  0.39251741  1.0
  H  H10  1  0.22834182  0.68418374  0.73782244  1.0
  H  H11  1  0.27402328  0.94633579  0.25992719  1.0
  H  H12  1  0.77165983  0.31581869  0.26218022  1.0
  H  H13  1  0.72597408  0.05366061  0.74006630  1.0
  H  H14  1  0.41631845  0.67617960  0.91721113  1.0
  H  H15  1  0.08687840  0.75883440  0.08041070  1.0
  H  H16  1  0.58368192  0.32382510  0.08279386  1.0
  H  H17  1  0.91312319  0.24115919  0.91958290  1.0
  H  H18  1  0.20128517  0.27348441  0.75812027  1.0
  H  H19  1  0.29545952  0.51725662  0.24391782  1.0
  H  H20  1  0.79872048  0.72651710  0.24188244  1.0
  H  H21  1  0.70453978  0.48274284  0.75608379  1.0
  H  H22  1  0.01486194  0.30139358  0.58866020  1.0
  H  H23  1  0.48253416  0.71419406  0.41256086  1.0
  H  H24  1  0.98514253  0.69860644  0.41134198  1.0
  H  H25  1  0.51746101  0.28580605  0.58743943  1.0
  H  H26  1  0.42438728  0.35604223  0.94220920  1.0
  H  H27  1  0.07361129  0.41570464  0.06053312  1.0
  H  H28  1  0.57561697  0.64396210  0.05779540  1.0
  H  H29  1  0.92639081  0.58428999  0.93946553  1.0
  C  C30  1  0.22785426  0.59494058  0.74587002  1.0
  C  C31  1  0.27355416  0.84942697  0.25272760  1.0
  C  C32  1  0.77214868  0.40506200  0.25413279  1.0
  C  C33  1  0.72644461  0.15056902  0.74726647  1.0
  C  C34  1  0.33261721  0.58871566  0.84566452  1.0
  C  C35  1  0.16914343  0.74333017  0.15286949  1.0
  C  C36  1  0.66738457  0.41128703  0.15433941  1.0
  C  C37  1  0.83085700  0.25666354  0.84712523  1.0
  C  C38  1  0.33119725  0.47110368  0.85317501  1.0
  C  C39  1  0.16868360  0.61877003  0.14660990  1.0
  C  C40  1  0.66880712  0.52889930  0.14682920  1.0
  C  C41  1  0.83131670  0.38122504  0.85338521  1.0
  C  C42  1  0.21263315  0.36667460  0.75742279  1.0
  C  C43  1  0.28565486  0.61061149  0.24343467  1.0
  C  C44  1  0.78737121  0.63332757  0.24258060  1.0
  C  C45  1  0.71434418  0.38938744  0.75656441  1.0
  C  C46  1  0.10923043  0.38039397  0.66132984  1.0
  C  C47  1  0.38928738  0.72020602  0.33916184  1.0
  C  C48  1  0.89077651  0.61960608  0.33867137  1.0
  C  C49  1  0.61071024  0.27979331  0.66083665  1.0
  C  C50  1  0.37670224  0.53430462  0.49922936  1.0
  C  C51  1  0.12328069  0.03513071  0.50064172  1.0
  C  C52  1  0.62329786  0.46569634  0.50076980  1.0
  C  C53  1  0.87671552  0.96486903  0.49935619  1.0
  C  C54  1  0.44279115  0.40404981  0.45851744  1.0
  C  C55  1  0.05711251  0.94543378  0.54146427  1.0
  C  C56  1  0.55720776  0.59594966  0.54148120  1.0
  C  C57  1  0.94288229  0.05456635  0.45853306  1.0
  C  C58  1  0.44053691  0.45389107  0.95117279  1.0
  C  C59  1  0.05880541  0.50348839  0.04951883  1.0
  C  C60  1  0.55946746  0.54611352  0.04883308  1.0
  C  C61  1  0.94119668  0.49650463  0.95047817  1.0
  N  N62  1  0.11848098  0.49149846  0.65125411  1.0
  N  N63  1  0.38149106  0.84099894  0.34827117  1.0
  N  N64  1  0.88152337  0.50850211  0.34874764  1.0
  N  N65  1  0.61850643  0.15900013  0.65172606  1.0
  O  O66  1  0.03828389  0.30589166  0.37898771  1.0
  O  O67  1  0.46142123  0.92591703  0.62044944  1.0
  O  O68  1  0.96171917  0.69410957  0.62101471  1.0
  O  O69  1  0.53857510  0.07408216  0.37954891  1.0
  O  O70  1  0.23089792  0.58078461  0.49998108  1.0
  O  O71  1  0.26922778  0.08091802  0.49998013  1.0
  O  O72  1  0.76910113  0.41921593  0.50001965  1.0
  O  O73  1  0.73076702  0.91908291  0.50001802  1.0
  O  O74  1  0.37313985  0.28787826  0.40786567  1.0
  O  O75  1  0.12670641  0.87972781  0.59199790  1.0
  O  O76  1  0.62686179  0.71212176  0.59213452  1.0
  O  O77  1  0.87328839  0.12027313  0.40800025  1.0
