# generated using pymatgen
data_Zn4H30C36O13F2
_symmetry_space_group_name_H-M   'P 1'
_cell_length_a   17.78284084
_cell_length_b   18.64509139
_cell_length_c   23.45975807
_cell_angle_alpha   66.60192430
_cell_angle_beta   69.51149360
_cell_angle_gamma   89.92976456
_symmetry_Int_Tables_number   1
_chemical_formula_structural   Zn4H30C36O13F2
_chemical_formula_sum   'Zn8 H60 C72 O26 F4'
_cell_volume   6600.74161292
_cell_formula_units_Z   2
loop_
 _symmetry_equiv_pos_site_id
 _symmetry_equiv_pos_as_xyz
  1  'x, y, z'
loop_
 _atom_site_type_symbol
 _atom_site_label
 _atom_site_symmetry_multiplicity
 _atom_site_fract_x
 _atom_site_fract_y
 _atom_site_fract_z
 _atom_site_occupancy
  Zn  Zn0  1  0.88136554  0.47337398  0.05736950  1.0
  Zn  Zn1  1  0.02892465  0.61017539  0.94798339  1.0
  Zn  Zn2  1  0.02327373  0.43778796  0.95113693  1.0
  Zn  Zn3  1  0.06028250  0.46494409  0.06639516  1.0
  Zn  Zn4  1  0.61482366  0.02685609  0.95152022  1.0
  Zn  Zn5  1  0.47075207  0.05363231  0.06227866  1.0
  Zn  Zn6  1  0.47500312  0.88275351  0.06416584  1.0
  Zn  Zn7  1  0.43354208  0.02287395  0.94869798  1.0
  H  H8  1  0.50571215  0.13064841  0.73988623  1.0
  H  H9  1  0.56454807  0.19335258  0.61461928  1.0
  H  H10  1  0.80568328  0.18801844  0.61972839  1.0
  H  H11  1  0.67946314  0.30560698  0.38997455  1.0
  H  H12  1  0.98001948  0.36176799  0.27423440  1.0
  H  H13  1  0.91845587  0.29930649  0.39944498  1.0
  H  H14  1  0.37333196  0.75432868  0.26956723  1.0
  H  H15  1  0.30379355  0.68907788  0.39445923  1.0
  H  H16  1  0.29828870  0.92094131  0.39532740  1.0
  H  H17  1  0.19033977  0.57590507  0.61401792  1.0
  H  H18  1  0.13029898  0.73780085  0.74435246  1.0
  H  H19  1  0.18755542  0.80560920  0.61909142  1.0
  H  H20  1  0.80062885  0.21308963  0.08934964  1.0
  H  H21  1  0.87283726  0.21732228  0.01312066  1.0
  H  H22  1  0.78335702  0.12293255  0.01593541  1.0
  H  H23  1  0.71147763  0.11982866  0.09182475  1.0
  H  H24  1  0.78401495  0.21964090  0.90493379  1.0
  H  H25  1  0.71198632  0.28480661  0.90093908  1.0
  H  H26  1  0.87247054  0.31529608  0.90208097  1.0
  H  H27  1  0.79903632  0.37900961  0.89959224  1.0
  H  H28  1  0.69601350  0.30565966  0.08639745  1.0
  H  H29  1  0.69547776  0.37429011  0.00926863  1.0
  H  H30  1  0.60714275  0.28099403  0.00991317  1.0
  H  H31  1  0.60650046  0.21302679  0.08765663  1.0
  H  H32  1  0.10950646  0.70541528  0.09474479  1.0
  H  H33  1  0.11252932  0.77227115  0.01500994  1.0
  H  H34  1  0.20189412  0.86577262  0.01333371  1.0
  H  H35  1  0.19849534  0.79820151  0.09297165  1.0
  H  H36  1  0.30556274  0.86725715  0.90810948  1.0
  H  H37  1  0.37767055  0.80213707  0.91151865  1.0
  H  H38  1  0.21768389  0.77264047  0.90936089  1.0
  H  H39  1  0.28958660  0.70743552  0.91448782  1.0
  H  H40  1  0.21078296  0.60993589  0.10256105  1.0
  H  H41  1  0.28394062  0.60964639  0.02936527  1.0
  H  H42  1  0.37388866  0.70359650  0.02634572  1.0
  H  H43  1  0.30115282  0.70300596  0.09998653  1.0
  H  H44  1  0.83841147  0.73051214  0.06213767  1.0
  H  H45  1  0.75448436  0.65324787  0.10268414  1.0
  H  H46  1  0.66617335  0.74576008  0.10634228  1.0
  H  H47  1  0.75059153  0.82266857  0.06492720  1.0
  H  H48  1  0.60592628  0.70421731  0.03960085  1.0
  H  H49  1  0.64663286  0.75224629  0.95095742  1.0
  H  H50  1  0.69535673  0.61232722  0.03509570  1.0
  H  H51  1  0.73608792  0.66167487  0.94649700  1.0
  H  H52  1  0.89848565  0.80113011  0.93435282  1.0
  H  H53  1  0.85717433  0.77262502  0.88716691  1.0
  H  H54  1  0.76736726  0.86386066  0.89072576  1.0
  H  H55  1  0.80933995  0.89298296  0.93719073  1.0
  H  H56  1  0.10108075  0.19758299  0.07115646  1.0
  H  H57  1  0.14625371  0.22746022  0.11622037  1.0
  H  H58  1  0.23197159  0.13268847  0.11359137  1.0
  H  H59  1  0.18780770  0.10479504  0.06705801  1.0
  H  H60  1  0.35219546  0.24220204  0.05408546  1.0
  H  H61  1  0.39491594  0.29031000  0.96550201  1.0
  H  H62  1  0.26555062  0.33694664  0.05529359  1.0
  H  H63  1  0.30794753  0.38354270  0.96670726  1.0
  H  H64  1  0.16084917  0.26363376  0.94356043  1.0
  H  H65  1  0.24405125  0.34069327  0.90026680  1.0
  H  H66  1  0.33367207  0.24922700  0.89801934  1.0
  H  H67  1  0.25025872  0.17247614  0.93906508  1.0
  C  C68  1  0.85933353  0.63907314  0.99535208  1.0
  C  C69  1  0.09234149  0.58416468  0.82481480  1.0
  C  C70  1  0.85432015  0.36510025  0.99941160  1.0
  C  C71  1  0.13953397  0.35600153  0.01129454  1.0
  C  C72  1  0.90706419  0.40602132  0.18647827  1.0
  C  C73  1  0.13878307  0.63204716  0.01114850  1.0
  C  C74  1  0.63836981  0.13941640  0.00352879  1.0
  C  C75  1  0.41721019  0.90744850  0.18755604  1.0
  C  C76  1  0.64314866  0.86079583  0.00294284  1.0
  C  C77  1  0.35652563  0.85688463  0.00742670  1.0
  C  C78  1  0.58205588  0.08862604  0.82559531  1.0
  C  C79  1  0.35323426  0.13126066  0.00711451  1.0
  C  C80  1  0.62052665  0.12487082  0.75054246  1.0
  C  C81  1  0.57137286  0.14405988  0.71244189  1.0
  C  C82  1  0.60410938  0.17883932  0.64277044  1.0
  C  C83  1  0.68944863  0.19575248  0.60765709  1.0
  C  C84  1  0.73972096  0.17639043  0.64479331  1.0
  C  C85  1  0.70521894  0.14191239  0.71441699  1.0
  C  C86  1  0.72503660  0.23126338  0.53655363  1.0
  C  C87  1  0.75764061  0.26195140  0.47531319  1.0
  C  C88  1  0.79438681  0.29760965  0.40425953  1.0
  C  C89  1  0.74554220  0.31723528  0.36591520  1.0
  C  C90  1  0.78155985  0.35199042  0.29631652  1.0
  C  C91  1  0.86650504  0.36889538  0.26140600  1.0
  C  C92  1  0.91419701  0.34888259  0.30074658  1.0
  C  C93  1  0.87994020  0.31415342  0.37037783  1.0
  C  C94  1  0.37592056  0.87242186  0.26220244  1.0
  C  C95  1  0.35650437  0.78951843  0.29835463  1.0
  C  C96  1  0.31779151  0.75335610  0.36762940  1.0
  C  C97  1  0.29625994  0.80002443  0.40414216  1.0
  C  C98  1  0.31435943  0.88306799  0.36897310  1.0
  C  C99  1  0.35352250  0.91756755  0.29960779  1.0
  C  C100  1  0.25819363  0.76420728  0.47498701  1.0
  C  C101  1  0.22705751  0.73287703  0.53625477  1.0
  C  C102  1  0.19318164  0.69593917  0.60725732  1.0
  C  C103  1  0.17749643  0.61277464  0.64140078  1.0
  C  C104  1  0.14567822  0.57682063  0.71105713  1.0
  C  C105  1  0.12781811  0.62054857  0.74982083  1.0
  C  C106  1  0.14395122  0.70363048  0.71460818  1.0
  C  C107  1  0.17568744  0.74122714  0.64508442  1.0
  C  C108  1  0.80923691  0.22210426  0.03804489  1.0
  C  C109  1  0.74995971  0.15977608  0.03968959  1.0
  C  C110  1  0.69500252  0.20169264  0.00215569  1.0
  C  C111  1  0.75024861  0.25613167  0.92885552  1.0
  C  C112  1  0.80871410  0.31889064  0.92751303  1.0
  C  C113  1  0.79429016  0.30663064  0.99982306  1.0
  C  C114  1  0.70578748  0.31379869  0.03521004  1.0
  C  C115  1  0.64695438  0.25210092  0.03604018  1.0
  C  C116  1  0.15065568  0.74325080  0.04283800  1.0
  C  C117  1  0.21002695  0.80524061  0.04165193  1.0
  C  C118  1  0.29895927  0.79507601  0.00875150  1.0
  C  C119  1  0.31397570  0.80691771  0.93645617  1.0
  C  C120  1  0.25530454  0.74437548  0.93783408  1.0
  C  C121  1  0.19891437  0.69045946  0.01095501  1.0
  C  C122  1  0.25087538  0.64866903  0.05070981  1.0
  C  C123  1  0.31043576  0.71063047  0.04899936  1.0
  C  C124  1  0.78166180  0.71098539  0.05974293  1.0
  C  C125  1  0.72300141  0.77216921  0.06193052  1.0
  C  C126  1  0.70265483  0.80264059  0.99816979  1.0
  C  C127  1  0.66289785  0.73104213  0.99542528  1.0
  C  C128  1  0.72220101  0.67040822  0.99262495  1.0
  C  C129  1  0.80221097  0.70010030  0.99410166  1.0
  C  C130  1  0.84107072  0.78046063  0.93380766  1.0
  C  C131  1  0.78187103  0.84115233  0.93599407  1.0
  C  C132  1  0.15949359  0.21786031  0.07060456  1.0
  C  C133  1  0.21706789  0.15561740  0.06856469  1.0
  C  C134  1  0.29697547  0.19305809  0.00579620  1.0
  C  C135  1  0.33711662  0.26405385  0.00917240  1.0
  C  C136  1  0.27933176  0.32632657  0.01016223  1.0
  C  C137  1  0.19933996  0.29762620  0.00833675  1.0
  C  C138  1  0.21807868  0.28378586  0.94460083  1.0
  C  C139  1  0.27689312  0.22291818  0.94257766  1.0
  O  O140  1  0.99949051  0.49663856  0.00684504  1.0
  O  O141  1  0.82927570  0.56825162  0.03956905  1.0
  O  O142  1  0.08379989  0.63220703  0.85238175  1.0
  O  O143  1  0.92887880  0.37212585  0.96260835  1.0
  O  O144  1  0.93283628  0.66318277  0.95363434  1.0
  O  O145  1  0.82652463  0.40131400  0.03656791  1.0
  O  O146  1  0.07310361  0.50917611  0.85510636  1.0
  O  O147  1  0.09882388  0.36638053  0.97429731  1.0
  O  O148  1  0.98487909  0.41852001  0.16192627  1.0
  O  O149  1  0.13305012  0.38861160  0.05117797  1.0
  O  O150  1  0.86101517  0.42193094  0.15349830  1.0
  O  O151  1  0.10069031  0.66189777  0.97218735  1.0
  O  O152  1  0.13038347  0.55900401  0.04982455  1.0
  O  O153  1  0.49770620  0.99611246  0.00552849  1.0
  O  O154  1  0.67111593  0.09690971  0.97310445  1.0
  O  O155  1  0.44290065  0.98162210  0.15704427  1.0
  O  O156  1  0.57251423  0.83237835  0.04951783  1.0
  O  O157  1  0.56238826  0.13386898  0.03515607  1.0
  O  O158  1  0.66809459  0.93302409  0.96090579  1.0
  O  O159  1  0.42347748  0.85926234  0.16027428  1.0
  O  O160  1  0.39700008  0.83133255  0.04476683  1.0
  O  O161  1  0.50506129  0.06598752  0.85200264  1.0
  O  O162  1  0.35957448  0.92938185  0.96931212  1.0
  O  O163  1  0.62893480  0.08391964  0.85687290  1.0
  O  O164  1  0.37862981  0.10861542  0.05516911  1.0
  O  O165  1  0.37030510  0.10633228  0.96136970  1.0
  F  F166  1  0.75791491  0.12432275  0.74620606  1.0
  F  F167  1  0.73004823  0.36900611  0.26341690  1.0
  F  F168  1  0.36855844  0.99774448  0.26925072  1.0
  F  F169  1  0.13304200  0.49663125  0.74023187  1.0
