# generated using pymatgen
data_CdH26C25S2(NO)4
_symmetry_space_group_name_H-M   'P 1'
_cell_length_a   12.32772056
_cell_length_b   12.32766708
_cell_length_c   25.81231032
_cell_angle_alpha   89.99991461
_cell_angle_beta   90.00016188
_cell_angle_gamma   89.99973098
_symmetry_Int_Tables_number   1
_chemical_formula_structural   CdH26C25S2(NO)4
_chemical_formula_sum   'Cd4 H104 C100 S8 N16 O16'
_cell_volume   3922.74932523
_cell_formula_units_Z   4
loop_
 _symmetry_equiv_pos_site_id
 _symmetry_equiv_pos_as_xyz
  1  'x, y, z'
loop_
 _atom_site_type_symbol
 _atom_site_label
 _atom_site_symmetry_multiplicity
 _atom_site_fract_x
 _atom_site_fract_y
 _atom_site_fract_z
 _atom_site_occupancy
  Cd  Cd0  1  0.75000038  0.74999963  0.92433447  1.0
  Cd  Cd1  1  0.25000011  0.25000025  0.42433490  1.0
  Cd  Cd2  1  0.24999990  0.24999998  0.07566522  1.0
  Cd  Cd3  1  0.74999774  0.74999936  0.57566518  1.0
  H  H4  1  0.57884246  0.92620133  0.87323348  1.0
  H  H5  1  0.92116124  0.57379809  0.87323268  1.0
  H  H6  1  0.42620651  0.42116044  0.37323259  1.0
  H  H7  1  0.07380072  0.07883778  0.37323248  1.0
  H  H8  1  0.42116187  0.07379746  0.12676776  1.0
  H  H9  1  0.07883742  0.42619909  0.12676623  1.0
  H  H10  1  0.57379945  0.57883674  0.62676709  1.0
  H  H11  1  0.92619713  0.92116183  0.62676527  1.0
  H  H12  1  0.42527775  0.94732663  0.80918408  1.0
  H  H13  1  0.07472644  0.55267209  0.80918321  1.0
  H  H14  1  0.44732665  0.57472239  0.30918366  1.0
  H  H15  1  0.05267542  0.92527302  0.30918288  1.0
  H  H16  1  0.57472416  0.05267541  0.19081638  1.0
  H  H17  1  0.92527384  0.44732833  0.19081454  1.0
  H  H18  1  0.55267687  0.42527641  0.69081603  1.0
  H  H19  1  0.94732405  0.07472740  0.69081565  1.0
  H  H20  1  0.50673054  0.62655538  0.75250781  1.0
  H  H21  1  0.99327002  0.87344766  0.75250767  1.0
  H  H22  1  0.12656097  0.49326905  0.25250818  1.0
  H  H23  1  0.37344474  0.00673360  0.25250775  1.0
  H  H24  1  0.49326812  0.37344423  0.24749304  1.0
  H  H25  1  0.00673188  0.12655600  0.24749473  1.0
  H  H26  1  0.87344174  0.50673461  0.74749267  1.0
  H  H27  1  0.62655635  0.99326277  0.74749387  1.0
  H  H28  1  0.64847797  0.61801804  0.82086366  1.0
  H  H29  1  0.85151894  0.88198316  0.82086255  1.0
  H  H30  1  0.11802302  0.35152358  0.32086399  1.0
  H  H31  1  0.38197984  0.14848292  0.32086308  1.0
  H  H32  1  0.35152069  0.38197913  0.17913641  1.0
  H  H33  1  0.14848134  0.11801645  0.17913830  1.0
  H  H34  1  0.88197807  0.64848171  0.67913648  1.0
  H  H35  1  0.61801801  0.85151264  0.67913816  1.0
  H  H36  1  0.32659332  0.64141672  0.72857491  1.0
  H  H37  1  0.17340472  0.85858550  0.72857396  1.0
  H  H38  1  0.14141724  0.67340776  0.22857459  1.0
  H  H39  1  0.35858436  0.82659439  0.22857429  1.0
  H  H40  1  0.67340859  0.35858370  0.27142477  1.0
  H  H41  1  0.82659638  0.14141573  0.27142534  1.0
  H  H42  1  0.85858385  0.32659347  0.77142549  1.0
  H  H43  1  0.64141349  0.17340684  0.77142655  1.0
  H  H44  1  0.41785485  0.70025253  0.68176822  1.0
  H  H45  1  0.08214373  0.79974821  0.68176679  1.0
  H  H46  1  0.20025301  0.58214388  0.18176754  1.0
  H  H47  1  0.29974831  0.91785680  0.18176671  1.0
  H  H48  1  0.58214544  0.29974708  0.31823186  1.0
  H  H49  1  0.91785737  0.20025302  0.31823251  1.0
  H  H50  1  0.79974808  0.41785735  0.81823254  1.0
  H  H51  1  0.70025197  0.08214525  0.81823336  1.0
  H  H52  1  0.17295332  0.59228785  0.66327420  1.0
  H  H53  1  0.32704271  0.90771295  0.66327381  1.0
  H  H54  1  0.09229001  0.82704938  0.16327233  1.0
  H  H55  1  0.40771121  0.67295135  0.16327298  1.0
  H  H56  1  0.82704858  0.40770851  0.33672820  1.0
  H  H57  1  0.67295352  0.09228585  0.33672472  1.0
  H  H58  1  0.90771027  0.17295185  0.83672697  1.0
  H  H59  1  0.59228988  0.32704744  0.83672825  1.0
  H  H60  1  0.15347977  0.68428998  0.61092394  1.0
  H  H61  1  0.34651920  0.81570936  0.61092441  1.0
  H  H62  1  0.18429303  0.84652008  0.11092217  1.0
  H  H63  1  0.31570788  0.65348000  0.11092271  1.0
  H  H64  1  0.84651889  0.31570558  0.38907807  1.0
  H  H65  1  0.65348027  0.18428781  0.38907489  1.0
  H  H66  1  0.81570969  0.15348196  0.88907752  1.0
  H  H67  1  0.68429402  0.34652123  0.88907736  1.0
  H  H68  1  0.10646163  0.41642126  0.49470465  1.0
  H  H69  1  0.39353657  0.08357658  0.49470535  1.0
  H  H70  1  0.91641706  0.89353237  0.99470522  1.0
  H  H71  1  0.58357924  0.60646262  0.99470471  1.0
  H  H72  1  0.89352892  0.58358322  0.50529465  1.0
  H  H73  1  0.60646209  0.91642221  0.50529588  1.0
  H  H74  1  0.08358403  0.10646886  0.00529447  1.0
  H  H75  1  0.41642104  0.39353943  0.00529537  1.0
  H  H76  1  0.11216900  0.54918997  0.56768994  1.0
  H  H77  1  0.38782810  0.95080870  0.56768959  1.0
  H  H78  1  0.04918429  0.88783080  0.06769036  1.0
  H  H79  1  0.45081069  0.61216861  0.06768957  1.0
  H  H80  1  0.88783047  0.45081532  0.43230897  1.0
  H  H81  1  0.61216813  0.04918929  0.43231009  1.0
  H  H82  1  0.95081761  0.11216963  0.93230855  1.0
  H  H83  1  0.54918959  0.38783343  0.93231089  1.0
  H  H84  1  0.46136343  0.50407517  0.57027113  1.0
  H  H85  1  0.03863449  0.99592186  0.57026873  1.0
  H  H86  1  0.00408270  0.53863506  0.07027217  1.0
  H  H87  1  0.49592284  0.96136434  0.07027080  1.0
  H  H88  1  0.53863361  0.49591551  0.42972778  1.0
  H  H89  1  0.96136336  0.00407531  0.42973018  1.0
  H  H90  1  0.99591758  0.46136698  0.92972791  1.0
  H  H91  1  0.50407744  0.03863771  0.92972966  1.0
  H  H92  1  0.43832196  0.37171696  0.49776739  1.0
  H  H93  1  0.06167788  0.12828411  0.49776683  1.0
  H  H94  1  0.87171778  0.56167082  0.99777013  1.0
  H  H95  1  0.62828097  0.93832254  0.99776827  1.0
  H  H96  1  0.56166940  0.62827778  0.50223036  1.0
  H  H97  1  0.93832240  0.87171793  0.50223402  1.0
  H  H98  1  0.12828169  0.43833123  0.00223072  1.0
  H  H99  1  0.37171688  0.06167950  0.00223141  1.0
  H  H100  1  0.77227848  0.49617617  0.94860633  1.0
  H  H101  1  0.72772152  0.00382116  0.94860609  1.0
  H  H102  1  0.99617792  0.22772174  0.44860562  1.0
  H  H103  1  0.50382321  0.27227796  0.44860604  1.0
  H  H104  1  0.22772180  0.50382344  0.05139452  1.0
  H  H105  1  0.27227876  0.99617764  0.05139399  1.0
  H  H106  1  0.00382074  0.77227787  0.55139407  1.0
  H  H107  1  0.49617626  0.72772165  0.55139404  1.0
  C  C108  1  0.55666488  0.86101634  0.84653189  1.0
  C  C109  1  0.94334110  0.63898235  0.84653223  1.0
  C  C110  1  0.36102320  0.44334083  0.34653172  1.0
  C  C111  1  0.13898144  0.05665991  0.34653054  1.0
  C  C112  1  0.44333946  0.13898083  0.15346780  1.0
  C  C113  1  0.05666243  0.36101726  0.15346784  1.0
  C  C114  1  0.63897952  0.55666041  0.65346758  1.0
  C  C115  1  0.86101398  0.94333808  0.65346760  1.0
  C  C116  1  0.47374025  0.87344636  0.81070396  1.0
  C  C117  1  0.02626151  0.62655074  0.81070181  1.0
  C  C118  1  0.37344856  0.52626165  0.31070189  1.0
  C  C119  1  0.12655271  0.97373862  0.31070118  1.0
  C  C120  1  0.52626247  0.12655568  0.18929766  1.0
  C  C121  1  0.97373796  0.37345131  0.18929556  1.0
  C  C122  1  0.62655659  0.47373796  0.68929741  1.0
  C  C123  1  0.87344676  0.02626180  0.68929619  1.0
  C  C124  1  0.45262047  0.78791284  0.77616736  1.0
  C  C125  1  0.04738190  0.71208923  0.77616594  1.0
  C  C126  1  0.28791516  0.54738350  0.27616482  1.0
  C  C127  1  0.21209078  0.95261769  0.27616540  1.0
  C  C128  1  0.54738063  0.21208758  0.22383427  1.0
  C  C129  1  0.95262081  0.28791200  0.22383452  1.0
  C  C130  1  0.71208675  0.45261854  0.72383448  1.0
  C  C131  1  0.78791031  0.04738111  0.72383352  1.0
  C  C132  1  0.51718413  0.69447895  0.77887467  1.0
  C  C133  1  0.98281172  0.80552158  0.77887340  1.0
  C  C134  1  0.19447631  0.48281594  0.27887356  1.0
  C  C135  1  0.30552226  0.01718744  0.27887342  1.0
  C  C136  1  0.48281291  0.30552309  0.22112657  1.0
  C  C137  1  0.01718775  0.19448128  0.22112707  1.0
  C  C138  1  0.80552317  0.51718853  0.72112690  1.0
  C  C139  1  0.69447802  0.98280974  0.72112705  1.0
  C  C140  1  0.59746024  0.69003747  0.81681554  1.0
  C  C141  1  0.90253826  0.80996131  0.81681493  1.0
  C  C142  1  0.19004269  0.40253955  0.31681711  1.0
  C  C143  1  0.30995933  0.09746290  0.31681575  1.0
  C  C144  1  0.40253923  0.30996051  0.18318376  1.0
  C  C145  1  0.09745959  0.19003667  0.18318670  1.0
  C  C146  1  0.80996164  0.59746168  0.68318413  1.0
  C  C147  1  0.69003527  0.90253671  0.68318704  1.0
  C  C148  1  0.34681255  0.71524819  0.70661212  1.0
  C  C149  1  0.15318616  0.78475409  0.70661081  1.0
  C  C150  1  0.21524839  0.65318806  0.20661071  1.0
  C  C151  1  0.28475308  0.84681253  0.20661069  1.0
  C  C152  1  0.65318935  0.28475142  0.29338834  1.0
  C  C153  1  0.84681412  0.21524795  0.29338772  1.0
  C  C154  1  0.78475270  0.34681317  0.79338898  1.0
  C  C155  1  0.71524639  0.15318789  0.79338861  1.0
  C  C156  1  0.24999967  0.75000038  0.67323572  1.0
  C  C157  1  0.25000064  0.75000035  0.17323476  1.0
  C  C158  1  0.75000143  0.24999760  0.32676396  1.0
  C  C159  1  0.75000127  0.25000088  0.82676454  1.0
  C  C160  1  0.21287695  0.65475541  0.63943713  1.0
  C  C161  1  0.28712218  0.84524384  0.63943711  1.0
  C  C162  1  0.15475738  0.78712282  0.13943608  1.0
  C  C163  1  0.34524289  0.71287718  0.13943624  1.0
  C  C164  1  0.78712333  0.34524014  0.36056372  1.0
  C  C165  1  0.71287729  0.15475334  0.36056219  1.0
  C  C166  1  0.84524371  0.21287760  0.86056322  1.0
  C  C167  1  0.65475901  0.28712486  0.86056422  1.0
  C  C168  1  0.18341666  0.43805774  0.51318580  1.0
  C  C169  1  0.31658247  0.06194166  0.51318564  1.0
  C  C170  1  0.93805584  0.81657606  0.01318522  1.0
  C  C171  1  0.56194283  0.68341630  0.01318656  1.0
  C  C172  1  0.81657389  0.56194430  0.48681427  1.0
  C  C173  1  0.68341782  0.93805876  0.48681560  1.0
  C  C174  1  0.06194444  0.18342436  0.98681447  1.0
  C  C175  1  0.43805583  0.31658493  0.98681429  1.0
  C  C176  1  0.18722509  0.51171070  0.55411315  1.0
  C  C177  1  0.31277354  0.98828801  0.55411422  1.0
  C  C178  1  0.01170954  0.81277940  0.05411467  1.0
  C  C179  1  0.48829267  0.68722411  0.05411388  1.0
  C  C180  1  0.81277681  0.48828810  0.44588499  1.0
  C  C181  1  0.68722431  0.01170917  0.44588740  1.0
  C  C182  1  0.98829156  0.18722265  0.94588463  1.0
  C  C183  1  0.51170681  0.31277875  0.94588620  1.0
  C  C184  1  0.28896004  0.53692769  0.57527637  1.0
  C  C185  1  0.21103628  0.96306771  0.57527500  1.0
  C  C186  1  0.03693591  0.71103743  0.07527478  1.0
  C  C187  1  0.46307047  0.78895952  0.07527621  1.0
  C  C188  1  0.71103699  0.46306381  0.42472526  1.0
  C  C189  1  0.78895913  0.03692785  0.42472469  1.0
  C  C190  1  0.96306924  0.28896381  0.92472413  1.0
  C  C191  1  0.53692981  0.21104333  0.92472426  1.0
  C  C192  1  0.38134377  0.48619041  0.55464443  1.0
  C  C193  1  0.11865560  0.01380887  0.55464326  1.0
  C  C194  1  0.98618779  0.61864792  0.05464500  1.0
  C  C195  1  0.51380869  0.88134350  0.05464419  1.0
  C  C196  1  0.61864678  0.51381001  0.44535526  1.0
  C  C197  1  0.88134387  0.98618993  0.44535643  1.0
  C  C198  1  0.01381411  0.38135331  0.94535508  1.0
  C  C199  1  0.48619322  0.11865773  0.94535588  1.0
  C  C200  1  0.36825381  0.41336164  0.51427418  1.0
  C  C201  1  0.13174694  0.08663858  0.51427336  1.0
  C  C202  1  0.91336072  0.63174390  0.01427622  1.0
  C  C203  1  0.58663634  0.86825414  0.01427475  1.0
  C  C204  1  0.63174161  0.58663878  0.48572435  1.0
  C  C205  1  0.86825415  0.91336185  0.48572711  1.0
  C  C206  1  0.08663875  0.36825733  0.98572424  1.0
  C  C207  1  0.41336313  0.13174791  0.98572571  1.0
  S  S208  1  0.70565281  0.54454401  0.91433618  1.0
  S  S209  1  0.79434707  0.95545366  0.91433571  1.0
  S  S210  1  0.04454513  0.29434815  0.41433525  1.0
  S  S211  1  0.45545585  0.20565319  0.41433595  1.0
  S  S212  1  0.29434747  0.45545560  0.08566466  1.0
  S  S213  1  0.20565240  0.04454513  0.08566359  1.0
  S  S214  1  0.95545353  0.70565227  0.58566444  1.0
  S  S215  1  0.54454281  0.79434804  0.58566413  1.0
  N  N216  1  0.61714262  0.77061548  0.85035727  1.0
  N  N217  1  0.88286257  0.72938321  0.85035591  1.0
  N  N218  1  0.27061735  0.38285919  0.35035698  1.0
  N  N219  1  0.22938407  0.11714072  0.35035589  1.0
  N  N220  1  0.38285928  0.22938413  0.14964358  1.0
  N  N221  1  0.11713934  0.27061478  0.14964377  1.0
  N  N222  1  0.72938456  0.61714366  0.64964309  1.0
  N  N223  1  0.77061297  0.88285889  0.64964457  1.0
  N  N224  1  0.27137215  0.38897772  0.49325740  1.0
  N  N225  1  0.22862929  0.11102175  0.49325747  1.0
  N  N226  1  0.88897360  0.72862451  0.99326021  1.0
  N  N227  1  0.61102269  0.77137210  0.99325730  1.0
  N  N228  1  0.72862246  0.61102432  0.50674074  1.0
  N  N229  1  0.77137261  0.88897705  0.50674377  1.0
  N  N230  1  0.11102587  0.27137591  0.00674025  1.0
  N  N231  1  0.38897678  0.22862751  0.00674278  1.0
  O  O232  1  0.37015010  0.80245761  0.74219746  1.0
  O  O233  1  0.12984801  0.69754538  0.74219578  1.0
  O  O234  1  0.30245689  0.62985006  0.24219573  1.0
  O  O235  1  0.19754479  0.87014962  0.24219480  1.0
  O  O236  1  0.62985180  0.19754443  0.25780262  1.0
  O  O237  1  0.87014983  0.30245829  0.25780313  1.0
  O  O238  1  0.69754421  0.37015118  0.75780434  1.0
  O  O239  1  0.80245468  0.12984756  0.75780372  1.0
  O  O240  1  0.30637035  0.60772444  0.61456110  1.0
  O  O241  1  0.19362783  0.89227246  0.61455975  1.0
  O  O242  1  0.10772369  0.69363082  0.11456074  1.0
  O  O243  1  0.39227481  0.80636925  0.11456051  1.0
  O  O244  1  0.69363075  0.39227517  0.38543898  1.0
  O  O245  1  0.80637002  0.10772147  0.38543916  1.0
  O  O246  1  0.89227822  0.30636960  0.88543817  1.0
  O  O247  1  0.60772953  0.19363198  0.88544112  1.0
