# generated using pymatgen
data_ZnH2C12N(OF)5
_symmetry_space_group_name_H-M   'P 1'
_cell_length_a   9.87094377
_cell_length_b   11.12289163
_cell_length_c   28.99596606
_cell_angle_alpha   90.09183854
_cell_angle_beta   89.87628064
_cell_angle_gamma   89.98072697
_symmetry_Int_Tables_number   1
_chemical_formula_structural   ZnH2C12N(OF)5
_chemical_formula_sum   'Zn4 H8 C48 N4 O20 F20'
_cell_volume   3183.55510183
_cell_formula_units_Z   4
loop_
 _symmetry_equiv_pos_site_id
 _symmetry_equiv_pos_as_xyz
  1  'x, y, z'
loop_
 _atom_site_type_symbol
 _atom_site_label
 _atom_site_symmetry_multiplicity
 _atom_site_fract_x
 _atom_site_fract_y
 _atom_site_fract_z
 _atom_site_occupancy
  Zn  Zn0  1  0.63889381  0.49971192  0.50045580  1.0
  Zn  Zn1  1  0.36105746  0.49981525  0.50064306  1.0
  Zn  Zn2  1  0.36136344  0.50209446  0.11666042  1.0
  Zn  Zn3  1  0.63920285  0.50193991  0.11644241  1.0
  H  H4  1  0.28173085  0.50121835  0.97053369  1.0
  H  H5  1  0.71910955  0.50107045  0.97008939  1.0
  H  H6  1  0.28104151  0.50007728  0.64705110  1.0
  H  H7  1  0.71843044  0.49976034  0.64663529  1.0
  H  H8  1  0.72760750  0.50100832  0.84777513  1.0
  H  H9  1  0.27262558  0.50115409  0.84824738  1.0
  H  H10  1  0.72746738  0.50066701  0.76891193  1.0
  H  H11  1  0.27253804  0.50098992  0.76935738  1.0
  C  C12  1  0.49989969  0.73400583  0.49998647  1.0
  C  C13  1  0.49964420  0.49881161  0.59036940  1.0
  C  C14  1  0.50003414  0.26556609  0.50036682  1.0
  C  C15  1  0.50026622  0.50128116  0.41061542  1.0
  C  C16  1  0.50028908  0.73622730  0.11718733  1.0
  C  C17  1  0.50048361  0.50065813  0.02674619  1.0
  C  C18  1  0.50045465  0.26783076  0.11656789  1.0
  C  C19  1  0.49987509  0.50325294  0.20647776  1.0
  C  C20  1  0.92915219  0.42764894  0.47194538  1.0
  C  C21  1  0.07065554  0.57251783  0.52778044  1.0
  C  C22  1  0.07120981  0.42757713  0.47198173  1.0
  C  C23  1  0.92883701  0.57258607  0.52775044  1.0
  C  C24  1  0.50000537  0.13001939  0.50019683  1.0
  C  C25  1  0.49993954  0.86956174  0.49992815  1.0
  C  C26  1  0.37944171  0.06260796  0.50004662  1.0
  C  C27  1  0.62050722  0.93698044  0.49999318  1.0
  C  C28  1  0.37940598  0.93709557  0.49993955  1.0
  C  C29  1  0.62053181  0.06248743  0.50010508  1.0
  C  C30  1  0.50043016  0.50096687  0.97506913  1.0
  C  C31  1  0.37681732  0.50117561  0.95153719  1.0
  C  C32  1  0.37660707  0.50135183  0.90363668  1.0
  C  C33  1  0.50020290  0.50138124  0.87844548  1.0
  C  C34  1  0.62393159  0.50118468  0.90338064  1.0
  C  C35  1  0.62392600  0.50110912  0.95128691  1.0
  C  C36  1  0.50007362  0.50134148  0.82981706  1.0
  C  C37  1  0.50001595  0.50112873  0.78734310  1.0
  C  C38  1  0.49991724  0.50075544  0.73870681  1.0
  C  C39  1  0.37622524  0.50053935  0.71375614  1.0
  C  C40  1  0.37623214  0.50004131  0.66584909  1.0
  C  C41  1  0.49972327  0.49952189  0.64204879  1.0
  C  C42  1  0.62330238  0.49987592  0.66560704  1.0
  C  C43  1  0.62351023  0.50040724  0.71351844  1.0
  C  C44  1  0.50021474  0.50182362  0.35855690  1.0
  C  C45  1  0.50000341  0.50298740  0.25853195  1.0
  C  C46  1  0.62060684  0.50213846  0.33250721  1.0
  C  C47  1  0.37960636  0.50244870  0.28458112  1.0
  C  C48  1  0.62048444  0.50271770  0.28435070  1.0
  C  C49  1  0.37970750  0.50183889  0.33273832  1.0
  C  C50  1  0.07114568  0.43024574  0.14526936  1.0
  C  C51  1  0.92953393  0.57486055  0.08950408  1.0
  C  C52  1  0.92907093  0.43014225  0.14522254  1.0
  C  C53  1  0.07133414  0.57495951  0.08954939  1.0
  C  C54  1  0.50041784  0.13229819  0.11665899  1.0
  C  C55  1  0.50035930  0.87179315  0.11707864  1.0
  C  C56  1  0.62090587  0.06472015  0.11680969  1.0
  C  C57  1  0.37986419  0.93934872  0.11692345  1.0
  C  C58  1  0.62089351  0.93922008  0.11698713  1.0
  C  C59  1  0.37989884  0.06484341  0.11673702  1.0
  N  N60  1  0.85995090  0.50007508  0.49987746  1.0
  N  N61  1  0.13997646  0.49995047  0.49994058  1.0
  N  N62  1  0.14027150  0.50254571  0.11737252  1.0
  N  N63  1  0.86027142  0.50236288  0.11728397  1.0
  O  O64  1  0.61462895  0.68233860  0.49999733  1.0
  O  O65  1  0.38515887  0.68246579  0.50006792  1.0
  O  O66  1  0.38462932  0.49894249  0.57042890  1.0
  O  O67  1  0.61466794  0.49837403  0.57024442  1.0
  O  O68  1  0.38530899  0.31722864  0.50056632  1.0
  O  O69  1  0.61479013  0.31711252  0.50019259  1.0
  O  O70  1  0.61496604  0.50102997  0.43035018  1.0
  O  O71  1  0.38560856  0.50093321  0.43053191  1.0
  O  O72  1  0.38554216  0.68470708  0.11721914  1.0
  O  O73  1  0.61500314  0.68455020  0.11717267  1.0
  O  O74  1  0.61553281  0.50075742  0.04668131  1.0
  O  O75  1  0.38548854  0.50052751  0.04687864  1.0
  O  O76  1  0.61523092  0.31935112  0.11639052  1.0
  O  O77  1  0.38572547  0.31949054  0.11683741  1.0
  O  O78  1  0.38518131  0.50358323  0.18676237  1.0
  O  O79  1  0.61452601  0.50293291  0.18655181  1.0
  O  O80  1  0.74544533  0.50105668  0.88087819  1.0
  O  O81  1  0.25497929  0.50137619  0.88138774  1.0
  O  O82  1  0.74512782  0.50049885  0.73577333  1.0
  O  O83  1  0.25469423  0.50075096  0.73625315  1.0
  F  F84  1  0.86225387  0.35488021  0.44402653  1.0
  F  F85  1  0.13769504  0.64474957  0.55599088  1.0
  F  F86  1  0.13854322  0.35472816  0.44410387  1.0
  F  F87  1  0.86140064  0.64487552  0.55593663  1.0
  F  F88  1  0.25664158  0.11557609  0.50000429  1.0
  F  F89  1  0.74331139  0.88401686  0.49997895  1.0
  F  F90  1  0.25657538  0.88425020  0.49985791  1.0
  F  F91  1  0.74336342  0.11533102  0.50016602  1.0
  F  F92  1  0.74348743  0.50178893  0.35268845  1.0
  F  F93  1  0.25672907  0.50231904  0.26439987  1.0
  F  F94  1  0.74330242  0.50285312  0.26393463  1.0
  F  F95  1  0.25689587  0.50120091  0.35314401  1.0
  F  F96  1  0.13816744  0.35759165  0.17311585  1.0
  F  F97  1  0.86241215  0.64681551  0.06128916  1.0
  F  F98  1  0.86175369  0.35735980  0.17301865  1.0
  F  F99  1  0.13877224  0.64700331  0.06137567  1.0
  F  F100  1  0.74376585  0.11752247  0.11678780  1.0
  F  F101  1  0.25701432  0.88656622  0.11691016  1.0
  F  F102  1  0.74370375  0.88627624  0.11702016  1.0
  F  F103  1  0.25705314  0.11773071  0.11658430  1.0
