# generated using pymatgen
data_Zn4H34C51N4O15
_symmetry_space_group_name_H-M   'P 1'
_cell_length_a   15.32172911
_cell_length_b   15.53792174
_cell_length_c   19.45630842
_cell_angle_alpha   81.20877454
_cell_angle_beta   76.63749498
_cell_angle_gamma   72.65262507
_symmetry_Int_Tables_number   1
_chemical_formula_structural   Zn4H34C51N4O15
_chemical_formula_sum   'Zn4 H34 C51 N4 O15'
_cell_volume   4283.94028940
_cell_formula_units_Z   1
loop_
 _symmetry_equiv_pos_site_id
 _symmetry_equiv_pos_as_xyz
  1  'x, y, z'
loop_
 _atom_site_type_symbol
 _atom_site_label
 _atom_site_symmetry_multiplicity
 _atom_site_fract_x
 _atom_site_fract_y
 _atom_site_fract_z
 _atom_site_occupancy
  Zn  Zn0  1  0.40315030  0.58022497  0.45342162  1.0
  Zn  Zn1  1  0.42178061  0.44612279  0.59192887  1.0
  Zn  Zn2  1  0.57178758  0.54053931  0.53618163  1.0
  Zn  Zn3  1  0.57559360  0.39284913  0.44167859  1.0
  H  H4  1  0.39450060  0.63466584  0.23793979  1.0
  H  H5  1  0.62260831  0.50078833  0.74963152  1.0
  H  H6  1  0.40138319  0.61684766  0.00522297  1.0
  H  H7  1  0.64410206  0.41066775  0.09389261  1.0
  H  H8  1  0.62511223  0.51427341  0.87382957  1.0
  H  H9  1  0.62698210  0.39666845  0.22532940  1.0
  H  H10  1  0.59979641  0.48788409  0.98712151  1.0
  H  H11  1  0.40928650  0.64895183  0.10747017  1.0
  H  H12  1  0.32829323  0.63929562  0.90897355  1.0
  H  H13  1  0.48876023  0.17982004  0.68357193  1.0
  H  H14  1  0.50117565  0.86573135  0.69011737  1.0
  H  H15  1  0.50951535  0.13509640  0.46784579  1.0
  H  H16  1  0.45219762  0.81338416  0.36433293  1.0
  H  H17  1  0.46203495  0.07085298  0.41048913  1.0
  H  H18  1  0.44396635  0.97580755  0.32761540  1.0
  H  H19  1  0.13278402  0.53904714  0.66708872  1.0
  H  H20  1  0.96832668  0.53461249  0.70009914  1.0
  H  H21  1  0.14208733  0.49977183  0.45232499  1.0
  H  H22  1  0.86207472  0.37491784  0.34670543  1.0
  H  H23  1  0.09009538  0.45166696  0.38877262  1.0
  H  H24  1  0.02322251  0.39380263  0.30857460  1.0
  H  H25  1  0.75948484  0.46594436  0.58469590  1.0
  H  H26  1  0.51621712  0.72849074  0.65916425  1.0
  H  H27  1  0.65779791  0.63134747  0.60400809  1.0
  H  H28  1  0.67500613  0.73771807  0.61282570  1.0
  H  H29  1  0.66230821  0.71296150  0.52941770  1.0
  H  H30  1  0.74915434  0.51089121  0.68685278  1.0
  H  H31  1  0.72659305  0.63759699  0.73436122  1.0
  H  H32  1  0.82706061  0.65767529  0.67484169  1.0
  H  H33  1  0.83738100  0.59373565  0.75826475  1.0
  H  H34  1  0.25534758  0.67106037  0.81936748  1.0
  H  H35  1  0.23375069  0.73290790  0.71068345  1.0
  H  H36  1  0.28314553  0.62181182  0.68141252  1.0
  H  H37  1  0.35552434  0.69387427  0.67691275  1.0
  C  C38  1  0.50579210  0.26073658  0.55023198  1.0
  C  C39  1  0.48770337  0.71560380  0.47812464  1.0
  C  C40  1  0.24394757  0.52545008  0.54000951  1.0
  C  C41  1  0.74157672  0.41439551  0.46426886  1.0
  C  C42  1  0.48341838  0.53324255  0.68646317  1.0
  C  C43  1  0.49807563  0.50483308  0.31836518  1.0
  C  C44  1  0.50893400  0.51399419  0.23970800  1.0
  C  C45  1  0.44830971  0.58543927  0.20578399  1.0
  C  C46  1  0.45668224  0.59268387  0.13276101  1.0
  C  C47  1  0.52637935  0.52917246  0.09091314  1.0
  C  C48  1  0.58875860  0.45964383  0.12543168  1.0
  C  C49  1  0.57970845  0.45140529  0.19870775  1.0
  C  C50  1  0.55965710  0.53862221  0.85494358  1.0
  C  C51  1  0.55855156  0.53268424  0.78515375  1.0
  C  C52  1  0.39087045  0.60281422  0.80241275  1.0
  C  C53  1  0.39343718  0.60795860  0.87387496  1.0
  C  C54  1  0.47476628  0.57482878  0.90154772  1.0
  C  C55  1  0.53494983  0.53151104  0.01459495  1.0
  C  C56  1  0.46843500  0.57751873  0.97708109  1.0
  C  C57  1  0.47582465  0.56047386  0.75774225  1.0
  C  C58  1  0.48420359  0.04837305  0.66637144  1.0
  C  C59  1  0.49980648  0.16607944  0.57253107  1.0
  C  C60  1  0.46485443  0.85443441  0.39974245  1.0
  C  C61  1  0.45949162  0.94591458  0.37935026  1.0
  C  C62  1  0.47058463  0.99892481  0.42591069  1.0
  C  C63  1  0.48766158  0.96250803  0.49407462  1.0
  C  C64  1  0.49678672  0.86799417  0.51437377  1.0
  C  C65  1  0.49136538  0.02116848  0.54455420  1.0
  C  C66  1  0.48649562  0.98744414  0.61768730  1.0
  C  C67  1  0.49646871  0.89351793  0.63583004  1.0
  C  C68  1  0.50927144  0.83463519  0.58613807  1.0
  C  C69  1  0.50057561  0.10922396  0.52349312  1.0
  C  C70  1  0.49045082  0.13550857  0.64482271  1.0
  C  C71  1  0.48478705  0.81463739  0.46549327  1.0
  C  C72  1  0.00521347  0.52811287  0.64545277  1.0
  C  C73  1  0.14462026  0.52335847  0.55657151  1.0
  C  C74  1  0.89294005  0.39912546  0.38244802  1.0
  C  C75  1  0.98279500  0.41019227  0.36113695  1.0
  C  C76  1  0.02012460  0.44312263  0.40675944  1.0
  C  C77  1  0.97031994  0.46458054  0.47524369  1.0
  C  C78  1  0.87829479  0.45219295  0.49831504  1.0
  C  C79  1  0.01076500  0.49586785  0.52434033  1.0
  C  C80  1  0.95998947  0.51221509  0.59487145  1.0
  C  C81  1  0.86549466  0.50560594  0.61431601  1.0
  C  C82  1  0.82940145  0.47393815  0.56766921  1.0
  C  C83  1  0.10189671  0.50704534  0.50613644  1.0
  C  C84  1  0.09656907  0.53104656  0.62750467  1.0
  C  C85  1  0.83950901  0.42038212  0.44924898  1.0
  C  C86  1  0.63898587  0.70378831  0.58691558  1.0
  C  C87  1  0.80087907  0.60738419  0.71358817  1.0
  C  C88  1  0.29439190  0.67329285  0.70876961  1.0
  N  N89  1  0.47586195  0.02115421  0.74297894  1.0
  N  N90  1  0.53658437  0.74055086  0.60561392  1.0
  N  N91  1  0.81104348  0.52523102  0.68090118  1.0
  N  N92  1  0.30741745  0.64111012  0.78079224  1.0
  O  O93  1  0.49107468  0.48730693  0.50206384  1.0
  O  O94  1  0.54183782  0.27946597  0.48568827  1.0
  O  O95  1  0.41099542  0.69765144  0.47995805  1.0
  O  O96  1  0.28835982  0.49057600  0.59014120  1.0
  O  O97  1  0.68727445  0.44255094  0.52203233  1.0
  O  O98  1  0.42036567  0.50023388  0.67729332  1.0
  O  O99  1  0.54250043  0.42987895  0.34682340  1.0
  O  O100  1  0.55595801  0.53992866  0.63953812  1.0
  O  O101  1  0.44418344  0.57303177  0.35081401  1.0
  O  O102  1  0.27675899  0.56108611  0.47961882  1.0
  O  O103  1  0.71250284  0.38276077  0.41919331  1.0
  O  O104  1  0.47309375  0.31462313  0.59927407  1.0
  O  O105  1  0.56661216  0.65723558  0.47874589  1.0
  O  O106  1  0.43290699  0.96362350  0.76935618  1.0
  O  O107  1  0.51105080  0.05837045  0.77729228  1.0
