# generated using pymatgen
data_Zn2H41C67N7O12
_symmetry_space_group_name_H-M   'P 1'
_cell_length_a   14.62907256
_cell_length_b   16.03555468
_cell_length_c   23.70391830
_cell_angle_alpha   90.51846144
_cell_angle_beta   89.64104618
_cell_angle_gamma   89.72738496
_symmetry_Int_Tables_number   1
_chemical_formula_structural   Zn2H41C67N7O12
_chemical_formula_sum   'Zn2 H41 C67 N7 O12'
_cell_volume   5560.18938929
_cell_formula_units_Z   1
loop_
 _symmetry_equiv_pos_site_id
 _symmetry_equiv_pos_as_xyz
  1  'x, y, z'
loop_
 _atom_site_type_symbol
 _atom_site_label
 _atom_site_symmetry_multiplicity
 _atom_site_fract_x
 _atom_site_fract_y
 _atom_site_fract_z
 _atom_site_occupancy
  Zn  Zn0  1  0.40361460  0.50263946  0.49895376  1.0
  Zn  Zn1  1  0.59590154  0.49941212  0.49775517  1.0
  H  H2  1  0.57044839  0.70028505  0.05261678  1.0
  H  H3  1  0.35532454  0.06756404  0.48886723  1.0
  H  H4  1  0.43245237  0.93041336  0.57871142  1.0
  H  H5  1  0.55266029  0.93221912  0.58347812  1.0
  H  H6  1  0.42906693  0.07640002  0.57611303  1.0
  H  H7  1  0.54909131  0.07839333  0.58156570  1.0
  H  H8  1  0.06692397  0.62578804  0.53455191  1.0
  H  H9  1  0.91804019  0.62081225  0.54683906  1.0
  H  H10  1  0.57178499  0.69914621  0.94583745  1.0
  H  H11  1  0.91600065  0.50558765  0.41512935  1.0
  H  H12  1  0.07315848  0.47932090  0.41783228  1.0
  H  H13  1  0.35343933  0.50235404  0.32195032  1.0
  H  H14  1  0.92803198  0.60375336  0.44881158  1.0
  H  H15  1  0.08596274  0.58554298  0.43670806  1.0
  H  H16  1  0.91310803  0.38103258  0.54915654  1.0
  H  H17  1  0.07035034  0.39179438  0.56204222  1.0
  H  H18  1  0.92596311  0.37507427  0.47510031  1.0
  H  H19  1  0.08369146  0.36679106  0.48978258  1.0
  H  H20  1  0.42199848  0.30278852  0.94549750  1.0
  H  H21  1  0.42160928  0.30400548  0.05235349  1.0
  H  H22  1  0.61057926  0.41073111  0.78316467  1.0
  H  H23  1  0.38580412  0.58125549  0.67777067  1.0
  H  H24  1  0.64650289  0.50253353  0.31872369  1.0
  H  H25  1  0.38671965  0.58571759  0.78359095  1.0
  H  H26  1  0.35086711  0.50353856  0.21597382  1.0
  H  H27  1  0.80806113  0.63999889  0.60929017  1.0
  H  H28  1  0.73428708  0.61108514  0.70128480  1.0
  H  H29  1  0.78685808  0.49089753  0.75876487  1.0
  H  H30  1  0.91149565  0.39840502  0.72206285  1.0
  H  H31  1  0.98600641  0.42776117  0.63144232  1.0
  H  H32  1  0.17779334  0.44940078  0.60174328  1.0
  H  H33  1  0.24360281  0.45671967  0.69576471  1.0
  H  H34  1  0.20510474  0.57477912  0.76102997  1.0
  H  H35  1  0.64495560  0.50140133  0.21273554  1.0
  H  H36  1  0.10201548  0.68869608  0.72800197  1.0
  H  H37  1  0.03518982  0.68191913  0.63273945  1.0
  H  H38  1  0.42782857  0.92657696  0.41952598  1.0
  H  H39  1  0.59412897  0.92853733  0.42638110  1.0
  H  H40  1  0.65063667  0.92663813  0.49212633  1.0
  H  H41  1  0.35667225  0.92372704  0.48005018  1.0
  H  H42  1  0.64448897  0.07039670  0.50146396  1.0
  C  C43  1  0.50080093  0.66257253  0.50136652  1.0
  C  C44  1  0.46906042  0.42611684  0.87705589  1.0
  C  C45  1  0.56226879  0.44925545  0.76016970  1.0
  C  C46  1  0.49698075  0.49825328  0.60784594  1.0
  C  C47  1  0.56289450  0.44791966  0.70086154  1.0
  C  C48  1  0.49867838  0.49650271  0.67119047  1.0
  C  C49  1  0.43542303  0.54512693  0.70150315  1.0
  C  C50  1  0.43556778  0.54705373  0.76018782  1.0
  C  C51  1  0.49916292  0.49883502  0.78916981  1.0
  C  C52  1  0.41532620  0.50342507  0.23879429  1.0
  C  C53  1  0.41668296  0.50282459  0.29747357  1.0
  C  C54  1  0.55029451  0.64503645  0.02872219  1.0
  C  C55  1  0.50004051  0.50282131  0.32622502  1.0
  C  C56  1  0.58232268  0.50268182  0.29569329  1.0
  C  C57  1  0.58141323  0.50210374  0.23699618  1.0
  C  C58  1  0.49879058  0.34000249  0.49753986  1.0
  C  C59  1  0.49783863  0.50284414  0.20903839  1.0
  C  C60  1  0.42016316  0.94985117  0.46298382  1.0
  C  C61  1  0.59083869  0.95155295  0.47009407  1.0
  C  C62  1  0.59210630  0.04877542  0.47160403  1.0
  C  C63  1  0.41524969  0.04699346  0.46395004  1.0
  C  C64  1  0.49773035  0.24960589  0.49686477  1.0
  C  C65  1  0.55096739  0.64437082  0.96946988  1.0
  C  C66  1  0.50228162  0.91914810  0.49807259  1.0
  C  C67  1  0.49958668  0.08355083  0.49589698  1.0
  C  C68  1  0.49247421  0.05147384  0.55737405  1.0
  C  C69  1  0.49455884  0.95507180  0.55878477  1.0
  C  C70  1  0.49802455  0.17392677  0.49590203  1.0
  C  C71  1  0.50319245  0.82865188  0.49949520  1.0
  C  C72  1  0.50089691  0.50272509  0.38944216  1.0
  C  C73  1  0.50254563  0.75294596  0.50091297  1.0
  C  C74  1  0.94446352  0.55835581  0.55677963  1.0
  C  C75  1  0.05257853  0.56434722  0.55292645  1.0
  C  C76  1  0.52517324  0.57337341  0.93957915  1.0
  C  C77  1  0.94791914  0.53772554  0.45096715  1.0
  C  C78  1  0.05265729  0.52716863  0.44892305  1.0
  C  C79  1  0.91145072  0.50115363  0.50700373  1.0
  C  C80  1  0.08742519  0.49988130  0.50790432  1.0
  C  C81  1  0.05114533  0.41089781  0.51945342  1.0
  C  C82  1  0.94627626  0.41040257  0.51285570  1.0
  C  C83  1  0.18637215  0.50005185  0.50458410  1.0
  C  C84  1  0.81252779  0.50119592  0.50531014  1.0
  C  C85  1  0.46797827  0.42882007  0.12082732  1.0
  C  C86  1  0.52478955  0.57638935  0.12100079  1.0
  C  C87  1  0.49732476  0.50102444  0.96874726  1.0
  C  C88  1  0.52398876  0.57459311  0.05832682  1.0
  C  C89  1  0.49682837  0.50169097  0.02888487  1.0
  C  C90  1  0.46901288  0.42947246  0.05817991  1.0
  C  C91  1  0.40181433  0.08044163  0.40754722  1.0
  C  C92  1  0.61812413  0.08284626  0.41698152  1.0
  C  C93  1  0.90244995  0.53622283  0.61326930  1.0
  C  C94  1  0.83133241  0.58699731  0.63413532  1.0
  C  C95  1  0.78963560  0.57092238  0.68600745  1.0
  C  C96  1  0.81887828  0.50349023  0.71807212  1.0
  C  C97  1  0.88882521  0.45178300  0.69758770  1.0
  C  C98  1  0.46984132  0.42804754  0.93949152  1.0
  C  C99  1  0.93011795  0.46794169  0.64569694  1.0
  C  C100  1  0.09953080  0.56459117  0.60993381  1.0
  C  C101  1  0.15905576  0.50221897  0.62864573  1.0
  C  C102  1  0.19707961  0.50597767  0.68252430  1.0
  C  C103  1  0.17615783  0.57236724  0.71875459  1.0
  C  C104  1  0.11825026  0.63597707  0.70029514  1.0
  C  C105  1  0.08082115  0.63208194  0.64645925  1.0
  C  C106  1  0.62808290  0.39385085  0.67371674  1.0
  C  C107  1  0.44285835  0.35793354  0.96924826  1.0
  C  C108  1  0.44251638  0.35858217  0.02849967  1.0
  C  C109  1  0.52753417  0.57369529  0.87712305  1.0
  N  N110  1  0.49691856  0.50270463  0.14812994  1.0
  N  N111  1  0.49895828  0.49947945  0.84993113  1.0
  N  N112  1  0.26501323  0.50133821  0.49880268  1.0
  N  N113  1  0.73366743  0.50087743  0.50178702  1.0
  N  N114  1  0.38641234  0.10453947  0.36232262  1.0
  N  N115  1  0.64347266  0.10740642  0.37350847  1.0
  N  N116  1  0.68289288  0.34606471  0.65733618  1.0
  O  O117  1  0.42402856  0.62905465  0.49079620  1.0
  O  O118  1  0.54818221  0.63813540  0.14819164  1.0
  O  O119  1  0.55279825  0.63390490  0.84946066  1.0
  O  O120  1  0.44404060  0.36535159  0.84935007  1.0
  O  O121  1  0.57586923  0.62577941  0.51219066  1.0
  O  O122  1  0.42134246  0.51787072  0.58527918  1.0
  O  O123  1  0.57158919  0.48082446  0.58279130  1.0
  O  O124  1  0.42362622  0.37633189  0.51003077  1.0
  O  O125  1  0.57485793  0.37375586  0.48577082  1.0
  O  O126  1  0.42515381  0.48861575  0.41432975  1.0
  O  O127  1  0.57709592  0.51691399  0.41343525  1.0
  O  O128  1  0.44381365  0.36783598  0.14792389  1.0
