# generated using pymatgen
data_NiH11C17SN5O4
_symmetry_space_group_name_H-M   'P 1'
_cell_length_a   12.73184151
_cell_length_b   13.74358433
_cell_length_c   13.99600566
_cell_angle_alpha   119.40554489
_cell_angle_beta   105.04668069
_cell_angle_gamma   89.99994005
_symmetry_Int_Tables_number   1
_chemical_formula_structural   NiH11C17SN5O4
_chemical_formula_sum   'Ni4 H44 C68 S4 N20 O16'
_cell_volume   2036.58557146
_cell_formula_units_Z   4
loop_
 _symmetry_equiv_pos_site_id
 _symmetry_equiv_pos_as_xyz
  1  'x, y, z'
loop_
 _atom_site_type_symbol
 _atom_site_label
 _atom_site_symmetry_multiplicity
 _atom_site_fract_x
 _atom_site_fract_y
 _atom_site_fract_z
 _atom_site_occupancy
  Ni  Ni0  1  0.39259618  0.65268581  0.53070852  1.0
  Ni  Ni1  1  0.10741019  0.12198469  0.46930116  1.0
  Ni  Ni2  1  0.60740299  0.34731382  0.46929167  1.0
  Ni  Ni3  1  0.89258992  0.87801578  0.53069965  1.0
  H  H4  1  0.19580498  0.77289202  0.52205420  1.0
  H  H5  1  0.30419967  0.25083650  0.47794963  1.0
  H  H6  1  0.80419308  0.22711098  0.47794519  1.0
  H  H7  1  0.69580018  0.74916229  0.52205317  1.0
  H  H8  1  0.47293171  0.75706575  0.41680787  1.0
  H  H9  1  0.02706754  0.34025862  0.58319059  1.0
  H  H10  1  0.52706721  0.24293218  0.58319001  1.0
  H  H11  1  0.97293232  0.65974016  0.41680792  1.0
  H  H12  1  0.40871256  0.88095254  0.33510007  1.0
  H  H13  1  0.09128948  0.54584731  0.66489730  1.0
  H  H14  1  0.59128662  0.11904708  0.66489654  1.0
  H  H15  1  0.90870932  0.45414978  0.33510086  1.0
  H  H16  1  0.53462619  0.91113644  0.63483413  1.0
  H  H17  1  0.96538262  0.27629671  0.36517650  1.0
  H  H18  1  0.46537336  0.08886572  0.36516879  1.0
  H  H19  1  0.03461767  0.72369954  0.63482375  1.0
  H  H20  1  0.63340129  0.04582467  0.86904654  1.0
  H  H21  1  0.86661079  0.17677556  0.13096635  1.0
  H  H22  1  0.36659933  0.95417918  0.13095673  1.0
  H  H23  1  0.13339150  0.82322322  0.86903560  1.0
  H  H24  1  0.65513479  0.11376854  0.07257844  1.0
  H  H25  1  0.84487160  0.04118659  0.92742353  1.0
  H  H26  1  0.34486464  0.88623277  0.92741975  1.0
  H  H27  1  0.15512556  0.95881051  0.07257568  1.0
  H  H28  1  0.71461085  0.11581632  0.26468309  1.0
  H  H29  1  0.78538716  0.85112918  0.73532062  1.0
  H  H30  1  0.28538939  0.88418499  0.73531530  1.0
  H  H31  1  0.21461026  0.14886961  0.26467946  1.0
  H  H32  1  0.86946031  0.94236046  0.32606115  1.0
  H  H33  1  0.63053218  0.61629635  0.67393874  1.0
  H  H34  1  0.13053805  0.05763917  0.67394027  1.0
  H  H35  1  0.36946536  0.38370328  0.32606177  1.0
  H  H36  1  0.63241593  0.80603408  0.40687011  1.0
  H  H37  1  0.86757740  0.39916517  0.59312451  1.0
  H  H38  1  0.36758461  0.19396385  0.59313101  1.0
  H  H39  1  0.13242096  0.60083445  0.40687405  1.0
  H  H40  1  0.52521211  0.83736236  0.22534072  1.0
  H  H41  1  0.97477930  0.61201524  0.77466141  1.0
  H  H42  1  0.47478687  0.16264149  0.77466216  1.0
  H  H43  1  0.02521787  0.38798185  0.22533565  1.0
  H  H44  1  0.49376983  0.72621621  0.79296742  1.0
  H  H45  1  0.00623321  0.93323804  0.20703259  1.0
  H  H46  1  0.50623204  0.27378510  0.20703350  1.0
  H  H47  1  0.99376952  0.06675820  0.79296753  1.0
  C  C48  1  0.07790157  0.88323969  0.42823439  1.0
  C  C49  1  0.42209932  0.45500003  0.57176923  1.0
  C  C50  1  0.92209905  0.11676416  0.57176460  1.0
  C  C51  1  0.57790041  0.54499791  0.42823170  1.0
  C  C52  1  0.19285177  0.85825255  0.42689488  1.0
  C  C53  1  0.30714750  0.43135659  0.57310361  1.0
  C  C54  1  0.80714972  0.14174622  0.57310258  1.0
  C  C55  1  0.69285492  0.56864304  0.42689878  1.0
  C  C56  1  0.23946089  0.79525171  0.47649826  1.0
  C  C57  1  0.26054091  0.31875334  0.52350327  1.0
  C  C58  1  0.76054111  0.20475044  0.52350238  1.0
  C  C59  1  0.73946164  0.68124713  0.47649955  1.0
  C  C60  1  0.39541659  0.79008847  0.42053329  1.0
  C  C61  1  0.10458259  0.36955531  0.57946590  1.0
  C  C62  1  0.60458058  0.20990863  0.57946306  1.0
  C  C63  1  0.89541739  0.63044431  0.42053447  1.0
  C  C64  1  0.35820800  0.85718380  0.37453598  1.0
  C  C65  1  0.14179186  0.48264644  0.62546037  1.0
  C  C66  1  0.64179162  0.14281329  0.62545952  1.0
  C  C67  1  0.85820558  0.51735233  0.37453470  1.0
  C  C68  1  0.25450062  0.89166359  0.37481013  1.0
  C  C69  1  0.24550151  0.51685408  0.62519369  1.0
  C  C70  1  0.74550138  0.10833855  0.62518979  1.0
  C  C71  1  0.75449835  0.48314470  0.37480482  1.0
  C  C72  1  0.21908879  0.95703969  0.31361331  1.0
  C  C73  1  0.28091076  0.64342825  0.68639273  1.0
  C  C74  1  0.78091170  0.04296331  0.68638809  1.0
  C  C75  1  0.71908816  0.35656968  0.31360586  1.0
  C  C76  1  0.54012536  0.89233451  0.70245760  1.0
  C  C77  1  0.95988195  0.18987218  0.29754792  1.0
  C  C78  1  0.45987326  0.10766681  0.29754184  1.0
  C  C79  1  0.04011860  0.81012575  0.70245106  1.0
  C  C80  1  0.58816917  0.96102724  0.81852706  1.0
  C  C81  1  0.91184108  0.14249403  0.18148225  1.0
  C  C82  1  0.41183144  0.03897661  0.18147621  1.0
  C  C83  1  0.08816108  0.85750391  0.81851855  1.0
  C  C84  1  0.61229522  0.92931744  0.98352150  1.0
  C  C85  1  0.88770855  0.94579499  0.01648340  1.0
  C  C86  1  0.38770746  0.07068387  0.01648033  1.0
  C  C87  1  0.11229281  0.05420295  0.98351721  1.0
  C  C88  1  0.65158235  0.03650775  0.07615524  1.0
  C  C89  1  0.84842213  0.96034943  0.92384701  1.0
  C  C90  1  0.34842046  0.96349440  0.92384488  1.0
  C  C91  1  0.15157773  0.03964936  0.07615436  1.0
  C  C92  1  0.68509450  0.03786090  0.18186224  1.0
  C  C93  1  0.81490516  0.85599640  0.81814135  1.0
  C  C94  1  0.31490736  0.96214041  0.81813725  1.0
  C  C95  1  0.18509320  0.14400322  0.18185935  1.0
  C  C96  1  0.67101048  0.93175837  0.16668988  1.0
  C  C97  1  0.82898111  0.76506561  0.83331588  1.0
  C  C98  1  0.32898988  0.06824378  0.83331180  1.0
  C  C99  1  0.17101793  0.23493317  0.16668387  1.0
  C  C100  1  0.79088170  0.90968160  0.32427740  1.0
  C  C101  1  0.70911282  0.58540484  0.67572602  1.0
  C  C102  1  0.20911978  0.09031719  0.67572436  1.0
  C  C103  1  0.29088674  0.41459732  0.32427404  1.0
  C  C104  1  0.66568518  0.83828342  0.36250878  1.0
  C  C105  1  0.83430634  0.47577273  0.63748924  1.0
  C  C106  1  0.33431492  0.16171706  0.63749346  1.0
  C  C107  1  0.16569377  0.52422774  0.36250943  1.0
  C  C108  1  0.61106645  0.85390019  0.27409141  1.0
  C  C109  1  0.88892841  0.57980442  0.72590409  1.0
  C  C110  1  0.38893392  0.14610197  0.72590956  1.0
  C  C111  1  0.11107171  0.42019605  0.27409458  1.0
  C  C112  1  0.51944731  0.79255046  0.77957824  1.0
  C  C113  1  0.98055489  0.01296462  0.22042506  1.0
  C  C114  1  0.48055267  0.20744916  0.22042070  1.0
  C  C115  1  0.01944715  0.98703246  0.77957315  1.0
  S  S116  1  0.61551267  0.82807375  0.02313354  1.0
  S  S117  1  0.88448417  0.80493742  0.97686856  1.0
  S  S118  1  0.38449069  0.17192671  0.97686804  1.0
  S  S119  1  0.11551881  0.19506051  0.02313100  1.0
  N  N120  1  0.33691591  0.75935011  0.47175127  1.0
  N  N121  1  0.16308486  0.28760027  0.52825064  1.0
  N  N122  1  0.66308489  0.24064952  0.52824930  1.0
  N  N123  1  0.83691688  0.71240019  0.47175127  1.0
  N  N124  1  0.49766601  0.78786520  0.67942984  1.0
  N  N125  1  0.00233598  0.10842526  0.32057370  1.0
  N  N126  1  0.50233329  0.21213528  0.32057007  1.0
  N  N127  1  0.99766363  0.89157183  0.67942394  1.0
  N  N128  1  0.57455705  0.89651099  0.86705058  1.0
  N  N129  1  0.92545012  0.02945415  0.13295370  1.0
  N  N130  1  0.42544331  0.10349117  0.13295110  1.0
  N  N131  1  0.07455205  0.97054378  0.86704638  1.0
  N  N132  1  0.69118079  0.90038739  0.25090887  1.0
  N  N133  1  0.80881691  0.64947717  0.74909242  1.0
  N  N134  1  0.30882189  0.09961391  0.74909295  1.0
  N  N135  1  0.19118307  0.35052246  0.25090796  1.0
  N  N136  1  0.77729506  0.87310963  0.39284641  1.0
  N  N137  1  0.72270041  0.48026537  0.60715279  1.0
  N  N138  1  0.22270724  0.12688914  0.60715411  1.0
  N  N139  1  0.27729983  0.51973594  0.39284703  1.0
  O  O140  1  0.22239103  0.06437779  0.37552513  1.0
  O  O141  1  0.27761151  0.68885397  0.62448088  1.0
  O  O142  1  0.77761189  0.93562520  0.62447828  1.0
  O  O143  1  0.72238416  0.31114398  0.37551766  1.0
  O  O144  1  0.19813496  0.90135060  0.20661484  1.0
  O  O145  1  0.30185464  0.69473771  0.79338898  1.0
  O  O146  1  0.80186278  0.09865579  0.79338754  1.0
  O  O147  1  0.69814239  0.30525854  0.20660907  1.0
  O  O148  1  0.04100002  0.95317860  0.39802575  1.0
  O  O149  1  0.45899836  0.55515200  0.60197947  1.0
  O  O150  1  0.95900034  0.04682355  0.60197450  1.0
  O  O151  1  0.54099943  0.44484932  0.39802334  1.0
  O  O152  1  0.02391853  0.82981929  0.45757547  1.0
  O  O153  1  0.47607910  0.37223741  0.54241845  1.0
  O  O154  1  0.97607903  0.17018034  0.54241933  1.0
  O  O155  1  0.52391725  0.62775969  0.45758056  1.0
