# generated using pymatgen
data_AgH22C10SN5O4
_symmetry_space_group_name_H-M   'P 1'
_cell_length_a   6.28413295
_cell_length_b   10.59806392
_cell_length_c   30.58472744
_cell_angle_alpha   90.00046371
_cell_angle_beta   90.00009266
_cell_angle_gamma   87.92709425
_symmetry_Int_Tables_number   1
_chemical_formula_structural   AgH22C10SN5O4
_chemical_formula_sum   'Ag4 H88 C40 S4 N20 O16'
_cell_volume   2035.59897174
_cell_formula_units_Z   4
loop_
 _symmetry_equiv_pos_site_id
 _symmetry_equiv_pos_as_xyz
  1  'x, y, z'
loop_
 _atom_site_type_symbol
 _atom_site_label
 _atom_site_symmetry_multiplicity
 _atom_site_fract_x
 _atom_site_fract_y
 _atom_site_fract_z
 _atom_site_occupancy
  Ag  Ag0  1  0.13564410  0.59708565  0.24044479  1.0
  Ag  Ag1  1  0.36435532  0.90292093  0.74044580  1.0
  Ag  Ag2  1  0.86436076  0.40291825  0.75955537  1.0
  Ag  Ag3  1  0.63564643  0.09708200  0.25955404  1.0
  H  H4  1  0.78104478  0.22387564  0.16157789  1.0
  H  H5  1  0.71894908  0.27612319  0.66158045  1.0
  H  H6  1  0.21896166  0.77612827  0.83842194  1.0
  H  H7  1  0.28104663  0.72387591  0.33842004  1.0
  H  H8  1  0.49782138  0.23587069  0.16151018  1.0
  H  H9  1  0.00217611  0.26412688  0.66151164  1.0
  H  H10  1  0.50218841  0.76413136  0.83849162  1.0
  H  H11  1  0.99781777  0.73587503  0.33848787  1.0
  H  H12  1  0.84775706  0.56377179  0.15359434  1.0
  H  H13  1  0.65223558  0.93622835  0.65359765  1.0
  H  H14  1  0.15223801  0.43623486  0.84640452  1.0
  H  H15  1  0.34776491  0.06377079  0.34640349  1.0
  H  H16  1  0.98195948  0.41260032  0.15795777  1.0
  H  H17  1  0.51803445  0.08739748  0.65796135  1.0
  H  H18  1  0.01804196  0.58740638  0.84204109  1.0
  H  H19  1  0.48196946  0.91259885  0.34204078  1.0
  H  H20  1  0.31766689  0.44112331  0.15567026  1.0
  H  H21  1  0.18232412  0.05887502  0.65567121  1.0
  H  H22  1  0.68233352  0.55887677  0.84433186  1.0
  H  H23  1  0.81767596  0.94112884  0.34432830  1.0
  H  H24  1  0.46991679  0.58043295  0.15394250  1.0
  H  H25  1  0.03007168  0.91956398  0.65394409  1.0
  H  H26  1  0.53007757  0.41956329  0.84605864  1.0
  H  H27  1  0.96992706  0.08043703  0.34605673  1.0
  H  H28  1  0.97538437  0.29608528  0.22417137  1.0
  H  H29  1  0.52461451  0.20391597  0.72417430  1.0
  H  H30  1  0.02462970  0.70392247  0.77582749  1.0
  H  H31  1  0.47538446  0.79608221  0.27582619  1.0
  H  H32  1  0.83519898  0.35898767  0.27097616  1.0
  H  H33  1  0.66480310  0.14101752  0.77097864  1.0
  H  H34  1  0.16481677  0.64101916  0.72902335  1.0
  H  H35  1  0.33520200  0.85898354  0.22902185  1.0
  H  H36  1  0.64927928  0.55712360  0.26691654  1.0
  H  H37  1  0.85072342  0.94288018  0.76691896  1.0
  H  H38  1  0.35072852  0.44288316  0.73308330  1.0
  H  H39  1  0.14928342  0.05711901  0.23308185  1.0
  H  H40  1  0.65346151  0.64897512  0.21701693  1.0
  H  H41  1  0.84653608  0.85102841  0.71701942  1.0
  H  H42  1  0.34654008  0.35102969  0.78298258  1.0
  H  H43  1  0.15347077  0.14897078  0.28298107  1.0
  H  H44  1  0.44903393  0.37227909  0.27030028  1.0
  H  H45  1  0.05096851  0.12772574  0.77030235  1.0
  H  H46  1  0.55098039  0.62772583  0.72969988  1.0
  H  H47  1  0.94903476  0.87227814  0.22969814  1.0
  H  H48  1  0.31057055  0.31814541  0.22311486  1.0
  H  H49  1  0.18942862  0.18185642  0.72311648  1.0
  H  H50  1  0.68943447  0.68185659  0.77688726  1.0
  H  H51  1  0.81057465  0.81814746  0.27688335  1.0
  H  H52  1  0.06934314  0.55210509  0.40532243  1.0
  H  H53  1  0.43066020  0.94788830  0.90532359  1.0
  H  H54  1  0.93066363  0.44789504  0.59467675  1.0
  H  H55  1  0.56932432  0.05209275  0.09467494  1.0
  H  H56  1  0.04747468  0.39025250  0.41998866  1.0
  H  H57  1  0.45253111  0.10974447  0.91999280  1.0
  H  H58  1  0.95253217  0.60974669  0.58000954  1.0
  H  H59  1  0.54745953  0.89023947  0.08000965  1.0
  H  H60  1  0.44535731  0.35629421  0.40835118  1.0
  H  H61  1  0.05464548  0.14369963  0.90835363  1.0
  H  H62  1  0.55464342  0.64370209  0.59164767  1.0
  H  H63  1  0.94535112  0.85628908  0.09164719  1.0
  H  H64  1  0.45955195  0.51443961  0.39012303  1.0
  H  H65  1  0.04045082  0.98555910  0.89012186  1.0
  H  H66  1  0.54045673  0.48555676  0.60987680  1.0
  H  H67  1  0.95952947  0.01443420  0.10987666  1.0
  H  H68  1  0.66661727  0.60544551  0.43919344  1.0
  H  H69  1  0.83337219  0.89456021  0.93919213  1.0
  H  H70  1  0.33333333  0.39455365  0.56080541  1.0
  H  H71  1  0.16660277  0.10543965  0.06080705  1.0
  H  H72  1  0.73987126  0.45262658  0.46026487  1.0
  H  H73  1  0.76012451  0.04737535  0.96026679  1.0
  H  H74  1  0.26013408  0.54737166  0.53973333  1.0
  H  H75  1  0.23986357  0.95261990  0.03973500  1.0
  H  H76  1  0.44472249  0.31979796  0.48796374  1.0
  H  H77  1  0.05527125  0.18019669  0.98796596  1.0
  H  H78  1  0.55527171  0.68020018  0.51203544  1.0
  H  H79  1  0.94471413  0.81979287  0.01203223  1.0
  H  H80  1  0.17883143  0.38558027  0.48592813  1.0
  H  H81  1  0.32116891  0.11441155  0.98593027  1.0
  H  H82  1  0.82117558  0.61441703  0.51407105  1.0
  H  H83  1  0.67881329  0.88557798  0.01406924  1.0
  H  H84  1  0.96049498  0.75642183  0.16247521  1.0
  H  H85  1  0.53950271  0.74357572  0.66247499  1.0
  H  H86  1  0.03950725  0.24357543  0.83752626  1.0
  H  H87  1  0.46050238  0.25642534  0.33752485  1.0
  H  H88  1  0.19897900  0.79916694  0.16215143  1.0
  H  H89  1  0.30101683  0.70083781  0.66215152  1.0
  H  H90  1  0.80101966  0.20083501  0.83784905  1.0
  H  H91  1  0.69898811  0.29916514  0.33784766  1.0
  C  C92  1  0.64274394  0.28215287  0.17213583  1.0
  C  C93  1  0.85725316  0.21784623  0.67213893  1.0
  C  C94  1  0.35726895  0.71785015  0.82786433  1.0
  C  C95  1  0.14274407  0.78215382  0.32786123  1.0
  C  C96  1  0.84062739  0.46954333  0.16799812  1.0
  C  C97  1  0.65936333  0.03045561  0.66800127  1.0
  C  C98  1  0.15937070  0.53046523  0.83200138  1.0
  C  C99  1  0.34063541  0.96954540  0.33199954  1.0
  C  C100  1  0.46322781  0.48459739  0.16726797  1.0
  C  C101  1  0.03676787  0.01540314  0.66726939  1.0
  C  C102  1  0.53678006  0.51540843  0.83273317  1.0
  C  C103  1  0.96323857  0.98460077  0.33273208  1.0
  C  C104  1  0.83524304  0.35229487  0.23523838  1.0
  C  C105  1  0.66475885  0.14770949  0.73524121  1.0
  C  C106  1  0.16476459  0.64771377  0.76476113  1.0
  C  C107  1  0.33524641  0.85228968  0.26476059  1.0
  C  C108  1  0.64983948  0.55381084  0.23099664  1.0
  C  C109  1  0.85016295  0.94619305  0.73100006  1.0
  C  C110  1  0.35016847  0.44619403  0.76900319  1.0
  C  C111  1  0.14984827  0.05381090  0.26900305  1.0
  C  C112  1  0.45328111  0.36509948  0.23456054  1.0
  C  C113  1  0.04671804  0.13490357  0.73456099  1.0
  C  C114  1  0.54673504  0.63490263  0.76544191  1.0
  C  C115  1  0.95327584  0.86509835  0.26544015  1.0
  C  C116  1  0.13985711  0.45667259  0.40084098  1.0
  C  C117  1  0.36014850  0.04332488  0.90084261  1.0
  C  C118  1  0.86015006  0.54332282  0.59915722  1.0
  C  C119  1  0.63983530  0.95666467  0.09915625  1.0
  C  C120  1  0.37526187  0.45318615  0.41283819  1.0
  C  C121  1  0.12473299  0.04680772  0.91283973  1.0
  C  C122  1  0.62474045  0.54681016  0.58716001  1.0
  C  C123  1  0.87524286  0.95318176  0.08716010  1.0
  C  C124  1  0.62671363  0.53519062  0.46407765  1.0
  C  C125  1  0.87327796  0.96481097  0.96407655  1.0
  C  C126  1  0.37329680  0.46480387  0.53592055  1.0
  C  C127  1  0.12669541  0.03518888  0.03592132  1.0
  C  C128  1  0.34638254  0.40906512  0.49052787  1.0
  C  C129  1  0.15360931  0.09093334  0.99052923  1.0
  C  C130  1  0.65362622  0.59093030  0.50947098  1.0
  C  C131  1  0.84636868  0.90906843  0.00947028  1.0
  S  S132  1  0.09684838  0.41520597  0.34485153  1.0
  S  S133  1  0.40316106  0.08479781  0.84485395  1.0
  S  S134  1  0.90316117  0.58479891  0.65514634  1.0
  S  S135  1  0.59682320  0.91520497  0.15514622  1.0
  N  N136  1  0.45401609  0.49350745  0.21589258  1.0
  N  N137  1  0.04597986  0.00649419  0.71589430  1.0
  N  N138  1  0.54598710  0.50649738  0.78410889  1.0
  N  N139  1  0.95402206  0.99350684  0.28410553  1.0
  N  N140  1  0.64933377  0.40828067  0.15290060  1.0
  N  N141  1  0.85065544  0.09171603  0.65290268  1.0
  N  N142  1  0.35066147  0.59172409  0.84710087  1.0
  N  N143  1  0.14933852  0.90828494  0.34709781  1.0
  N  N144  1  0.64219306  0.28754529  0.22085983  1.0
  N  N145  1  0.85780263  0.21245586  0.72086161  1.0
  N  N146  1  0.35781330  0.71245956  0.77914065  1.0
  N  N147  1  0.14219285  0.78754607  0.27913855  1.0
  N  N148  1  0.84452324  0.48095764  0.21668649  1.0
  N  N149  1  0.65547386  0.01904532  0.71668961  1.0
  N  N150  1  0.15548297  0.51904910  0.78331236  1.0
  N  N151  1  0.34452814  0.98095478  0.28331056  1.0
  N  N152  1  0.40712394  0.49968446  0.45717150  1.0
  N  N153  1  0.09287267  0.00031139  0.95717290  1.0
  N  N154  1  0.59288148  0.50031283  0.54282670  1.0
  N  N155  1  0.90710962  0.99967720  0.04282694  1.0
  O  O156  1  0.22546468  0.50011720  0.31851304  1.0
  O  O157  1  0.27453755  0.99988174  0.81851560  1.0
  O  O158  1  0.77454257  0.49987726  0.68148483  1.0
  O  O159  1  0.72544973  0.00012295  0.18148260  1.0
  O  O160  1  0.16892018  0.28127686  0.34027620  1.0
  O  O161  1  0.33108462  0.21872488  0.84027863  1.0
  O  O162  1  0.83107864  0.71872321  0.65972265  1.0
  O  O163  1  0.66890656  0.78127134  0.15972316  1.0
  O  O164  1  0.86530600  0.43440403  0.33783383  1.0
  O  O165  1  0.63469199  0.06559888  0.83783445  1.0
  O  O166  1  0.13469201  0.56560548  0.66216601  1.0
  O  O167  1  0.36529642  0.93439259  0.16216670  1.0
  O  O168  1  0.10934883  0.72516271  0.16589403  1.0
  O  O169  1  0.39063796  0.77483638  0.66589534  1.0
  O  O170  1  0.89064236  0.27483351  0.83410515  1.0
  O  O171  1  0.60936706  0.22516563  0.33410515  1.0
