# generated using pymatgen
data_ZnH16C22(NO)4
_symmetry_space_group_name_H-M   'P 1'
_cell_length_a   9.75033334
_cell_length_b   11.00688575
_cell_length_c   14.86376569
_cell_angle_alpha   89.73097145
_cell_angle_beta   103.52778322
_cell_angle_gamma   89.83103703
_symmetry_Int_Tables_number   1
_chemical_formula_structural   ZnH16C22(NO)4
_chemical_formula_sum   'Zn2 H32 C44 N8 O8'
_cell_volume   1550.90474564
_cell_formula_units_Z   2
loop_
 _symmetry_equiv_pos_site_id
 _symmetry_equiv_pos_as_xyz
  1  'x, y, z'
loop_
 _atom_site_type_symbol
 _atom_site_label
 _atom_site_symmetry_multiplicity
 _atom_site_fract_x
 _atom_site_fract_y
 _atom_site_fract_z
 _atom_site_occupancy
  Zn  Zn0  1  0.14627748  0.50125796  0.49014811  1.0
  Zn  Zn1  1  0.85413100  0.49962888  0.50958104  1.0
  H  H2  1  0.77285000  0.58265665  0.88263018  1.0
  H  H3  1  0.22861770  0.40859780  0.11623707  1.0
  H  H4  1  0.32202415  0.52342354  0.77036722  1.0
  H  H5  1  0.67770939  0.47632286  0.22959260  1.0
  H  H6  1  0.92153843  0.41488760  0.81375014  1.0
  H  H7  1  0.07932579  0.57960906  0.18519043  1.0
  H  H8  1  0.97355645  0.60576304  0.01621889  1.0
  H  H9  1  0.02792983  0.38560562  0.98239167  1.0
  H  H10  1  0.52436421  0.53485732  0.81808626  1.0
  H  H11  1  0.47650484  0.45813453  0.18099946  1.0
  H  H12  1  0.65806637  0.93409555  0.41087440  1.0
  H  H13  1  0.73557536  0.79762676  0.45119680  1.0
  H  H14  1  0.34394983  0.06668528  0.58631055  1.0
  H  H15  1  0.26548056  0.20272863  0.54591915  1.0
  H  H16  1  0.63664942  0.11228724  0.51948723  1.0
  H  H17  1  0.41429765  0.20733205  0.42967144  1.0
  H  H18  1  0.39816878  0.28209813  0.26943834  1.0
  H  H19  1  0.60586305  0.26108910  0.19916720  1.0
  H  H20  1  0.82794935  0.16766655  0.28949732  1.0
  H  H21  1  0.17201691  0.82781973  0.70846892  1.0
  H  H22  1  0.39357175  0.73275640  0.79803361  1.0
  H  H23  1  0.60240740  0.71510070  0.72866188  1.0
  H  H24  1  0.58841478  0.79587576  0.57020229  1.0
  H  H25  1  0.36694160  0.89282615  0.48127688  1.0
  H  H26  1  0.67502877  0.35216228  0.68611427  1.0
  H  H27  1  0.77236521  0.32829596  0.60648430  1.0
  H  H28  1  0.23308781  0.67992321  0.40160859  1.0
  H  H29  1  0.31140173  0.64223944  0.31530933  1.0
  H  H30  1  0.30794091  0.41046985  0.64698099  1.0
  H  H31  1  0.44450939  0.30655297  0.66017134  1.0
  H  H32  1  0.69198372  0.59227784  0.35357426  1.0
  H  H33  1  0.54582577  0.68914673  0.33624151  1.0
  C  C34  1  0.99098118  0.73761987  0.50163709  1.0
  C  C35  1  0.01021916  0.26327311  0.49841574  1.0
  C  C36  1  0.56507007  0.53264175  0.89285717  1.0
  C  C37  1  0.43570310  0.46132752  0.10627209  1.0
  C  C38  1  0.70456393  0.55828598  0.92852716  1.0
  C  C39  1  0.29653797  0.43454123  0.07048962  1.0
  C  C40  1  0.87033409  0.93989687  0.46463322  1.0
  C  C41  1  0.13137561  0.06087479  0.53484760  1.0
  C  C42  1  0.87767264  0.06796334  0.46052360  1.0
  C  C43  1  0.12402527  0.93283950  0.53921079  1.0
  C  C44  1  0.00642177  0.12765749  0.49599539  1.0
  C  C45  1  0.99512566  0.87318040  0.50398581  1.0
  C  C46  1  0.59070200  0.42508091  0.55987564  1.0
  C  C47  1  0.40975148  0.57574852  0.44162020  1.0
  C  C48  1  0.45155624  0.44465424  0.56940186  1.0
  C  C49  1  0.54855536  0.55556786  0.43178221  1.0
  C  C50  1  0.94355124  0.51010783  0.31757051  1.0
  C  C51  1  0.05635254  0.48996110  0.68222500  1.0
  C  C52  1  0.88225320  0.52572408  0.21622478  1.0
  C  C53  1  0.11788540  0.47198132  0.78330009  1.0
  C  C54  1  0.90884469  0.57670868  0.06305666  1.0
  C  C55  1  0.09225895  0.41648780  0.93585118  1.0
  C  C56  1  0.96768549  0.56261050  0.15633182  1.0
  C  C57  1  0.03302365  0.43239418  0.84277592  1.0
  C  C58  1  0.73953716  0.50458551  0.18113938  1.0
  C  C59  1  0.26053624  0.49323901  0.81846620  1.0
  C  C60  1  0.67645197  0.51648865  0.08595147  1.0
  C  C61  1  0.32404532  0.47917133  0.91339326  1.0
  C  C62  1  0.76419894  0.55182497  0.02555603  1.0
  C  C63  1  0.23668703  0.44203828  0.97352721  1.0
  C  C64  1  0.52801457  0.49331139  0.04813143  1.0
  C  C65  1  0.47255935  0.50193072  0.95115848  1.0
  C  C66  1  0.74776269  0.13376433  0.41072553  1.0
  C  C67  1  0.62946010  0.14449464  0.44900982  1.0
  C  C68  1  0.50505683  0.19863995  0.39884863  1.0
  C  C69  1  0.49611569  0.24131694  0.30894798  1.0
  C  C70  1  0.61259271  0.23005193  0.26987799  1.0
  C  C71  1  0.73747095  0.17716745  0.32045710  1.0
  C  C72  1  0.25394743  0.86677804  0.58869014  1.0
  C  C73  1  0.26317094  0.82022320  0.67797108  1.0
  C  C74  1  0.38771896  0.76637184  0.72809447  1.0
  C  C75  1  0.50493912  0.75705090  0.68955518  1.0
  C  C76  1  0.49715200  0.80297105  0.60067916  1.0
  C  C77  1  0.37310948  0.85824355  0.55102284  1.0
  N  N78  1  0.36264552  0.51673071  0.50826269  1.0
  N  N79  1  0.63801118  0.48355167  0.49302909  1.0
  N  N80  1  0.74568361  0.88085204  0.42353711  1.0
  N  N81  1  0.25652906  0.12013988  0.57500052  1.0
  N  N82  1  0.67436761  0.34224199  0.61796531  1.0
  N  N83  1  0.32601607  0.66012907  0.38409243  1.0
  N  N84  1  0.40972401  0.39255709  0.64289131  1.0
  N  N85  1  0.59040804  0.60787001  0.35894087  1.0
  O  O86  1  0.09594263  0.68237202  0.48295853  1.0
  O  O87  1  0.90480361  0.31837150  0.51650554  1.0
  O  O88  1  0.88152538  0.68448953  0.51630215  1.0
  O  O89  1  0.11997743  0.31649437  0.48421855  1.0
  O  O90  1  0.07649865  0.50138158  0.34583796  1.0
  O  O91  1  0.92329361  0.49786596  0.65406054  1.0
  O  O92  1  0.85592107  0.50716576  0.36971815  1.0
  O  O93  1  0.14382760  0.49554572  0.63010647  1.0
