# generated using pymatgen
data_Zn4H4C24S4N2Cl2O17
_symmetry_space_group_name_H-M   'P 1'
_cell_length_a   19.61223726
_cell_length_b   19.64437606
_cell_length_c   33.29657861
_cell_angle_alpha   79.09300283
_cell_angle_beta   79.26320995
_cell_angle_gamma   63.81375576
_symmetry_Int_Tables_number   1
_chemical_formula_structural   Zn4H4C24S4N2Cl2O17
_chemical_formula_sum   'Zn16 H16 C96 S16 N8 Cl8 O68'
_cell_volume   11226.41392076
_cell_formula_units_Z   4
loop_
 _symmetry_equiv_pos_site_id
 _symmetry_equiv_pos_as_xyz
  1  'x, y, z'
loop_
 _atom_site_type_symbol
 _atom_site_label
 _atom_site_symmetry_multiplicity
 _atom_site_fract_x
 _atom_site_fract_y
 _atom_site_fract_z
 _atom_site_occupancy
  Zn  Zn0  1  0.59841372  0.94499614  0.52309196  1.0
  Zn  Zn1  1  0.51607614  0.01336261  0.43966282  1.0
  Zn  Zn2  1  0.43731474  0.94231742  0.51844102  1.0
  Zn  Zn3  1  0.44595292  0.10049014  0.51989324  1.0
  Zn  Zn4  1  0.65055940  0.30451087  0.72784772  1.0
  Zn  Zn5  1  0.81003815  0.31074093  0.73421777  1.0
  Zn  Zn6  1  0.73468527  0.22836637  0.80970303  1.0
  Zn  Zn7  1  0.80725244  0.15259700  0.72610682  1.0
  Zn  Zn8  1  0.23396757  0.73355109  0.31149734  1.0
  Zn  Zn9  1  0.30400928  0.65071084  0.22934128  1.0
  Zn  Zn10  1  0.15036077  0.80659738  0.23021550  1.0
  Zn  Zn11  1  0.31400336  0.80696362  0.23361714  1.0
  Zn  Zn12  1  0.93971099  0.43903941  0.01670581  1.0
  Zn  Zn13  1  0.94665725  0.59778843  0.02296306  1.0
  Zn  Zn14  1  0.10063287  0.44150547  0.02154304  1.0
  Zn  Zn15  1  0.01859676  0.51632395  0.94025232  1.0
  H  H16  1  0.54793255  0.25043810  0.65150382  1.0
  H  H17  1  0.69650192  0.99861673  0.60133324  1.0
  H  H18  1  0.30688970  0.79126502  0.39928355  1.0
  H  H19  1  0.44157199  0.95826388  0.35306155  1.0
  H  H20  1  0.76058173  0.53573521  0.65793664  1.0
  H  H21  1  0.29866702  0.51746755  0.40016423  1.0
  H  H22  1  0.02045993  0.79524424  0.40074514  1.0
  H  H23  1  0.03639428  0.04985615  0.65646641  1.0
  H  H24  1  0.84762728  0.35409571  0.95156417  1.0
  H  H25  1  0.89234763  0.40054746  0.80036019  1.0
  H  H26  1  0.23120891  0.45770124  0.85140152  1.0
  H  H27  1  0.85801774  0.84031368  0.95859520  1.0
  H  H28  1  0.00441416  0.69776558  0.09698609  1.0
  H  H29  1  0.25267360  0.55208770  0.15204062  1.0
  H  H30  1  0.71671684  0.70137771  0.09660811  1.0
  H  H31  1  0.98878585  0.21147326  0.09320026  1.0
  C  C32  1  0.68198352  0.93591603  0.44084055  1.0
  C  C33  1  0.42886064  0.92947411  0.43342775  1.0
  C  C34  1  0.55825977  0.82005535  0.56303284  1.0
  C  C35  1  0.31816225  0.06503613  0.56095247  1.0
  C  C36  1  0.56811213  0.07110699  0.56830505  1.0
  C  C37  1  0.43948151  0.17934626  0.43727949  1.0
  C  C38  1  0.68998333  0.43209883  0.68705594  1.0
  C  C39  1  0.81084269  0.32166869  0.82122604  1.0
  C  C40  1  0.56882104  0.30602649  0.81025853  1.0
  C  C41  1  0.81502144  0.06431269  0.80762045  1.0
  C  C42  1  0.68125833  0.18241543  0.67980757  1.0
  C  C43  1  0.93805909  0.18825031  0.69164179  1.0
  C  C44  1  0.30940944  0.56632070  0.31289768  1.0
  C  C45  1  0.17970682  0.68325867  0.18176650  1.0
  C  C46  1  0.06611542  0.81306982  0.31361055  1.0
  C  C47  1  0.19033433  0.93241816  0.19169787  1.0
  C  C48  1  0.32503167  0.81486953  0.31885827  1.0
  C  C49  1  0.43054011  0.68848911  0.18727358  1.0
  C  C50  1  0.81671780  0.56177072  0.06204288  1.0
  C  C51  1  0.07533913  0.56561538  0.06856742  1.0
  C  C52  1  0.06006047  0.31464853  0.06211968  1.0
  C  C53  1  0.18554497  0.43703299  0.93821756  1.0
  C  C54  1  0.93148616  0.43111181  0.93043445  1.0
  C  C55  1  0.93716927  0.68427064  0.93981015  1.0
  C  C56  1  0.59281076  0.10099633  0.59848751  1.0
  C  C57  1  0.65333386  0.14972047  0.65266836  1.0
  C  C58  1  0.54977056  0.17244587  0.61350176  1.0
  C  C59  1  0.69516851  0.07705133  0.63885040  1.0
  C  C60  1  0.58072875  0.19529380  0.64002290  1.0
  C  C61  1  0.66434213  0.05438579  0.61219126  1.0
  C  C62  1  0.39957888  0.89964206  0.40544700  1.0
  C  C63  1  0.35180175  0.84710727  0.34685808  1.0
  C  C64  1  0.36047652  0.85224686  0.41858781  1.0
  C  C65  1  0.38983482  0.89544767  0.33372586  1.0
  C  C66  1  0.33738252  0.82738773  0.38924067  1.0
  C  C67  1  0.41262740  0.92069593  0.36305385  1.0
  C  C68  1  0.54446071  0.69466473  0.59768733  1.0
  C  C69  1  0.70347693  0.55265488  0.65005074  1.0
  C  C70  1  0.58272647  0.74179500  0.58521555  1.0
  C  C71  1  0.66385077  0.50743388  0.66209807  1.0
  C  C72  1  0.65919586  0.62132685  0.62683463  1.0
  C  C73  1  0.58704729  0.62655259  0.62202546  1.0
  C  C74  1  0.42023684  0.27227695  0.36844446  1.0
  C  C75  1  0.32674584  0.47374161  0.37945832  1.0
  C  C76  1  0.41210023  0.25360203  0.41102563  1.0
  C  C77  1  0.33534820  0.49033807  0.33706877  1.0
  C  C78  1  0.35868816  0.39387066  0.39075867  1.0
  C  C79  1  0.39108580  0.35206428  0.35665741  1.0
  C  C80  1  0.77315625  0.92799660  0.37220565  1.0
  C  C81  1  0.97565532  0.82559929  0.38064723  1.0
  C  C82  1  0.75620352  0.91675155  0.41476173  1.0
  C  C83  1  0.99058782  0.83779999  0.33828950  1.0
  C  C84  1  0.89601344  0.85808779  0.39281475  1.0
  C  C85  1  0.85258948  0.89371885  0.35933969  1.0
  C  C86  1  0.19817301  0.16279271  0.60135828  1.0
  C  C87  1  0.05520386  0.09560068  0.65099166  1.0
  C  C88  1  0.24173781  0.09399482  0.58496232  1.0
  C  C89  1  0.01307041  0.16468012  0.66661327  1.0
  C  C90  1  0.12335717  0.09492069  0.62764649  1.0
  C  C91  1  0.13126318  0.16332358  0.62632475  1.0
  C  C92  1  0.83901304  0.34933757  0.85094823  1.0
  C  C93  1  0.90116608  0.40508068  0.90097347  1.0
  C  C94  1  0.82611015  0.33638545  0.89434487  1.0
  C  C95  1  0.91337863  0.41859732  0.85757275  1.0
  C  C96  1  0.85736317  0.36416739  0.91817314  1.0
  C  C97  1  0.88253327  0.39054056  0.83374753  1.0
  C  C98  1  0.47854474  0.32370079  0.87980024  1.0
  C  C99  1  0.27602827  0.42554681  0.87134936  1.0
  C  C100  1  0.49550394  0.33487560  0.83717571  1.0
  C  C101  1  0.26112828  0.41202399  0.91364598  1.0
  C  C102  1  0.35559642  0.39192436  0.85910330  1.0
  C  C103  1  0.39893745  0.35434351  0.89247850  1.0
  C  C104  1  0.88219816  0.91463822  0.82020865  1.0
  C  C105  1  0.87481862  0.83070367  0.92641791  1.0
  C  C106  1  0.84368903  0.98797314  0.83197801  1.0
  C  C107  1  0.91271422  0.75865489  0.91378577  1.0
  C  C108  1  0.86242832  0.88740452  0.89198166  1.0
  C  C109  1  0.89157367  0.85695726  0.85410561  1.0
  C  C110  1  0.15072164  0.65636659  0.15209152  1.0
  C  C111  1  0.10570612  0.59298048  0.09735765  1.0
  C  C112  1  0.07988837  0.69806416  0.13598716  1.0
  C  C113  1  0.17696165  0.55153539  0.11316732  1.0
  C  C114  1  0.05902523  0.66577018  0.10929385  1.0
  C  C115  1  0.19779307  0.58389801  0.13992715  1.0
  C  C116  1  0.54745400  0.59446983  0.14327197  1.0
  C  C117  1  0.69747368  0.65607119  0.10114102  1.0
  C  C118  1  0.50334021  0.66328092  0.15964914  1.0
  C  C119  1  0.74049435  0.58663360  0.08597023  1.0
  C  C120  1  0.62743032  0.65814760  0.12257844  1.0
  C  C121  1  0.61896617  0.59034636  0.12295396  1.0
  C  C122  1  0.20787473  0.05207534  0.15058708  1.0
  C  C123  1  0.04604849  0.19496861  0.10071716  1.0
  C  C124  1  0.16909132  0.00578586  0.16456961  1.0
  C  C125  1  0.08581615  0.23990646  0.08761319  1.0
  C  C126  1  0.09041813  0.12708111  0.12446002  1.0
  C  C127  1  0.16284505  0.12213484  0.12856001  1.0
  S  S128  1  0.67202724  0.70102387  0.60235614  1.0
  S  S129  1  0.57308971  0.54768961  0.64598957  1.0
  S  S130  1  0.36649389  0.33423243  0.43645080  1.0
  S  S131  1  0.38277456  0.41021424  0.31076257  1.0
  S  S132  1  0.83813519  0.86600480  0.43907859  1.0
  S  S133  1  0.90901829  0.88722602  0.31298652  1.0
  S  S134  1  0.19930593  0.03093808  0.59924701  1.0
  S  S135  1  0.05577515  0.22833913  0.65389202  1.0
  S  S136  1  0.41349533  0.38587936  0.81292628  1.0
  S  S137  1  0.34251674  0.35851949  0.93873280  1.0
  S  S138  1  0.82147863  0.98583698  0.88489068  1.0
  S  S139  1  0.93261587  0.75900517  0.86048830  1.0
  S  S140  1  0.54867335  0.72403252  0.14855315  1.0
  S  S141  1  0.69705818  0.52353298  0.09775245  1.0
  S  S142  1  0.07821501  0.04724669  0.14929082  1.0
  S  S143  1  0.17612866  0.20116196  0.10420115  1.0
  N  N144  1  0.47124013  0.70686724  0.58638565  1.0
  N  N145  1  0.44941453  0.21998954  0.33719057  1.0
  N  N146  1  0.71926036  0.97337022  0.34225206  1.0
  N  N147  1  0.21276202  0.23098223  0.59311090  1.0
  N  N148  1  0.53267748  0.28955676  0.91031928  1.0
  N  N149  1  0.91560725  0.89448000  0.77887632  1.0
  N  N150  1  0.52539222  0.53263610  0.14325478  1.0
  N  N151  1  0.28745087  0.03297562  0.15426069  1.0
  Cl  Cl152  1  0.45843889  0.23377196  0.60227583  1.0
  Cl  Cl153  1  0.78255155  0.01165354  0.65400844  1.0
  Cl  Cl154  1  0.33753107  0.82300574  0.46940270  1.0
  Cl  Cl155  1  0.40790342  0.92845489  0.28294464  1.0
  Cl  Cl156  1  0.77374237  0.28743528  0.92066153  1.0
  Cl  Cl157  1  0.96403503  0.46931479  0.83086755  1.0
  Cl  Cl158  1  0.01608069  0.78903813  0.14642422  1.0
  Cl  Cl159  1  0.24166428  0.46143534  0.10211448  1.0
  O  O160  1  0.50039142  0.99959331  0.50036130  1.0
  O  O161  1  0.68395240  0.93579048  0.47912487  1.0
  O  O162  1  0.45269589  0.98038122  0.41660041  1.0
  O  O163  1  0.48706439  0.86034417  0.56182380  1.0
  O  O164  1  0.62443443  0.94811763  0.42360033  1.0
  O  O165  1  0.61254740  0.84036131  0.54813499  1.0
  O  O166  1  0.42874728  0.90192584  0.47124427  1.0
  O  O167  1  0.33408349  0.00722024  0.54254947  1.0
  O  O168  1  0.51527416  0.11912202  0.54717667  1.0
  O  O169  1  0.36141993  0.09730988  0.56171862  1.0
  O  O170  1  0.60371571  0.99937387  0.56567856  1.0
  O  O171  1  0.49255857  0.12183372  0.42170979  1.0
  O  O172  1  0.40744979  0.18151066  0.47461375  1.0
  O  O173  1  0.75017406  0.25010247  0.74937598  1.0
  O  O174  1  0.64549592  0.39842749  0.69229270  1.0
  O  O175  1  0.83542159  0.33233091  0.78328710  1.0
  O  O176  1  0.62571471  0.25037170  0.82528497  1.0
  O  O177  1  0.75410010  0.40774682  0.70101869  1.0
  O  O178  1  0.56688012  0.33915773  0.77317469  1.0
  O  O179  1  0.76548176  0.29018328  0.83555740  1.0
  O  O180  1  0.79587719  0.12013098  0.82828737  1.0
  O  O181  1  0.75261618  0.15211451  0.68267523  1.0
  O  O182  1  0.80961024  0.06850440  0.76973286  1.0
  O  O183  1  0.63074684  0.23967602  0.69738428  1.0
  O  O184  1  0.90793542  0.25627139  0.70142932  1.0
  O  O185  1  0.90999173  0.13894024  0.70097928  1.0
  O  O186  1  0.25014693  0.74984890  0.25114085  1.0
  O  O187  1  0.28082003  0.62431019  0.33275564  1.0
  O  O188  1  0.25010982  0.64430854  0.18729691  1.0
  O  O189  1  0.06574481  0.83499038  0.27486378  1.0
  O  O190  1  0.31796858  0.56658609  0.27382823  1.0
  O  O191  1  0.12437981  0.77261152  0.33285988  1.0
  O  O192  1  0.13262473  0.74119229  0.19937623  1.0
  O  O193  1  0.14787804  0.89777920  0.19241518  1.0
  O  O194  1  0.35484872  0.81313642  0.28147846  1.0
  O  O195  1  0.24591766  0.91160890  0.21240998  1.0
  O  O196  1  0.27453482  0.79030791  0.33538440  1.0
  O  O197  1  0.40841647  0.63789463  0.20595362  1.0
  O  O198  1  0.39792446  0.76014242  0.19080778  1.0
  O  O199  1  0.00055266  0.49918889  0.00058458  1.0
  O  O200  1  0.84516627  0.49440083  0.05146994  1.0
  O  O201  1  0.00688061  0.60849896  0.06041291  1.0
  O  O202  1  0.10605650  0.34680329  0.05568719  1.0
  O  O203  1  0.84715149  0.60914863  0.05399267  1.0
  O  O204  1  0.99526115  0.34018701  0.04871125  1.0
  O  O205  1  0.11927311  0.50288770  0.05442315  1.0
  O  O206  1  0.18531797  0.41415382  0.97682712  1.0
  O  O207  1  0.97739009  0.46166091  0.91547997  1.0
  O  O208  1  0.12757410  0.47909625  0.91892673  1.0
  O  O209  1  0.90873926  0.41981368  0.96861764  1.0
  O  O210  1  0.92484499  0.68492063  0.97876486  1.0
  O  O211  1  0.96920992  0.62557996  0.92027240  1.0
  O  O212  1  0.43541753  0.67510453  0.61158061  1.0
  O  O213  1  0.45108018  0.74379996  0.55300189  1.0
  O  O214  1  0.47731098  0.24334353  0.30374284  1.0
  O  O215  1  0.44172914  0.15962069  0.34486614  1.0
  O  O216  1  0.73887923  0.95238708  0.30723652  1.0
  O  O217  1  0.66125186  0.02965633  0.35255430  1.0
  O  O218  1  0.18573745  0.27354092  0.62090631  1.0
  O  O219  1  0.24695673  0.24397077  0.55958691  1.0
  O  O220  1  0.50985679  0.25988106  0.94334645  1.0
  O  O221  1  0.59442746  0.29470491  0.90268257  1.0
  O  O222  1  0.92040172  0.83220983  0.77200288  1.0
  O  O223  1  0.93944603  0.93710597  0.75449742  1.0
  O  O224  1  0.57947800  0.46810006  0.14150265  1.0
  O  O225  1  0.45729685  0.54773776  0.14306394  1.0
  O  O226  1  0.30142588  0.08817204  0.15620455  1.0
  O  O227  1  0.33512781  0.96601441  0.15330309  1.0
