# generated using pymatgen
data_Zn4H32C32N2O13
_symmetry_space_group_name_H-M   'P 1'
_cell_length_a   17.89069266
_cell_length_b   18.52934722
_cell_length_c   19.68668836
_cell_angle_alpha   63.39067084
_cell_angle_beta   63.25725059
_cell_angle_gamma   89.91504213
_symmetry_Int_Tables_number   1
_chemical_formula_structural   Zn4H32C32N2O13
_chemical_formula_sum   'Zn8 H64 C64 N4 O26'
_cell_volume   5044.58301114
_cell_formula_units_Z   2
loop_
 _symmetry_equiv_pos_site_id
 _symmetry_equiv_pos_as_xyz
  1  'x, y, z'
loop_
 _atom_site_type_symbol
 _atom_site_label
 _atom_site_symmetry_multiplicity
 _atom_site_fract_x
 _atom_site_fract_y
 _atom_site_fract_z
 _atom_site_occupancy
  Zn  Zn0  1  0.94667969  0.53233927  0.92480390  1.0
  Zn  Zn1  1  0.96968489  0.38159819  0.07080974  1.0
  Zn  Zn2  1  0.96923906  0.55686428  0.06265189  1.0
  Zn  Zn3  1  0.13322961  0.54372517  0.91138743  1.0
  Zn  Zn4  1  0.56096074  0.96801499  0.06155767  1.0
  Zn  Zn5  1  0.53743636  0.95250585  0.91976142  1.0
  Zn  Zn6  1  0.54714236  0.12605001  0.91337254  1.0
  Zn  Zn7  1  0.37679505  0.96909225  0.06978478  1.0
  H  H8  1  0.22141888  0.82365979  0.34962183  1.0
  H  H9  1  0.47423179  0.84011296  0.31857386  1.0
  H  H10  1  0.28117193  0.67862714  0.63401754  1.0
  H  H11  1  0.02807700  0.66760222  0.66584788  1.0
  H  H12  1  0.68924861  0.27575869  0.63910505  1.0
  H  H13  1  0.67741568  0.03626364  0.65884520  1.0
  H  H14  1  0.83688900  0.23240057  0.34506625  1.0
  H  H15  1  0.83847572  0.47183023  0.32528074  1.0
  H  H16  1  0.90034140  0.79913653  0.88448173  1.0
  H  H17  1  0.88311689  0.78402957  0.98621809  1.0
  H  H18  1  0.79725876  0.87969750  0.97937499  1.0
  H  H19  1  0.81212631  0.89146458  0.87953938  1.0
  H  H20  1  0.67536091  0.76636298  0.12402322  1.0
  H  H21  1  0.60078295  0.70099679  0.12704565  1.0
  H  H22  1  0.75984209  0.66917388  0.12870667  1.0
  H  H23  1  0.68655776  0.60648137  0.12764523  1.0
  H  H24  1  0.79641860  0.70746302  0.88273459  1.0
  H  H25  1  0.71070762  0.62710499  0.98175687  1.0
  H  H26  1  0.62068248  0.71868663  0.98345389  1.0
  H  H27  1  0.70523569  0.79799279  0.88249654  1.0
  H  H28  1  0.21571177  0.30690058  0.87770909  1.0
  H  H29  1  0.13131025  0.22866488  0.98149777  1.0
  H  H30  1  0.22040296  0.13623199  0.98148167  1.0
  H  H31  1  0.30472366  0.21534192  0.87824124  1.0
  H  H32  1  0.20503126  0.12015703  0.12084215  1.0
  H  H33  1  0.27883968  0.18583463  0.11814971  1.0
  H  H34  1  0.11728634  0.21404497  0.12043852  1.0
  H  H35  1  0.19256866  0.28016366  0.11567348  1.0
  H  H36  1  0.32328023  0.40375730  0.86942653  1.0
  H  H37  1  0.31395992  0.39430045  0.96595830  1.0
  H  H38  1  0.40170023  0.30060550  0.96895563  1.0
  H  H39  1  0.41211319  0.31120945  0.87167587  1.0
  H  H40  1  0.90673874  0.27418256  0.91824014  1.0
  H  H41  1  0.86975407  0.35846397  0.86502445  1.0
  H  H42  1  0.78430732  0.26825613  0.85942385  1.0
  H  H43  1  0.82083697  0.18418571  0.91381637  1.0
  H  H44  1  0.65257035  0.30426208  0.94635321  1.0
  H  H45  1  0.59403189  0.24509793  0.06218304  1.0
  H  H46  1  0.73734182  0.39354070  0.95405905  1.0
  H  H47  1  0.67957100  0.33240806  0.06982183  1.0
  H  H48  1  0.82474626  0.18770466  0.08539084  1.0
  H  H49  1  0.73241161  0.21210897  0.14695771  1.0
  H  H50  1  0.64564457  0.12292306  0.14153598  1.0
  H  H51  1  0.73788045  0.09818526  0.08045058  1.0
  H  H52  1  0.18119700  0.81335786  0.90454113  1.0
  H  H53  1  0.27600274  0.78740959  0.84756328  1.0
  H  H54  1  0.35691767  0.88223937  0.85226521  1.0
  H  H55  1  0.26123182  0.90448160  0.91317811  1.0
  H  H56  1  0.40901055  0.76289847  0.93024761  1.0
  H  H57  1  0.35369875  0.70396436  0.04603740  1.0
  H  H58  1  0.32368963  0.66785891  0.92924647  1.0
  H  H59  1  0.26684814  0.61132175  0.04513196  1.0
  H  H60  1  0.09773075  0.73273392  0.07186393  1.0
  H  H61  1  0.13009525  0.64828560  0.12996744  1.0
  H  H62  1  0.21798410  0.73749881  0.13422991  1.0
  H  H63  1  0.18175485  0.82112558  0.08039918  1.0
  H  H64  1  0.09796359  0.80113946  0.43690373  1.0
  H  H65  1  0.01350808  0.74175644  0.54049124  1.0
  H  H66  1  0.40341833  0.74409841  0.54880018  1.0
  H  H67  1  0.48813242  0.78817394  0.44482478  1.0
  H  H68  1  0.70250771  0.39415265  0.55744590  1.0
  H  H69  1  0.76023934  0.47900119  0.45572908  1.0
  H  H70  1  0.76897309  0.11355291  0.42718351  1.0
  H  H71  1  0.72791531  0.02895698  0.52868946  1.0
  C  C72  1  0.85611099  0.35834848  0.00568855  1.0
  C  C73  1  0.89154894  0.39565845  0.23027813  1.0
  C  C74  1  0.85434371  0.63494180  0.99955744  1.0
  C  C75  1  0.15084301  0.64661649  0.98405677  1.0
  C  C76  1  0.11260989  0.61983652  0.75492450  1.0
  C  C77  1  0.15031206  0.36879266  0.98813572  1.0
  C  C78  1  0.64052810  0.85960137  0.99483889  1.0
  C  C79  1  0.63236041  0.11257841  0.75377318  1.0
  C  C80  1  0.64590280  0.14118540  0.99448086  1.0
  C  C81  1  0.36624007  0.14453654  0.99029810  1.0
  C  C82  1  0.39100228  0.88473780  0.22897573  1.0
  C  C83  1  0.35929331  0.86912552  0.99181557  1.0
  C  C84  1  0.26085601  0.80924925  0.38072530  1.0
  C  C85  1  0.40452455  0.81786846  0.36311184  1.0
  C  C86  1  0.37079376  0.77314458  0.45332327  1.0
  C  C87  1  0.27855586  0.74376752  0.51112205  1.0
  C  C88  1  0.24161281  0.69647884  0.60318544  1.0
  C  C89  1  0.09779973  0.68936968  0.62125557  1.0
  C  C90  1  0.13141026  0.73522697  0.53102895  1.0
  C  C91  1  0.22372227  0.76344687  0.47295163  1.0
  C  C92  1  0.35008250  0.83587426  0.32671314  1.0
  C  C93  1  0.15243629  0.66968294  0.65737160  1.0
  C  C94  1  0.70425709  0.24010151  0.60526922  1.0
  C  C95  1  0.69845219  0.10383850  0.61656288  1.0
  C  C96  1  0.74193862  0.13965316  0.52583866  1.0
  C  C97  1  0.76962972  0.22905369  0.47125901  1.0
  C  C98  1  0.81694688  0.26802980  0.37885846  1.0
  C  C99  1  0.81895694  0.40427097  0.36755826  1.0
  C  C100  1  0.77313670  0.36847236  0.45830621  1.0
  C  C101  1  0.74837620  0.27908108  0.51286715  1.0
  C  C102  1  0.68010795  0.15380798  0.65610961  1.0
  C  C103  1  0.84147708  0.35436501  0.32802072  1.0
  C  C104  1  0.84998951  0.78287351  0.95123705  1.0
  C  C105  1  0.79209153  0.84515682  0.94798187  1.0
  C  C106  1  0.69661085  0.79779248  0.99564973  1.0
  C  C107  1  0.66946170  0.73321418  0.09165817  1.0
  C  C108  1  0.72643394  0.67009250  0.09338276  1.0
  C  C109  1  0.79437308  0.69323700  0.99865438  1.0
  C  C110  1  0.74796862  0.69121454  0.94998166  1.0
  C  C111  1  0.68860007  0.75195034  0.94983152  1.0
  C  C112  1  0.19958500  0.26210517  0.94534131  1.0
  C  C113  1  0.25868985  0.20072165  0.94570598  1.0
  C  C114  1  0.30965118  0.20639140  0.98996030  1.0
  C  C115  1  0.24382048  0.18438421  0.08480121  1.0
  C  C116  1  0.18581103  0.24656155  0.08389783  1.0
  C  C117  1  0.21067580  0.31049404  0.98850309  1.0
  C  C118  1  0.30592088  0.35811533  0.93709474  1.0
  C  C119  1  0.36440668  0.29640986  0.93860147  1.0
  C  C120  1  0.84829732  0.29501931  0.92114236  1.0
  C  C121  1  0.79132056  0.23533176  0.91769772  1.0
  C  C122  1  0.70049205  0.19818203  0.00096355  1.0
  C  C123  1  0.65960169  0.27077292  0.00450939  1.0
  C  C124  1  0.71631238  0.32959395  0.00913317  1.0
  C  C125  1  0.79685221  0.29809948  0.00712811  1.0
  C  C126  1  0.76760784  0.20974389  0.08591847  1.0
  C  C127  1  0.71018999  0.15058221  0.08243092  1.0
  C  C128  1  0.23781168  0.79197083  0.90689072  1.0
  C  C129  1  0.29209941  0.85359616  0.91081077  1.0
  C  C130  1  0.30146751  0.80746787  0.99331524  1.0
  C  C131  1  0.34440112  0.73591668  0.98901595  1.0
  C  C132  1  0.28753562  0.67396388  0.98778867  1.0
  C  C133  1  0.20697273  0.70420208  0.98872299  1.0
  C  C134  1  0.15478141  0.71092820  0.07183160  1.0
  C  C135  1  0.21137024  0.77039640  0.07566471  1.0
  N  N136  1  0.07627643  0.75073432  0.49720192  1.0
  N  N137  1  0.42592096  0.75414534  0.48719603  1.0
  N  N138  1  0.75430503  0.41845207  0.49615710  1.0
  N  N139  1  0.76147727  0.08962054  0.48794950  1.0
  O  O140  1  0.00725960  0.50282263  0.99146515  1.0
  O  O141  1  0.87422234  0.43521112  0.94904576  1.0
  O  O142  1  0.91081256  0.34899634  0.19590518  1.0
  O  O143  1  0.88828582  0.62506488  0.04696657  1.0
  O  O144  1  0.88466220  0.32808017  0.05882967  1.0
  O  O145  1  0.86764359  0.60170296  0.95211641  1.0
  O  O146  1  0.91127120  0.47532415  0.18826270  1.0
  O  O147  1  0.06944380  0.63213577  0.03216133  1.0
  O  O148  1  0.16293608  0.60422875  0.78697634  1.0
  O  O149  1  0.18854244  0.61884076  0.93163060  1.0
  O  O150  1  0.03003318  0.59672347  0.79898256  1.0
  O  O151  1  0.06972617  0.33390507  0.04176997  1.0
  O  O152  1  0.18404661  0.44663636  0.93442908  1.0
  O  O153  1  0.50311570  0.00508046  0.99236004  1.0
  O  O154  1  0.64086709  0.89991185  0.03309384  1.0
  O  O155  1  0.61591142  0.03299194  0.79582515  1.0
  O  O156  1  0.62350802  0.17613551  0.93651581  1.0
  O  O157  1  0.59737086  0.86677920  0.95635735  1.0
  O  O158  1  0.62775703  0.06302351  0.04646094  1.0
  O  O159  1  0.61102558  0.15908073  0.78822236  1.0
  O  O160  1  0.44706496  0.17484321  0.93592927  1.0
  O  O161  1  0.34208333  0.90787084  0.19581136  1.0
  O  O162  1  0.32793785  0.06720627  0.04424464  1.0
  O  O163  1  0.47340127  0.89984477  0.18586413  1.0
  O  O164  1  0.43795568  0.89608847  0.92964613  1.0
  O  O165  1  0.32595966  0.88984027  0.05076748  1.0
