# generated using pymatgen
data_AlH3C8O5F2
_symmetry_space_group_name_H-M   'P 1'
_cell_length_a   6.68230369
_cell_length_b   12.00146375
_cell_length_c   17.52073871
_cell_angle_alpha   90.06839159
_cell_angle_beta   90.50633144
_cell_angle_gamma   90.87604941
_symmetry_Int_Tables_number   1
_chemical_formula_structural   AlH3C8O5F2
_chemical_formula_sum   'Al4 H12 C32 O20 F8'
_cell_volume   1404.89779424
_cell_formula_units_Z   4
loop_
 _symmetry_equiv_pos_site_id
 _symmetry_equiv_pos_as_xyz
  1  'x, y, z'
loop_
 _atom_site_type_symbol
 _atom_site_label
 _atom_site_symmetry_multiplicity
 _atom_site_fract_x
 _atom_site_fract_y
 _atom_site_fract_z
 _atom_site_occupancy
  Al  Al0  1  0.99939139  0.00212972  0.50206937  1.0
  Al  Al1  1  0.49917913  0.99818329  0.50087112  1.0
  Al  Al2  1  0.00081831  0.50180648  0.99913459  1.0
  Al  Al3  1  0.50061734  0.49785140  0.99793582  1.0
  H  H4  1  0.74725140  0.14132534  0.47506383  1.0
  H  H5  1  0.23802212  0.86175046  0.47045627  1.0
  H  H6  1  0.75274234  0.35867697  0.02494915  1.0
  H  H7  1  0.26198108  0.63826140  0.02953843  1.0
  H  H8  1  0.55601823  0.34028655  0.80459780  1.0
  H  H9  1  0.94399965  0.15971876  0.69539087  1.0
  H  H10  1  0.06244398  0.66714329  0.20204460  1.0
  H  H11  1  0.43749358  0.83288415  0.29794714  1.0
  H  H12  1  0.43577904  0.71684861  0.82154824  1.0
  H  H13  1  0.06424742  0.78309709  0.67843638  1.0
  H  H14  1  0.56116631  0.33689246  0.20011995  1.0
  H  H15  1  0.93890544  0.16312848  0.29988518  1.0
  C  C16  1  0.24791021  0.12821887  0.39427068  1.0
  C  C17  1  0.26236720  0.12592110  0.60731921  1.0
  C  C18  1  0.75199176  0.87694308  0.60835610  1.0
  C  C19  1  0.74295524  0.87156571  0.39448790  1.0
  C  C20  1  0.25211941  0.37177346  0.10574692  1.0
  C  C21  1  0.23763721  0.37406654  0.89268655  1.0
  C  C22  1  0.74801302  0.62304934  0.89163991  1.0
  C  C23  1  0.75702541  0.62844287  0.10550790  1.0
  C  C24  1  0.25939926  0.19168524  0.67966876  1.0
  C  C25  1  0.24060529  0.30831324  0.82033472  1.0
  C  C26  1  0.42914838  0.24413866  0.71210541  1.0
  C  C27  1  0.07083092  0.25587638  0.78789175  1.0
  C  C28  1  0.42148641  0.30089692  0.78089329  1.0
  C  C29  1  0.07850346  0.19912399  0.71910503  1.0
  C  C30  1  0.75046159  0.80743304  0.32124101  1.0
  C  C31  1  0.74951631  0.69258802  0.17875993  1.0
  C  C32  1  0.92425907  0.75899411  0.29217578  1.0
  C  C33  1  0.57570992  0.74102360  0.20783541  1.0
  C  C34  1  0.92482100  0.70327574  0.22289063  1.0
  C  C35  1  0.57513601  0.79674941  0.27711027  1.0
  C  C36  1  0.74704383  0.81212452  0.68106308  1.0
  C  C37  1  0.75295909  0.68785205  0.81892151  1.0
  C  C38  1  0.57252351  0.79248980  0.72338224  1.0
  C  C39  1  0.92746377  0.70745420  0.77658747  1.0
  C  C40  1  0.57393126  0.73152815  0.79048895  1.0
  C  C41  1  0.92606811  0.76842173  0.70948250  1.0
  C  C42  1  0.25332304  0.19256220  0.32110311  1.0
  C  C43  1  0.24672319  0.30744435  0.17890825  1.0
  C  C44  1  0.42629750  0.24332323  0.29098883  1.0
  C  C45  1  0.07373446  0.25672411  0.20902938  1.0
  C  C46  1  0.42403669  0.29904123  0.22181096  1.0
  C  C47  1  0.07602066  0.20100121  0.27820899  1.0
  O  O48  1  0.07524914  0.09704542  0.41687083  1.0
  O  O49  1  0.42936321  0.08963408  0.58516223  1.0
  O  O50  1  0.58814718  0.89061378  0.57255892  1.0
  O  O51  1  0.90762053  0.89064945  0.42922747  1.0
  O  O52  1  0.92321647  0.91226519  0.58721201  1.0
  O  O53  1  0.57071076  0.90290976  0.41560119  1.0
  O  O54  1  0.41366937  0.10857126  0.42731901  1.0
  O  O55  1  0.09443118  0.10992723  0.57377411  1.0
  O  O56  1  0.74987087  0.06831323  0.49862219  1.0
  O  O57  1  0.24593926  0.93134919  0.49861059  1.0
  O  O58  1  0.08633368  0.39142932  0.07271967  1.0
  O  O59  1  0.40558554  0.39009461  0.92621570  1.0
  O  O60  1  0.57679016  0.58774058  0.91279600  1.0
  O  O61  1  0.92926842  0.59710796  0.08438491  1.0
  O  O62  1  0.91186769  0.60936116  0.92742569  1.0
  O  O63  1  0.59237160  0.60932500  0.07077118  1.0
  O  O64  1  0.42476433  0.40296767  0.08314561  1.0
  O  O65  1  0.07063346  0.41032438  0.91485891  1.0
  O  O66  1  0.75013441  0.43167495  0.00137312  1.0
  O  O67  1  0.25406088  0.56864268  0.00140407  1.0
  F  F68  1  0.60728181  0.24320437  0.67543849  1.0
  F  F69  1  0.89269306  0.25682161  0.82455696  1.0
  F  F70  1  0.10055783  0.76386055  0.33164753  1.0
  F  F71  1  0.39940803  0.73613785  0.16837165  1.0
  F  F72  1  0.39529914  0.83558559  0.70039863  1.0
  F  F73  1  0.10467772  0.66435408  0.79957505  1.0
  F  F74  1  0.60404053  0.24091341  0.32939176  1.0
  F  F75  1  0.89596280  0.25911645  0.17063837  1.0
