# generated using pymatgen
data_AlH7C12NO5F
_symmetry_space_group_name_H-M   'P 1'
_cell_length_a   6.65988200
_cell_length_b   11.13414669
_cell_length_c   17.67624848
_cell_angle_alpha   89.39445479
_cell_angle_beta   79.44366031
_cell_angle_gamma   73.39416144
_symmetry_Int_Tables_number   1
_chemical_formula_structural   AlH7C12NO5F
_chemical_formula_sum   'Al2 H14 C24 N2 O10 F2'
_cell_volume   1233.59094703
_cell_formula_units_Z   2
loop_
 _symmetry_equiv_pos_site_id
 _symmetry_equiv_pos_as_xyz
  1  'x, y, z'
loop_
 _atom_site_type_symbol
 _atom_site_label
 _atom_site_symmetry_multiplicity
 _atom_site_fract_x
 _atom_site_fract_y
 _atom_site_fract_z
 _atom_site_occupancy
  Al  Al0  1  0.00143704  0.48351875  0.49977143  1.0
  Al  Al1  1  0.50214646  0.48133932  0.49944057  1.0
  H  H2  1  0.34583294  0.34002574  0.44572006  1.0
  H  H3  1  0.65330496  0.62195231  0.55686714  1.0
  H  H4  1  0.78960060  0.85600926  0.45633164  1.0
  H  H5  1  0.21905786  0.10882137  0.54097848  1.0
  H  H6  1  0.12644267  0.58141564  0.28079204  1.0
  H  H7  1  0.19589229  0.61207710  0.13864042  1.0
  H  H8  1  0.56416858  0.47750413  0.26007340  1.0
  H  H9  1  0.47401030  0.43751737  0.73427833  1.0
  H  H10  1  0.80315595  0.56140360  0.72965103  1.0
  H  H11  1  0.72179391  0.59704030  0.87305151  1.0
  H  H12  1  0.66812639  0.48374436  0.04943670  1.0
  H  H13  1  0.51083858  0.44402770  0.12846995  1.0
  H  H14  1  0.38853678  0.45436909  0.94517184  1.0
  H  H15  1  0.57614639  0.40906971  0.86210440  1.0
  C  C16  1  0.80477280  0.50305357  0.36157559  1.0
  C  C17  1  0.86503122  0.25587508  0.49974277  1.0
  C  C18  1  0.19201521  0.48200124  0.63881768  1.0
  C  C19  1  0.14056276  0.70920483  0.49873509  1.0
  C  C20  1  0.93304972  0.11562298  0.49833831  1.0
  C  C21  1  0.07532940  0.84933835  0.49902635  1.0
  C  C22  1  0.81627539  0.04080406  0.47441664  1.0
  C  C23  1  0.19263938  0.92404369  0.52261802  1.0
  C  C24  1  0.88454405  0.91115147  0.47478817  1.0
  C  C25  1  0.12420544  0.05376095  0.52234873  1.0
  C  C26  1  0.84277021  0.52586635  0.27755488  1.0
  C  C27  1  0.02148406  0.56445514  0.24420841  1.0
  C  C28  1  0.06003038  0.58047315  0.16549465  1.0
  C  C29  1  0.92747809  0.55414380  0.11809755  1.0
  C  C30  1  0.74368286  0.51743457  0.15236556  1.0
  C  C31  1  0.70308334  0.50573604  0.23239822  1.0
  C  C32  1  0.97632098  0.55647066  0.03704467  1.0
  C  C33  1  0.00601080  0.54856371  0.96649682  1.0
  C  C34  1  0.05142370  0.53393932  0.88537692  1.0
  C  C35  1  0.26792928  0.48757966  0.84628670  1.0
  C  C36  1  0.30996310  0.47105954  0.76577129  1.0
  C  C37  1  0.14346051  0.49673555  0.72458234  1.0
  C  C38  1  0.93009829  0.54114010  0.76305284  1.0
  C  C39  1  0.88608531  0.56068389  0.84242489  1.0
  N  N40  1  0.60908061  0.49582555  0.10690210  1.0
  N  N41  1  0.43037593  0.46381723  0.88774208  1.0
  O  O42  1  0.96574314  0.48265171  0.39454954  1.0
  O  O43  1  0.67452388  0.31043596  0.49271561  1.0
  O  O44  1  0.38618878  0.46193925  0.60559988  1.0
  O  O45  1  0.99896183  0.65679102  0.49050832  1.0
  O  O46  1  0.03393930  0.49394144  0.60507518  1.0
  O  O47  1  0.32970312  0.65321075  0.50679461  1.0
  O  O48  1  0.61689431  0.50313672  0.39360854  1.0
  O  O49  1  0.00485967  0.30977447  0.50809675  1.0
  O  O50  1  0.29442372  0.42652939  0.46533040  1.0
  O  O51  1  0.70832654  0.53751416  0.53391135  1.0
  F  F52  1  0.63148940  0.09303056  0.44871201  1.0
  F  F53  1  0.37779244  0.87155282  0.54804377  1.0
