# generated using pymatgen
data_Zn2H13C43Br10(NO5)2
_symmetry_space_group_name_H-M   'P 1'
_cell_length_a   16.57624872
_cell_length_b   17.75561570
_cell_length_c   28.68315872
_cell_angle_alpha   90.72533236
_cell_angle_beta   90.13897183
_cell_angle_gamma   90.58554492
_symmetry_Int_Tables_number   1
_chemical_formula_structural   Zn2H13C43Br10(NO5)2
_chemical_formula_sum   'Zn4 H26 C86 Br20 N4 O20'
_cell_volume   8440.92552693
_cell_formula_units_Z   2
loop_
 _symmetry_equiv_pos_site_id
 _symmetry_equiv_pos_as_xyz
  1  'x, y, z'
loop_
 _atom_site_type_symbol
 _atom_site_label
 _atom_site_symmetry_multiplicity
 _atom_site_fract_x
 _atom_site_fract_y
 _atom_site_fract_z
 _atom_site_occupancy
  Zn  Zn0  1  0.41872504  0.49998624  0.50105885  1.0
  Zn  Zn1  1  0.58887977  0.50348634  0.50173113  1.0
  Zn  Zn2  1  0.58769620  0.49777810  0.88204462  1.0
  Zn  Zn3  1  0.41687724  0.49439933  0.88126854  1.0
  H  H4  1  0.71662646  0.43780480  0.55858206  1.0
  H  H5  1  0.71762131  0.57981674  0.44481043  1.0
  H  H6  1  0.28850930  0.43100686  0.55950422  1.0
  H  H7  1  0.29311012  0.57701971  0.44761059  1.0
  H  H8  1  0.37262907  0.26376851  0.47181112  1.0
  H  H9  1  0.62811092  0.26768697  0.49749249  1.0
  H  H10  1  0.36594509  0.74305704  0.53720416  1.0
  H  H11  1  0.62120458  0.73724562  0.50944972  1.0
  H  H12  1  0.38333324  0.55701707  0.77565087  1.0
  H  H13  1  0.39590484  0.55678516  0.60323949  1.0
  H  H14  1  0.60670135  0.39346655  0.64802353  1.0
  H  H15  1  0.60335829  0.39442996  0.73506346  1.0
  H  H16  1  0.62123370  0.49101783  0.02895244  1.0
  H  H17  1  0.36781502  0.53929502  0.02791246  1.0
  H  H18  1  0.62677230  0.50768336  0.35508353  1.0
  H  H19  1  0.37106472  0.54549232  0.35789203  1.0
  H  H20  1  0.28806717  0.44370111  0.81323388  1.0
  H  H21  1  0.28979021  0.55945310  0.93983517  1.0
  H  H22  1  0.71546667  0.41299661  0.83396712  1.0
  H  H23  1  0.71677451  0.59252521  0.92803381  1.0
  H  H24  1  0.63018680  0.26220811  0.87750526  1.0
  H  H25  1  0.37534184  0.25703014  0.90424934  1.0
  H  H26  1  0.63049681  0.73381660  0.86731084  1.0
  H  H27  1  0.37294442  0.72975000  0.84893569  1.0
  H  H28  1  0.32665350  0.73566419  0.72775894  1.0
  H  H29  1  0.34201165  0.63599529  0.57805441  1.0
  C  C30  1  0.50135275  0.35831131  0.48324745  1.0
  C  C31  1  0.51153884  0.46946838  0.58932047  1.0
  C  C32  1  0.49330416  0.64664045  0.52354815  1.0
  C  C33  1  0.50354788  0.53173569  0.41380309  1.0
  C  C34  1  0.50378681  0.35207814  0.89429486  1.0
  C  C35  1  0.50457066  0.46879128  0.79205714  1.0
  C  C36  1  0.50285083  0.63952483  0.86371635  1.0
  C  C37  1  0.49760085  0.51930410  0.97113560  1.0
  C  C38  1  0.75302330  0.46908257  0.53371859  1.0
  C  C39  1  0.83684280  0.46888887  0.53527110  1.0
  C  C40  1  0.88250218  0.51141123  0.50296459  1.0
  C  C41  1  0.83741885  0.55245337  0.46991741  1.0
  C  C42  1  0.75349789  0.54947866  0.47017696  1.0
  C  C43  1  0.96733059  0.51223844  0.50367806  1.0
  C  C44  1  0.04091838  0.51166837  0.50465520  1.0
  C  C45  1  0.12574051  0.50997380  0.50481972  1.0
  C  C46  1  0.16970092  0.46630681  0.53703758  1.0
  C  C47  1  0.25349319  0.46419666  0.53513876  1.0
  C  C48  1  0.25600107  0.54638748  0.47245870  1.0
  C  C49  1  0.17233190  0.55106992  0.47223541  1.0
  C  C50  1  0.50047678  0.27386648  0.48447106  1.0
  C  C51  1  0.42792608  0.23360523  0.47918825  1.0
  C  C52  1  0.42725709  0.15592640  0.48418473  1.0
  C  C53  1  0.49821307  0.11511725  0.49469221  1.0
  C  C54  1  0.57074229  0.15808620  0.49853640  1.0
  C  C55  1  0.57213846  0.23568773  0.49362754  1.0
  C  C56  1  0.49685239  0.03671341  0.50165088  1.0
  C  C57  1  0.49629559  0.96893010  0.50849390  1.0
  C  C58  1  0.49592197  0.89043680  0.51509179  1.0
  C  C59  1  0.42418431  0.84981910  0.52585787  1.0
  C  C60  1  0.42260893  0.77188816  0.52981697  1.0
  C  C61  1  0.49377147  0.73111684  0.52349971  1.0
  C  C62  1  0.56625431  0.76932999  0.51424165  1.0
  C  C63  1  0.56703771  0.84705322  0.51021747  1.0
  C  C64  1  0.50201579  0.46752725  0.73978718  1.0
  C  C65  1  0.44433513  0.51109479  0.71509539  1.0
  C  C66  1  0.55907186  0.42632991  0.71552475  1.0
  C  C67  1  0.38607857  0.55674727  0.73776971  1.0
  C  C68  1  0.33286020  0.60086196  0.71331902  1.0
  C  C69  1  0.50598311  0.46705135  0.64134189  1.0
  C  C70  1  0.56108628  0.42590538  0.66652411  1.0
  C  C71  1  0.44693954  0.51105518  0.66515763  1.0
  C  C72  1  0.39281748  0.55789579  0.64104040  1.0
  C  C73  1  0.33688264  0.60242034  0.66356056  1.0
  C  C74  1  0.49505200  0.51670956  0.02337911  1.0
  C  C75  1  0.56557598  0.50056615  0.04805016  1.0
  C  C76  1  0.56363982  0.49623734  0.09625813  1.0
  C  C77  1  0.49187879  0.50854572  0.12217890  1.0
  C  C78  1  0.42144924  0.52363022  0.09562850  1.0
  C  C79  1  0.42265093  0.52778812  0.04734796  1.0
  C  C80  1  0.49117222  0.50764628  0.17127557  1.0
  C  C81  1  0.49159874  0.50972842  0.21389863  1.0
  C  C82  1  0.49380062  0.51477285  0.26291615  1.0
  C  C83  1  0.56698538  0.50732788  0.28832746  1.0
  C  C84  1  0.57008870  0.51420898  0.33648138  1.0
  C  C85  1  0.49954438  0.52841796  0.36168732  1.0
  C  C86  1  0.42597670  0.53547391  0.33818649  1.0
  C  C87  1  0.42353785  0.52864546  0.28992867  1.0
  C  C88  1  0.25244431  0.47085851  0.84039126  1.0
  C  C89  1  0.16877123  0.47486617  0.83746874  1.0
  C  C90  1  0.12421534  0.51094164  0.87326888  1.0
  C  C91  1  0.16991305  0.54292261  0.91051927  1.0
  C  C92  1  0.25334276  0.53633076  0.91131367  1.0
  C  C93  1  0.03934625  0.51314036  0.87284096  1.0
  C  C94  1  0.96580414  0.51288292  0.87416529  1.0
  C  C95  1  0.88106636  0.51008789  0.87624134  1.0
  C  C96  1  0.83540550  0.45624064  0.85016686  1.0
  C  C97  1  0.75177465  0.45385372  0.85365471  1.0
  C  C98  1  0.75244532  0.55454821  0.90643700  1.0
  C  C99  1  0.83621321  0.55997418  0.90489699  1.0
  C  C100  1  0.50288934  0.26770685  0.89125847  1.0
  C  C101  1  0.57446047  0.22995494  0.88095048  1.0
  C  C102  1  0.57331325  0.15247037  0.87447449  1.0
  C  C103  1  0.50123543  0.10903224  0.87814416  1.0
  C  C104  1  0.43028027  0.14947428  0.88967003  1.0
  C  C105  1  0.43063077  0.22712391  0.89607666  1.0
  C  C106  1  0.50030048  0.03049737  0.87065609  1.0
  C  C107  1  0.49997526  0.96232560  0.86430659  1.0
  C  C108  1  0.50079135  0.88327207  0.85989120  1.0
  C  C109  1  0.57358706  0.84217656  0.86336298  1.0
  C  C110  1  0.57424803  0.76413887  0.86340431  1.0
  C  C111  1  0.50173330  0.72355747  0.85923467  1.0
  C  C112  1  0.42894589  0.76162763  0.85320167  1.0
  C  C113  1  0.42896716  0.83987414  0.85355124  1.0
  C  C114  1  0.27240362  0.64274644  0.74285118  1.0
  C  C115  1  0.27821282  0.64801898  0.63642753  1.0
  Br  Br116  1  0.88936885  0.61160370  0.42478815  1.0
  Br  Br117  1  0.88761244  0.41097171  0.58111916  1.0
  Br  Br118  1  0.12295084  0.61246650  0.42770244  1.0
  Br  Br119  1  0.11669685  0.40971541  0.58294490  1.0
  Br  Br120  1  0.66909744  0.10918767  0.51206645  1.0
  Br  Br121  1  0.32784580  0.10314499  0.47715892  1.0
  Br  Br122  1  0.66631983  0.89556326  0.49624873  1.0
  Br  Br123  1  0.32666107  0.90280753  0.53464635  1.0
  Br  Br124  1  0.32185431  0.53856922  0.12660884  1.0
  Br  Br125  1  0.66067357  0.47267376  0.12768243  1.0
  Br  Br126  1  0.32241774  0.53750730  0.25959988  1.0
  Br  Br127  1  0.66424225  0.48689906  0.25628184  1.0
  Br  Br128  1  0.11934118  0.59345675  0.96047748  1.0
  Br  Br129  1  0.11656298  0.43118888  0.78542714  1.0
  Br  Br130  1  0.88836010  0.63485366  0.94136354  1.0
  Br  Br131  1  0.88652304  0.38605736  0.81060820  1.0
  Br  Br132  1  0.33126403  0.09620250  0.89620038  1.0
  Br  Br133  1  0.67161109  0.10445453  0.85914483  1.0
  Br  Br134  1  0.32934169  0.88979375  0.84592609  1.0
  Br  Br135  1  0.67347998  0.89419231  0.86966056  1.0
  N  N136  1  0.71294997  0.50861563  0.50165447  1.0
  N  N137  1  0.29489404  0.50327393  0.50319451  1.0
  N  N138  1  0.29298987  0.50035098  0.87696580  1.0
  N  N139  1  0.71190110  0.50225069  0.88130507  1.0
  O  O140  1  0.43423075  0.39115751  0.47706033  1.0
  O  O141  1  0.56943861  0.39070094  0.48989200  1.0
  O  O142  1  0.58105956  0.48136678  0.57219146  1.0
  O  O143  1  0.44607437  0.46141897  0.56612091  1.0
  O  O144  1  0.55985970  0.61467061  0.51486753  1.0
  O  O145  1  0.42617680  0.61196828  0.53069897  1.0
  O  O146  1  0.43757561  0.54101567  0.43606079  1.0
  O  O147  1  0.57273836  0.52324134  0.43219072  1.0
  O  O148  1  0.57201834  0.38424786  0.88836221  1.0
  O  O149  1  0.43685219  0.38489740  0.90120284  1.0
  O  O150  1  0.43817537  0.45884381  0.81353854  1.0
  O  O151  1  0.57330654  0.48076673  0.81051878  1.0
  O  O152  1  0.43619693  0.60393859  0.85888276  1.0
  O  O153  1  0.57078295  0.61034743  0.87311944  1.0
  O  O154  1  0.56639987  0.51104420  0.95232938  1.0
  O  O155  1  0.43091850  0.52831578  0.94971251  1.0
  O  O156  1  0.28424797  0.71817681  0.74869156  1.0
  O  O157  1  0.22047078  0.61032331  0.76508394  1.0
  O  O158  1  0.29019128  0.65574454  0.58976071  1.0
  O  O159  1  0.21957050  0.67715290  0.65466263  1.0
