# generated using pymatgen
data_Zn4H22C41O14
_symmetry_space_group_name_H-M   'P 1'
_cell_length_a   15.11034278
_cell_length_b   15.25705351
_cell_length_c   19.49347745
_cell_angle_alpha   90.87682069
_cell_angle_beta   90.76954901
_cell_angle_gamma   90.15346759
_symmetry_Int_Tables_number   1
_chemical_formula_structural   Zn4H22C41O14
_chemical_formula_sum   'Zn4 H22 C41 O14'
_cell_volume   4493.06259123
_cell_formula_units_Z   1
loop_
 _symmetry_equiv_pos_site_id
 _symmetry_equiv_pos_as_xyz
  1  'x, y, z'
loop_
 _atom_site_type_symbol
 _atom_site_label
 _atom_site_symmetry_multiplicity
 _atom_site_fract_x
 _atom_site_fract_y
 _atom_site_fract_z
 _atom_site_occupancy
  Zn  Zn0  1  0.42337008  0.43156140  0.43842767  1.0
  Zn  Zn1  1  0.56908829  0.41550501  0.55572986  1.0
  Zn  Zn2  1  0.43008553  0.57711528  0.55850851  1.0
  Zn  Zn3  1  0.58356694  0.57271996  0.44903768  1.0
  H  H4  1  0.40897087  0.41609299  0.22692067  1.0
  H  H5  1  0.34155911  0.16572806  0.44128284  1.0
  H  H6  1  0.66221570  0.99907098  0.55612214  1.0
  H  H7  1  0.42793897  0.61070404  0.77094047  1.0
  H  H8  1  0.32155030  0.00397569  0.44361121  1.0
  H  H9  1  0.65189999  0.83636123  0.55061428  1.0
  H  H10  1  0.54172606  0.35303665  0.76306697  1.0
  H  H11  1  0.48070666  0.40630789  0.99969260  1.0
  H  H12  1  0.59016047  0.64242706  0.11277243  1.0
  H  H13  1  0.42782024  0.60664654  0.89851357  1.0
  H  H14  1  0.59563001  0.62874639  0.23998469  1.0
  H  H15  1  0.53690689  0.34574234  0.89064736  1.0
  H  H16  1  0.51300546  0.60545049  0.00157711  1.0
  H  H17  1  0.40467597  0.42723677  0.09976267  1.0
  H  H18  1  0.37556971  0.76286101  0.46107965  1.0
  H  H19  1  0.85560037  0.60908663  0.48117246  1.0
  H  H20  1  0.83784659  0.33668910  0.53256077  1.0
  H  H21  1  0.00335669  0.68051657  0.47237493  1.0
  H  H22  1  0.00185086  0.32218657  0.52528230  1.0
  H  H23  1  0.16771905  0.66954389  0.47587854  1.0
  H  H24  1  0.14943504  0.39059624  0.50393182  1.0
  H  H25  1  0.59847080  0.14280195  0.53575645  1.0
  C  C26  1  0.73959603  0.48217135  0.50766731  1.0
  C  C27  1  0.49842141  0.54079603  0.02231398  1.0
  C  C28  1  0.48612889  0.47210483  0.97850515  1.0
  C  C29  1  0.26566429  0.52124162  0.49063160  1.0
  C  C30  1  0.48585587  0.48255108  0.75941779  1.0
  C  C31  1  0.83783153  0.47418909  0.50634361  1.0
  C  C32  1  0.16730612  0.52851775  0.48959921  1.0
  C  C33  1  0.03556586  0.61749755  0.48057068  1.0
  C  C34  1  0.12641831  0.61154463  0.48186197  1.0
  C  C35  1  0.11674376  0.45379713  0.49828327  1.0
  C  C36  1  0.02346535  0.45905096  0.50182035  1.0
  C  C37  1  0.49874265  0.53432836  0.09695562  1.0
  C  C38  1  0.98186378  0.54232545  0.49094798  1.0
  C  C39  1  0.88850302  0.54709586  0.49160707  1.0
  C  C40  1  0.87918064  0.39267468  0.52006072  1.0
  C  C41  1  0.48191425  0.26103633  0.48979904  1.0
  C  C42  1  0.96974358  0.38511331  0.51635719  1.0
  C  C43  1  0.47132365  0.16376270  0.48918016  1.0
  C  C44  1  0.51743808  0.83597047  0.51069859  1.0
  C  C45  1  0.60200959  0.96679406  0.53696504  1.0
  C  C46  1  0.59635663  0.87682358  0.53428936  1.0
  C  C47  1  0.44447927  0.88480854  0.48853353  1.0
  C  C48  1  0.55071524  0.59232980  0.13767768  1.0
  C  C49  1  0.45061505  0.97891170  0.48840198  1.0
  C  C50  1  0.53069632  0.01958304  0.51399551  1.0
  C  C51  1  0.53842174  0.11192795  0.51511089  1.0
  C  C52  1  0.39336060  0.12388371  0.46214131  1.0
  C  C53  1  0.51603192  0.73737386  0.51099705  1.0
  C  C54  1  0.38247127  0.03408243  0.46280802  1.0
  C  C55  1  0.48803634  0.48622143  0.68320609  1.0
  C  C56  1  0.50503046  0.51366041  0.31716556  1.0
  C  C57  1  0.50320004  0.52107532  0.24110146  1.0
  C  C58  1  0.44946293  0.46439102  0.20117465  1.0
  C  C59  1  0.55405814  0.58503680  0.20866544  1.0
  C  C60  1  0.44775151  0.47058709  0.13023491  1.0
  C  C61  1  0.36544430  0.83514132  0.46442593  1.0
  C  C62  1  0.45382450  0.55130487  0.86906136  1.0
  C  C63  1  0.45336411  0.55377967  0.79786354  1.0
  C  C64  1  0.51660831  0.40792961  0.79337916  1.0
  C  C65  1  0.51405605  0.40442275  0.86447851  1.0
  C  C66  1  0.48453783  0.47668042  0.90380663  1.0
  O  O67  1  0.50184563  0.49959915  0.50058915  1.0
  O  O68  1  0.53838664  0.43135426  0.65267222  1.0
  O  O69  1  0.56341853  0.55904088  0.35005682  1.0
  O  O70  1  0.43949101  0.54425547  0.65467505  1.0
  O  O71  1  0.44805703  0.46229769  0.34342093  1.0
  O  O72  1  0.29285815  0.86549446  0.44872094  1.0
  O  O73  1  0.43105238  0.30399588  0.44979403  1.0
  O  O74  1  0.56590024  0.69970898  0.46758896  1.0
  O  O75  1  0.69710445  0.42358460  0.53998749  1.0
  O  O76  1  0.30871144  0.58357831  0.52059051  1.0
  O  O77  1  0.70588851  0.54739416  0.47632415  1.0
  O  O78  1  0.29878318  0.45312221  0.46233976  1.0
  O  O79  1  0.54115753  0.29320786  0.53021236  1.0
  O  O80  1  0.46810583  0.70130744  0.55574184  1.0
