# generated using pymatgen
data_Zn4H7C24S4BrO13
_symmetry_space_group_name_H-M   'P 1'
_cell_length_a   19.67603449
_cell_length_b   19.68471825
_cell_length_c   33.39480420
_cell_angle_alpha   79.13109358
_cell_angle_beta   79.15719396
_cell_angle_gamma   63.92979729
_symmetry_Int_Tables_number   1
_chemical_formula_structural   Zn4H7C24S4BrO13
_chemical_formula_sum   'Zn16 H28 C96 S16 Br4 O52'
_cell_volume   11328.47039593
_cell_formula_units_Z   4
loop_
 _symmetry_equiv_pos_site_id
 _symmetry_equiv_pos_as_xyz
  1  'x, y, z'
loop_
 _atom_site_type_symbol
 _atom_site_label
 _atom_site_symmetry_multiplicity
 _atom_site_fract_x
 _atom_site_fract_y
 _atom_site_fract_z
 _atom_site_occupancy
  Zn  Zn0  1  0.05469334  0.40018634  0.47794211  1.0
  Zn  Zn1  1  0.98425695  0.48328560  0.56093281  1.0
  Zn  Zn2  1  0.05984064  0.55923036  0.48210214  1.0
  Zn  Zn3  1  0.90152589  0.55622294  0.47939316  1.0
  Zn  Zn4  1  0.69418516  0.34912491  0.27195981  1.0
  Zn  Zn5  1  0.68937989  0.18921434  0.26629787  1.0
  Zn  Zn6  1  0.76793363  0.26799113  0.19061739  1.0
  Zn  Zn7  1  0.84881780  0.19481205  0.27213538  1.0
  Zn  Zn8  1  0.26704523  0.76636311  0.68966356  1.0
  Zn  Zn9  1  0.34932109  0.69532591  0.77220778  1.0
  Zn  Zn10  1  0.19338696  0.84790050  0.77088229  1.0
  Zn  Zn11  1  0.18980518  0.68899947  0.76671062  1.0
  Zn  Zn12  1  0.56020463  0.06034075  0.98319034  1.0
  Zn  Zn13  1  0.40122766  0.05511100  0.97827682  1.0
  Zn  Zn14  1  0.55512320  0.90121074  0.97820325  1.0
  Zn  Zn15  1  0.48330111  0.98354047  0.06039116  1.0
  H  H16  1  0.95448122  0.24894906  0.35167060  1.0
  H  H17  1  0.74706645  0.45341579  0.35007321  1.0
  H  H18  1  0.99915540  0.30043009  0.39977939  1.0
  H  H19  1  0.09694657  0.59675397  0.69970284  1.0
  H  H20  1  0.20142990  0.70148834  0.59825973  1.0
  H  H21  1  0.05059128  0.55053801  0.64983423  1.0
  H  H22  1  0.28576083  0.51024031  0.40930132  1.0
  H  H23  1  0.46415354  0.23912791  0.34069737  1.0
  H  H24  1  0.77162759  0.54689597  0.64868768  1.0
  H  H25  1  0.47857305  0.70277560  0.60158130  1.0
  H  H26  1  0.04724892  0.27118595  0.64850813  1.0
  H  H27  1  0.20313928  0.97834121  0.60145948  1.0
  H  H28  1  0.80082147  0.77912215  0.40233106  1.0
  H  H29  1  0.94914211  0.97092499  0.34778068  1.0
  H  H30  1  0.55033619  0.05044076  0.15314024  1.0
  H  H31  1  0.65177052  0.15187995  0.04855154  1.0
  H  H32  1  0.60025530  0.10014823  0.19944112  1.0
  H  H33  1  0.70283719  0.47864997  0.10178318  1.0
  H  H34  1  0.54694028  0.77192901  0.14827292  1.0
  H  H35  1  0.08700812  0.10836247  0.21011124  1.0
  H  H36  1  0.16334183  0.14117825  0.04008400  1.0
  H  H37  1  0.50120041  0.79539759  0.89838758  1.0
  H  H38  1  0.29679696  0.00291553  0.89977568  1.0
  H  H39  1  0.44971913  0.75080659  0.85028130  1.0
  H  H40  1  0.44897195  0.47094678  0.84769098  1.0
  H  H41  1  0.30090358  0.27892219  0.90231744  1.0
  H  H42  1  0.96359366  0.73893431  0.84079629  1.0
  H  H43  1  0.78612496  0.01039635  0.90924745  1.0
  C  C44  1  0.06136819  0.31584747  0.56175571  1.0
  C  C45  1  0.06875230  0.56908976  0.56938032  1.0
  C  C46  1  0.18396265  0.43856817  0.43828773  1.0
  C  C47  1  0.93807483  0.68421459  0.43850027  1.0
  C  C48  1  0.93153657  0.43019620  0.43086193  1.0
  C  C49  1  0.81622462  0.56156583  0.56198123  1.0
  C  C50  1  0.56564493  0.31116025  0.31130624  1.0
  C  C51  1  0.68076422  0.18070022  0.18113795  1.0
  C  C52  1  0.68899825  0.43452220  0.18858586  1.0
  C  C53  1  0.93471891  0.18882814  0.18902243  1.0
  C  C54  1  0.81955330  0.31947453  0.31938812  1.0
  C  C55  1  0.81191995  0.06585186  0.31144975  1.0
  C  C56  1  0.43394777  0.68893483  0.68834000  1.0
  C  C57  1  0.31975591  0.81842112  0.81914261  1.0
  C  C58  1  0.18864038  0.93356333  0.68814503  1.0
  C  C59  1  0.06530397  0.81067122  0.81116111  1.0
  C  C60  1  0.18044892  0.68052284  0.68060103  1.0
  C  C61  1  0.31161865  0.56573674  0.81140703  1.0
  C  C62  1  0.43815678  0.18409498  0.93860042  1.0
  C  C63  1  0.43074094  0.93042103  0.93060502  1.0
  C  C64  1  0.68400261  0.93899641  0.93859063  1.0
  C  C65  1  0.56122713  0.81621554  0.06152360  1.0
  C  C66  1  0.56936354  0.06946470  0.06947560  1.0
  C  C67  1  0.31568744  0.06170469  0.06124844  1.0
  C  C68  1  0.89915429  0.40522526  0.40213075  1.0
  C  C69  1  0.84800961  0.34843609  0.34802961  1.0
  C  C70  1  0.82730499  0.44845063  0.38777924  1.0
  C  C71  1  0.91942166  0.30467521  0.36193962  1.0
  C  C72  1  0.80245456  0.41996953  0.36102450  1.0
  C  C73  1  0.94392672  0.33324204  0.38851019  1.0
  C  C74  1  0.09929283  0.59956924  0.59626869  1.0
  C  C75  1  0.15194129  0.65198410  0.65178323  1.0
  C  C76  1  0.14239817  0.64265924  0.58184623  1.0
  C  C77  1  0.10932509  0.60928352  0.66666667  1.0
  C  C78  1  0.16822261  0.66835479  0.60949291  1.0
  C  C79  1  0.08378850  0.58384114  0.63908320  1.0
  C  C80  1  0.30342759  0.45341729  0.40121395  1.0
  C  C81  1  0.44657274  0.29591543  0.34879905  1.0
  C  C82  1  0.25895492  0.41308448  0.41356664  1.0
  C  C83  1  0.49097740  0.33628448  0.33636684  1.0
  C  C84  1  0.37834865  0.33838591  0.37245626  1.0
  C  C85  1  0.37177086  0.41084444  0.37767441  1.0
  C  C86  1  0.72644893  0.57594785  0.62898196  1.0
  C  C87  1  0.52373520  0.67370990  0.62129361  1.0
  C  C88  1  0.74117637  0.58628220  0.58662135  1.0
  C  C89  1  0.50901361  0.66352959  0.66367069  1.0
  C  C90  1  0.60283446  0.64186749  0.60860205  1.0
  C  C91  1  0.64736185  0.60771964  0.64165860  1.0
  C  C92  1  0.07633392  0.22603118  0.62882393  1.0
  C  C93  1  0.17412909  0.02344649  0.62117576  1.0
  C  C94  1  0.08654843  0.24078071  0.58644748  1.0
  C  C95  1  0.16379183  0.00864032  0.66354023  1.0
  C  C96  1  0.14231506  0.10251431  0.60849604  1.0
  C  C97  1  0.10813122  0.14696536  0.64154986  1.0
  C  C98  1  0.84487430  0.79998130  0.39759804  1.0
  C  C99  1  0.90507636  0.95010214  0.35245995  1.0
  C  C100  1  0.91363901  0.75899882  0.41359346  1.0
  C  C101  1  0.83635522  0.99105854  0.33641264  1.0
  C  C102  1  0.90835918  0.88049243  0.37468357  1.0
  C  C103  1  0.84172593  0.86947403  0.37528301  1.0
  C  C104  1  0.65389650  0.15377539  0.15059610  1.0
  C  C105  1  0.59820652  0.09833382  0.09800015  1.0
  C  C106  1  0.66828329  0.16819673  0.10748356  1.0
  C  C107  1  0.58336125  0.08342866  0.14068045  1.0
  C  C108  1  0.64053877  0.14060722  0.08171876  1.0
  C  C109  1  0.61102912  0.11097046  0.16618924  1.0
  C  C110  1  0.67374887  0.52394114  0.12138525  1.0
  C  C111  1  0.57596943  0.72668604  0.12864329  1.0
  C  C112  1  0.66353707  0.50946788  0.16378170  1.0
  C  C113  1  0.58622713  0.74122894  0.08625615  1.0
  C  C114  1  0.60768122  0.64767050  0.14149431  1.0
  C  C115  1  0.64182135  0.60297033  0.10853098  1.0
  C  C116  1  0.08009334  0.12462415  0.17766481  1.0
  C  C117  1  0.17023059  0.12484371  0.07253098  1.0
  C  C118  1  0.00922334  0.16354475  0.16379742  1.0
  C  C119  1  0.24112385  0.08617530  0.08641577  1.0
  C  C120  1  0.11152561  0.13884067  0.10567930  1.0
  C  C121  1  0.13873450  0.11044156  0.14449776  1.0
  C  C122  1  0.34490730  0.85078718  0.84783057  1.0
  C  C123  1  0.40182035  0.90200632  0.90191496  1.0
  C  C124  1  0.30174950  0.92265669  0.86212233  1.0
  C  C125  1  0.44549357  0.83055532  0.88807732  1.0
  C  C126  1  0.33027401  0.94754118  0.88884917  1.0
  C  C127  1  0.41690377  0.80604377  0.86150332  1.0
  C  C128  1  0.40495684  0.45004562  0.85240920  1.0
  C  C129  1  0.34494088  0.29979330  0.89761236  1.0
  C  C130  1  0.33625193  0.49089609  0.83634947  1.0
  C  C131  1  0.41366526  0.25889439  0.91366924  1.0
  C  C132  1  0.34171508  0.36931067  0.87529166  1.0
  C  C133  1  0.40827979  0.38043990  0.87468912  1.0
  C  C134  1  0.94614288  0.79574655  0.84883326  1.0
  C  C135  1  0.80352701  0.95358567  0.90122270  1.0
  C  C136  1  0.99072658  0.83591902  0.83630656  1.0
  C  C137  1  0.75884033  0.91350519  0.91369907  1.0
  C  C138  1  0.87170933  0.91083297  0.87762044  1.0
  C  C139  1  0.87800599  0.83843078  0.87248654  1.0
  S  S140  1  0.29978770  0.32350344  0.39681379  1.0
  S  S141  1  0.45029558  0.42575847  0.35326317  1.0
  S  S142  1  0.65937639  0.63436899  0.56200217  1.0
  S  S143  1  0.59084010  0.61536271  0.68825766  1.0
  S  S144  1  0.13473845  0.15903463  0.56188025  1.0
  S  S145  1  0.11562664  0.09038603  0.68815061  1.0
  S  S146  1  0.97461045  0.80444969  0.40170516  1.0
  S  S147  1  0.77553772  0.94544487  0.34820161  1.0
  S  S148  1  0.61523067  0.59141104  0.18819521  1.0
  S  S149  1  0.63431963  0.65926308  0.06183148  1.0
  S  S150  1  0.01334532  0.18296474  0.11058312  1.0
  S  S151  1  0.23691061  0.06659811  0.13962471  1.0
  S  S152  1  0.27548731  0.44520519  0.84818451  1.0
  S  S153  1  0.47448766  0.30452004  0.90180388  1.0
  S  S154  1  0.95033818  0.92545148  0.85311202  1.0
  S  S155  1  0.79929980  0.82390081  0.89694073  1.0
  Br  Br156  1  0.75703707  0.54670328  0.40204962  1.0
  Br  Br157  1  0.17045399  0.67074938  0.52555850  1.0
  Br  Br158  1  0.72471782  0.22431694  0.07935520  1.0
  Br  Br159  1  0.20341941  0.99287178  0.84786385  1.0
  O  O160  1  0.00055933  0.49831632  0.50058632  1.0
  O  O161  1  0.07706562  0.31569867  0.52277084  1.0
  O  O162  1  0.03096259  0.53083285  0.58751289  1.0
  O  O163  1  0.15655495  0.50528564  0.44923735  1.0
  O  O164  1  0.02631064  0.37398903  0.58134581  1.0
  O  O165  1  0.15292312  0.39163743  0.44650403  1.0
  O  O166  1  0.08255289  0.58343579  0.53082563  1.0
  O  O167  1  0.00512392  0.65611782  0.44935132  1.0
  O  O168  1  0.89120498  0.49505175  0.44308221  1.0
  O  O169  1  0.89061187  0.65399196  0.44711700  1.0
  O  O170  1  0.99759117  0.38398641  0.44085621  1.0
  O  O171  1  0.87462285  0.52597749  0.58136499  1.0
  O  O172  1  0.81582255  0.57836675  0.52303267  1.0
  O  O173  1  0.74972802  0.24980910  0.25078227  1.0
  O  O174  1  0.59645771  0.35833874  0.30349848  1.0
  O  O175  1  0.66264517  0.16263719  0.21917170  1.0
  O  O176  1  0.72513346  0.37632971  0.16909104  1.0
  O  O177  1  0.59289657  0.24507752  0.29960989  1.0
  O  O178  1  0.67267466  0.43444469  0.22757129  1.0
  O  O179  1  0.71931536  0.21928034  0.16705816  1.0
  O  O180  1  0.87636410  0.22497076  0.16946746  1.0
  O  O181  1  0.86350009  0.25374043  0.30856545  1.0
  O  O182  1  0.93469443  0.17276039  0.22792145  1.0
  O  O183  1  0.75394512  0.36290665  0.30824837  1.0
  O  O184  1  0.74566037  0.09312562  0.29970356  1.0
  O  O185  1  0.85888765  0.09670296  0.30374977  1.0
  O  O186  1  0.25073671  0.74858050  0.74987605  1.0
  O  O187  1  0.37581162  0.72418612  0.66869942  1.0
  O  O188  1  0.36594936  0.75240635  0.80913538  1.0
  O  O189  1  0.17203673  0.93353318  0.72711437  1.0
  O  O190  1  0.43387964  0.67332745  0.72734737  1.0
  O  O191  1  0.22429248  0.87532305  0.66864940  1.0
  O  O192  1  0.25479824  0.85867516  0.80697429  1.0
  O  O193  1  0.09599244  0.85792231  0.80301098  1.0
  O  O194  1  0.16383847  0.66406909  0.71890396  1.0
  O  O195  1  0.09274683  0.74436784  0.79969167  1.0
  O  O196  1  0.21883647  0.71888647  0.66440465  1.0
  O  O197  1  0.35820386  0.59695941  0.80365877  1.0
  O  O198  1  0.24525747  0.59265053  0.79976995  1.0
  O  O199  1  0.49997002  0.99995767  0.00007138  1.0
  O  O200  1  0.50455646  0.15682575  0.95020725  1.0
  O  O201  1  0.38722678  0.99604983  0.94170363  1.0
  O  O202  1  0.65278378  0.89219748  0.94639163  1.0
  O  O203  1  0.39129334  0.15314290  0.94644320  1.0
  O  O204  1  0.65692523  0.00519193  0.95015860  1.0
  O  O205  1  0.49645296  0.88660721  0.94150935  1.0
  O  O206  1  0.57679365  0.81610089  0.02252197  1.0
  O  O207  1  0.53108347  0.03113925  0.08603109  1.0
  O  O208  1  0.52638254  0.87449046  0.08103389  1.0
  O  O209  1  0.58550450  0.08556278  0.03108106  1.0
  O  O210  1  0.31547233  0.07750144  0.02234825  1.0
  O  O211  1  0.37417712  0.02666680  0.08077390  1.0
