# generated using pymatgen
data_Al4H23C25NO20
_symmetry_space_group_name_H-M   'P 1'
_cell_length_a   6.66699435
_cell_length_b   13.44305075
_cell_length_c   16.89641803
_cell_angle_alpha   90.20490006
_cell_angle_beta   91.42509360
_cell_angle_gamma   91.29155316
_symmetry_Int_Tables_number   1
_chemical_formula_structural   Al4H23C25NO20
_chemical_formula_sum   'Al4 H23 C25 N1 O20'
_cell_volume   1513.47116262
_cell_formula_units_Z   1
loop_
 _symmetry_equiv_pos_site_id
 _symmetry_equiv_pos_as_xyz
  1  'x, y, z'
loop_
 _atom_site_type_symbol
 _atom_site_label
 _atom_site_symmetry_multiplicity
 _atom_site_fract_x
 _atom_site_fract_y
 _atom_site_fract_z
 _atom_site_occupancy
  Al  Al0  1  0.89086970  0.49707412  0.50642834  1.0
  Al  Al1  1  0.38766825  0.49667542  0.50500449  1.0
  Al  Al2  1  0.37378968  0.99517288  0.00029642  1.0
  Al  Al3  1  0.87345389  0.99641692  0.00133544  1.0
  H  H4  1  0.41659848  0.82315820  0.81709471  1.0
  H  H5  1  0.95956343  0.80426410  0.79095169  1.0
  H  H6  1  0.00865194  0.69748180  0.70103344  1.0
  H  H7  1  0.82919475  0.69071840  0.30960653  1.0
  H  H8  1  0.29017433  0.69295988  0.30030507  1.0
  H  H9  1  0.82688238  0.79257580  0.18880296  1.0
  H  H10  1  0.28687541  0.80811511  0.20928835  1.0
  H  H11  1  0.92655170  0.19928222  0.82241481  1.0
  H  H12  1  0.46992496  0.18062286  0.79072259  1.0
  H  H13  1  0.94085871  0.30115845  0.70088547  1.0
  H  H14  1  0.47924683  0.30537806  0.70631479  1.0
  H  H15  1  0.93624174  0.18666239  0.20433366  1.0
  H  H16  1  0.47953609  0.21331684  0.18775152  1.0
  H  H17  1  0.93090508  0.30342428  0.31662542  1.0
  H  H18  1  0.46960896  0.28452958  0.30688562  1.0
  H  H19  1  0.58686585  0.80834120  0.71777782  1.0
  H  H20  1  0.62239600  0.68899861  0.58483118  1.0
  H  H21  1  0.67728227  0.81965474  0.59101208  1.0
  H  H22  1  0.43356056  0.77529830  0.55864567  1.0
  H  H23  1  0.64262575  0.60800188  0.45795765  1.0
  H  H24  1  0.13002765  0.37376847  0.47297159  1.0
  H  H25  1  0.62184860  0.87313908  0.03431601  1.0
  H  H26  1  0.13335487  0.12137065  0.02726977  1.0
  C  C27  1  0.64277383  0.38553255  0.61657232  1.0
  C  C28  1  0.62706255  0.37313795  0.39809118  1.0
  C  C29  1  0.13443539  0.61129787  0.39185962  1.0
  C  C30  1  0.15416629  0.62251879  0.60837106  1.0
  C  C31  1  0.27983195  0.79851809  0.78456712  1.0
  C  C32  1  0.10616824  0.82189058  0.81802360  1.0
  C  C33  1  0.30912895  0.74838352  0.70836157  1.0
  C  C34  1  0.15359553  0.69338518  0.67309833  1.0
  C  C35  1  0.97428782  0.71247626  0.28542053  1.0
  C  C36  1  0.14003854  0.67628963  0.32154916  1.0
  C  C37  1  0.97264069  0.77661536  0.21640834  1.0
  C  C38  1  0.13679519  0.81861338  0.18395438  1.0
  C  C39  1  0.78502413  0.21517965  0.79132478  1.0
  C  C40  1  0.61689021  0.17110604  0.81912317  1.0
  C  C41  1  0.79308209  0.28097026  0.72334828  1.0
  C  C42  1  0.63145702  0.32022795  0.68647462  1.0
  C  C43  1  0.79050210  0.21449605  0.22132776  1.0
  C  C44  1  0.62948615  0.18720239  0.17563873  1.0
  C  C45  1  0.78650141  0.27791482  0.29101312  1.0
  C  C46  1  0.61999714  0.30715692  0.32775362  1.0
  C  C47  1  0.63891522  0.11918263  0.10711595  1.0
  C  C48  1  0.61735796  0.10712065  0.88983701  1.0
  C  C49  1  0.10598993  0.87986011  0.89250964  1.0
  C  C50  1  0.13090435  0.88188983  0.11275778  1.0
  C  C51  1  0.56120656  0.76161149  0.59931896  1.0
  N  N52  1  0.49652685  0.76715855  0.68066882  1.0
  O  O53  1  0.45674148  0.40122374  0.42212401  1.0
  O  O54  1  0.81394427  0.41363155  0.59213262  1.0
  O  O55  1  0.98066749  0.59449922  0.58002664  1.0
  O  O56  1  0.79849987  0.39652845  0.42878607  1.0
  O  O57  1  0.96416209  0.58371534  0.41777947  1.0
  O  O58  1  0.47343104  0.40801339  0.58545025  1.0
  O  O59  1  0.64146038  0.55675765  0.49827386  1.0
  O  O60  1  0.30627179  0.58834820  0.42103203  1.0
  O  O61  1  0.32024245  0.58832745  0.58427431  1.0
  O  O62  1  0.13620143  0.43525561  0.50312479  1.0
  O  O63  1  0.78400453  0.09158553  0.92583974  1.0
  O  O64  1  0.46973460  0.09902772  0.07248549  1.0
  O  O65  1  0.30252492  0.91368005  0.09024245  1.0
  O  O66  1  0.44628293  0.07245425  0.91022220  1.0
  O  O67  1  0.27327309  0.89528322  0.92925755  1.0
  O  O68  1  0.80858114  0.08586115  0.08768695  1.0
  O  O69  1  0.62178352  0.93458031  0.00452110  1.0
  O  O70  1  0.93658209  0.91110698  0.91430202  1.0
  O  O71  1  0.96148211  0.89942095  0.07934550  1.0
  O  O72  1  0.12667663  0.05675587  0.00162570  1.0
