# generated using pymatgen
data_Zn3H12C35Br2(ClO3)4
_symmetry_space_group_name_H-M   'P 1'
_cell_length_a   18.55615692
_cell_length_b   18.56627103
_cell_length_c   18.75430759
_cell_angle_alpha   109.10568544
_cell_angle_beta   109.79826201
_cell_angle_gamma   108.98837221
_symmetry_Int_Tables_number   1
_chemical_formula_structural   Zn3H12C35Br2(ClO3)4
_chemical_formula_sum   'Zn6 H24 C70 Br4 Cl8 O24'
_cell_volume   5005.36690778
_cell_formula_units_Z   2
loop_
 _symmetry_equiv_pos_site_id
 _symmetry_equiv_pos_as_xyz
  1  'x, y, z'
loop_
 _atom_site_type_symbol
 _atom_site_label
 _atom_site_symmetry_multiplicity
 _atom_site_fract_x
 _atom_site_fract_y
 _atom_site_fract_z
 _atom_site_occupancy
  Zn  Zn0  1  0.99894067  0.92955095  0.43388751  1.0
  Zn  Zn1  1  0.99828724  0.05490087  0.55828201  1.0
  Zn  Zn2  1  0.42940034  0.49725975  0.44113933  1.0
  Zn  Zn3  1  0.55563460  0.49062367  0.56094396  1.0
  Zn  Zn4  1  0.56764546  0.07170150  0.00210987  1.0
  Zn  Zn5  1  0.45216135  0.94291096  0.00902982  1.0
  H  H6  1  0.30866635  0.40663758  0.62868171  1.0
  H  H7  1  0.20877915  0.68527886  0.65048921  1.0
  H  H8  1  0.33098469  0.83348945  0.76448921  1.0
  H  H9  1  0.38312221  0.12454024  0.83868724  1.0
  H  H10  1  0.76833548  0.81153663  0.34476050  1.0
  H  H11  1  0.53099234  0.56305819  0.19195821  1.0
  H  H12  1  0.53525914  0.56521974  0.32545371  1.0
  H  H13  1  0.77092425  0.00820704  0.35877255  1.0
  H  H14  1  0.30713557  0.25254385  0.62766864  1.0
  H  H15  1  0.94693307  0.95578925  0.23212525  1.0
  H  H16  1  0.96402233  0.96705733  0.11025050  1.0
  H  H17  1  0.76178392  0.03898054  0.04956396  1.0
  H  H18  1  0.66729436  0.03354376  0.25786545  1.0
  H  H19  1  0.53347638  0.71668100  0.58998524  1.0
  H  H20  1  0.53368041  0.84340410  0.57602029  1.0
  H  H21  1  0.50542588  0.93464521  0.80143372  1.0
  H  H22  1  0.48758794  0.71484081  0.88912300  1.0
  H  H23  1  0.34443086  0.26184780  0.33211566  1.0
  H  H24  1  0.19543452  0.14239594  0.21654037  1.0
  H  H25  1  0.61251376  0.24027874  0.23689755  1.0
  H  H26  1  0.14719085  0.26888151  0.37005836  1.0
  H  H27  1  0.12197364  0.30704514  0.51698158  1.0
  H  H28  1  0.25131426  0.10613081  0.72194030  1.0
  H  H29  1  0.06353834  0.66576857  0.55610571  1.0
  C  C30  1  0.11161075  0.96626439  0.59164664  1.0
  C  C31  1  0.18292677  0.26628717  0.42810305  1.0
  C  C32  1  0.16950584  0.28748117  0.50913420  1.0
  C  C33  1  0.16945770  0.20260973  0.50817824  1.0
  C  C34  1  0.11027090  0.80265033  0.60539952  1.0
  C  C35  1  0.12023592  0.73100695  0.60090007  1.0
  C  C36  1  0.20165624  0.74249309  0.65570992  1.0
  C  C37  1  0.27024523  0.82525458  0.71847080  1.0
  C  C38  1  0.26264425  0.90028049  0.72399530  1.0
  C  C39  1  0.18323058  0.88985199  0.66108080  1.0
  C  C40  1  0.18243240  0.96658140  0.66084468  1.0
  C  C41  1  0.11020840  0.13636563  0.51909466  1.0
  C  C42  1  0.25391833  0.04882477  0.72351844  1.0
  C  C43  1  0.32873441  0.05930684  0.78840056  1.0
  C  C44  1  0.33302497  0.98685955  0.78993408  1.0
  C  C45  1  0.71771056  0.75894087  0.34213850  1.0
  C  C46  1  0.64916600  0.68945669  0.26238623  1.0
  C  C47  1  0.58348319  0.61811646  0.25573973  1.0
  C  C48  1  0.58659810  0.61946449  0.33052302  1.0
  C  C49  1  0.65476176  0.69076319  0.41430690  1.0
  C  C50  1  0.72339708  0.76089006  0.42027480  1.0
  C  C51  1  0.79536186  0.83062295  0.50443570  1.0
  C  C52  1  0.89383867  0.97551646  0.35066133  1.0
  C  C53  1  0.79665639  0.83119188  0.57913047  1.0
  C  C54  1  0.72683288  0.76302113  0.57314746  1.0
  C  C55  1  0.65782739  0.69338017  0.49224650  1.0
  C  C56  1  0.90673341  0.97435878  0.19280531  1.0
  C  C57  1  0.91603758  0.98007127  0.12479562  1.0
  C  C58  1  0.86298157  0.00345824  0.07342148  1.0
  C  C59  1  0.80174496  0.02081821  0.08976223  1.0
  C  C60  1  0.79132468  0.01592188  0.15993780  1.0
  C  C61  1  0.84522751  0.99219605  0.21313173  1.0
  C  C62  1  0.83670488  0.99056838  0.28559257  1.0
  C  C63  1  0.87097179  0.89957090  0.50988137  1.0
  C  C64  1  0.77526949  0.00836163  0.30235175  1.0
  C  C65  1  0.71861599  0.02475651  0.24701577  1.0
  C  C66  1  0.72659194  0.03007521  0.17777048  1.0
  C  C67  1  0.51931851  0.60732663  0.64466704  1.0
  C  C68  1  0.35098814  0.38358237  0.48209076  1.0
  C  C69  1  0.50479054  0.37199791  0.40015158  1.0
  C  C70  1  0.58799933  0.61825938  0.48621151  1.0
  C  C71  1  0.47431200  0.09926816  0.10837168  1.0
  C  C72  1  0.40764008  0.00229783  0.86799104  1.0
  C  C73  1  0.49840672  0.86513342  0.90271406  1.0
  C  C74  1  0.27259609  0.25782264  0.57113026  1.0
  C  C75  1  0.65859392  0.04214031  0.12029309  1.0
  C  C76  1  0.52788673  0.76379475  0.63726794  1.0
  C  C77  1  0.52741389  0.83440290  0.62859748  1.0
  C  C78  1  0.51800782  0.89512884  0.68827256  1.0
  C  C79  1  0.51090877  0.88582652  0.75586434  1.0
  C  C80  1  0.51187169  0.81383440  0.76657913  1.0
  C  C81  1  0.51923524  0.75028082  0.70505184  1.0
  C  C82  1  0.51760739  0.67555414  0.71314307  1.0
  C  C83  1  0.50638194  0.66445479  0.77893707  1.0
  C  C84  1  0.49730783  0.72537209  0.83853379  1.0
  C  C85  1  0.27152981  0.34166015  0.57137935  1.0
  C  C86  1  0.50160236  0.79933963  0.83398033  1.0
  C  C87  1  0.33477265  0.21692204  0.27099615  1.0
  C  C88  1  0.25143474  0.15130846  0.20645535  1.0
  C  C89  1  0.23675595  0.09642117  0.12432148  1.0
  C  C90  1  0.30700956  0.10420913  0.10999520  1.0
  C  C91  1  0.39555245  0.16398218  0.18004940  1.0
  C  C92  1  0.40850094  0.22676267  0.25957083  1.0
  C  C93  1  0.49468205  0.29819824  0.32598475  1.0
  C  C94  1  0.56628281  0.30308824  0.31568809  1.0
  C  C95  1  0.55498155  0.23725563  0.24197560  1.0
  C  C96  1  0.28460619  0.32047438  0.48927087  1.0
  C  C97  1  0.47244999  0.16856769  0.17600701  1.0
  C  C98  1  0.28644625  0.23667470  0.49107018  1.0
  C  C99  1  0.18444162  0.18242262  0.42751309  1.0
  Br  Br100  1  0.89403321  0.91802041  0.69109568  1.0
  Br  Br101  1  0.49593060  0.56344523  0.78968262  1.0
  Br  Br102  1  0.36748186  0.19877736  0.47826675  1.0
  Br  Br103  1  0.28216871  0.04380683  0.99386069  1.0
  Cl  Cl104  1  0.64341093  0.68860682  0.16797845  1.0
  Cl  Cl105  1  0.72829247  0.76897327  0.66716064  1.0
  Cl  Cl106  1  0.87592944  0.00994888  0.98809783  1.0
  Cl  Cl107  1  0.51534262  0.98275865  0.67589524  1.0
  Cl  Cl108  1  0.67124236  0.39031242  0.38975032  1.0
  Cl  Cl109  1  0.12935422  0.02310309  0.04317656  1.0
  Cl  Cl110  1  0.13311779  0.08304145  0.33369969  1.0
  Cl  Cl111  1  0.00430693  0.78236278  0.54708554  1.0
  O  O112  1  0.09001236  0.91967240  0.51224363  1.0
  O  O113  1  0.57643518  0.58270981  0.66707741  1.0
  O  O114  1  0.32449033  0.40891502  0.42672359  1.0
  O  O115  1  0.43031161  0.40709658  0.53146517  1.0
  O  O116  1  0.46041416  0.40841074  0.37834827  1.0
  O  O117  1  0.55665615  0.39385250  0.47835844  1.0
  O  O118  1  0.50721505  0.59699673  0.43970406  1.0
  O  O119  1  0.61284364  0.57982387  0.52558364  1.0
  O  O120  1  0.52226177  0.12611576  0.07771731  1.0
  O  O121  1  0.43378940  0.02002722  0.09200482  1.0
  O  O122  1  0.48574228  0.06218912  0.89618244  1.0
  O  O123  1  0.08261438  0.01704515  0.61726642  1.0
  O  O124  1  0.38821201  0.95739709  0.90388449  1.0
  O  O125  1  0.54737015  0.94506762  0.92938863  1.0
  O  O126  1  0.44715337  0.83783902  0.93154754  1.0
  O  O127  1  0.67920169  0.09370454  0.08960419  1.0
  O  O128  1  0.58122154  0.99857691  0.10518617  1.0
  O  O129  1  0.09265239  0.05832088  0.47665459  1.0
  O  O130  1  0.08173812  0.16199432  0.57115345  1.0
  O  O131  1  0.91996856  0.91980183  0.32685332  1.0
  O  O132  1  0.91291635  0.01940207  0.42866376  1.0
  O  O133  1  0.90412080  0.87257823  0.46509886  1.0
  O  O134  1  0.89636968  0.98007861  0.55865082  1.0
  O  O135  1  0.46206144  0.57849098  0.56702375  1.0
