# generated using pymatgen
data_Zn4H12C18N6O13
_symmetry_space_group_name_H-M   'P 1'
_cell_length_a   15.91242073
_cell_length_b   16.86178303
_cell_length_c   19.03448852
_cell_angle_alpha   66.35317602
_cell_angle_beta   67.26472723
_cell_angle_gamma   62.79897914
_symmetry_Int_Tables_number   1
_chemical_formula_structural   Zn4H12C18N6O13
_chemical_formula_sum   'Zn8 H24 C36 N12 O26'
_cell_volume   4029.57089170
_cell_formula_units_Z   2
loop_
 _symmetry_equiv_pos_site_id
 _symmetry_equiv_pos_as_xyz
  1  'x, y, z'
loop_
 _atom_site_type_symbol
 _atom_site_label
 _atom_site_symmetry_multiplicity
 _atom_site_fract_x
 _atom_site_fract_y
 _atom_site_fract_z
 _atom_site_occupancy
  Zn  Zn0  1  0.04430160  0.02937476  0.07626379  1.0
  Zn  Zn1  1  0.83117033  0.02552547  0.11805204  1.0
  Zn  Zn2  1  0.01664188  0.84113156  0.09957704  1.0
  Zn  Zn3  1  0.98018100  0.01073614  0.94612937  1.0
  Zn  Zn4  1  0.40061900  0.43851292  0.51951837  1.0
  Zn  Zn5  1  0.60414673  0.40520379  0.53147439  1.0
  Zn  Zn6  1  0.41460190  0.44869690  0.67627749  1.0
  Zn  Zn7  1  0.43741806  0.61330306  0.51332913  1.0
  H  H8  1  0.87492906  0.24192874  0.20053497  1.0
  H  H9  1  0.88369025  0.14675387  0.28549798  1.0
  H  H10  1  0.66567993  0.23968676  0.19720041  1.0
  H  H11  1  0.50752254  0.33100642  0.30159430  1.0
  H  H12  1  0.30801941  0.83478588  0.16094205  1.0
  H  H13  1  0.33107525  0.74729359  0.11837553  1.0
  H  H14  1  0.16861907  0.66827491  0.23559147  1.0
  H  H15  1  0.19014056  0.57084142  0.38863380  1.0
  H  H16  1  0.03622864  0.30008589  0.90066618  1.0
  H  H17  1  0.96473248  0.29792750  0.84844798  1.0
  H  H18  1  0.10723505  0.17745499  0.74265789  1.0
  H  H19  1  0.26203763  0.22660557  0.62903328  1.0
  H  H20  1  0.74236448  0.84162621  0.34908566  1.0
  H  H21  1  0.86594920  0.78202527  0.35662264  1.0
  H  H22  1  0.94318812  0.62476628  0.28520896  1.0
  H  H23  1  0.85437672  0.49322184  0.35408784  1.0
  H  H24  1  0.61416968  0.15106707  0.97253531  1.0
  H  H25  1  0.65883972  0.03423961  0.97081277  1.0
  H  H26  1  0.82040824  0.02324868  0.82073057  1.0
  H  H27  1  0.78567966  0.14097065  0.67506116  1.0
  H  H28  1  0.02801600  0.74755660  0.89601964  1.0
  H  H29  1  0.13668054  0.68049443  0.92832792  1.0
  H  H30  1  0.10475054  0.91120421  0.76069881  1.0
  H  H31  1  0.23515707  0.85635358  0.62683914  1.0
  C  C32  1  0.87581508  0.12378170  0.18627206  1.0
  C  C33  1  0.84571062  0.18600447  0.23782553  1.0
  C  C34  1  0.66150205  0.25461993  0.24890220  1.0
  C  C35  1  0.58396557  0.29954530  0.30175307  1.0
  C  C36  1  0.62601919  0.29534593  0.35709681  1.0
  C  C37  1  0.57637728  0.33771724  0.42380495  1.0
  C  C38  1  0.18607762  0.84744429  0.12747177  1.0
  C  C39  1  0.27724857  0.78968432  0.15907317  1.0
  C  C40  1  0.20743997  0.67101756  0.26987151  1.0
  C  C41  1  0.21904554  0.62367481  0.34568558  1.0
  C  C42  1  0.27855897  0.65840039  0.35556569  1.0
  C  C43  1  0.31887534  0.62278675  0.42506167  1.0
  C  C44  1  0.03698436  0.16453785  0.91890952  1.0
  C  C45  1  0.03342703  0.26204912  0.86722307  1.0
  C  C46  1  0.14372509  0.22000308  0.73946204  1.0
  C  C47  1  0.22038374  0.24520486  0.68405965  1.0
  C  C48  1  0.23341754  0.30166900  0.71470436  1.0
  C  C49  1  0.30348291  0.35065864  0.67467193  1.0
  C  C50  1  0.85158745  0.84253064  0.23819268  1.0
  C  C51  1  0.81392625  0.79505013  0.32471086  1.0
  C  C52  1  0.87003007  0.62878263  0.32073846  1.0
  C  C53  1  0.82421555  0.56483181  0.35530659  1.0
  C  C54  1  0.72794495  0.61345358  0.39316869  1.0
  C  C55  1  0.64912556  0.57576799  0.44240116  1.0
  C  C56  1  0.76391155  0.07275802  0.97854974  1.0
  C  C57  1  0.67727397  0.09722758  0.94771319  1.0
  C  C58  1  0.76341614  0.08956196  0.80560305  1.0
  C  C59  1  0.74524230  0.14948171  0.73378869  1.0
  C  C60  1  0.66046896  0.22516763  0.75349321  1.0
  C  C61  1  0.60685246  0.30690157  0.69801126  1.0
  C  C62  1  0.06656629  0.81897578  0.94048730  1.0
  C  C63  1  0.09677356  0.74957524  0.89541879  1.0
  C  C64  1  0.15225991  0.84305115  0.75265813  1.0
  C  C65  1  0.21782384  0.81399846  0.68688044  1.0
  C  C66  1  0.25827827  0.71619650  0.71502550  1.0
  C  C67  1  0.32818520  0.64778334  0.66958000  1.0
  N  N68  1  0.74296502  0.22537710  0.27478099  1.0
  N  N69  1  0.72310877  0.25012297  0.34006783  1.0
  N  N70  1  0.25790825  0.73012335  0.23919785  1.0
  N  N71  1  0.30190222  0.72356333  0.29019488  1.0
  N  N72  1  0.11566038  0.26089904  0.79820977  1.0
  N  N73  1  0.16921294  0.31072757  0.78467195  1.0
  N  N74  1  0.80190666  0.70937185  0.33852498  1.0
  N  N75  1  0.71497869  0.70173808  0.38246812  1.0
  N  N76  1  0.69261393  0.13085990  0.86258192  1.0
  N  N77  1  0.62876020  0.21319201  0.83227185  1.0
  N  N78  1  0.15728306  0.76451205  0.81496197  1.0
  N  N79  1  0.22073726  0.68679287  0.79317080  1.0
  O  O80  1  0.96781570  0.97658209  0.05975038  1.0
  O  O81  1  0.81192520  0.12121702  0.16348974  1.0
  O  O82  1  0.96749495  0.08024640  0.16829713  1.0
  O  O83  1  0.62710208  0.32617725  0.46722384  1.0
  O  O84  1  0.48479311  0.38433734  0.43091724  1.0
  O  O85  1  0.13936978  0.80275180  0.12814461  1.0
  O  O86  1  0.16635795  0.93465876  0.10187564  1.0
  O  O87  1  0.37066864  0.66067795  0.42736780  1.0
  O  O88  1  0.29879680  0.55280650  0.47774166  1.0
  O  O89  1  0.02309031  0.11701327  0.88933741  1.0
  O  O90  1  0.05182820  0.14002864  0.98676372  1.0
  O  O91  1  0.31546864  0.39079514  0.71220221  1.0
  O  O92  1  0.34610668  0.34803798  0.60261042  1.0
  O  O93  1  0.92969203  0.79401230  0.19833312  1.0
  O  O94  1  0.80330535  0.92824504  0.21477780  1.0
  O  O95  1  0.56333662  0.63257611  0.46198787  1.0
  O  O96  1  0.67721977  0.48727576  0.46098789  1.0
  O  O97  1  0.84801826  0.05493964  0.93137092  1.0
  O  O98  1  0.74233576  0.06944836  0.05129087  1.0
  O  O99  1  0.52116101  0.35699413  0.72704388  1.0
  O  O100  1  0.65286292  0.31791333  0.62482252  1.0
  O  O101  1  0.04783430  0.78532137  0.01543938  1.0
  O  O102  1  0.05718048  0.90297655  0.90215048  1.0
  O  O103  1  0.35525698  0.68106850  0.59466032  1.0
  O  O104  1  0.35341259  0.56285926  0.70892308  1.0
  O  O105  1  0.46529698  0.47912574  0.56061755  1.0
