# generated using pymatgen
data_ZnH8C12(IN2)2
_symmetry_space_group_name_H-M   'P 1'
_cell_length_a   14.98045745
_cell_length_b   19.16858995
_cell_length_c   31.12244183
_cell_angle_alpha   102.30287811
_cell_angle_beta   89.98666224
_cell_angle_gamma   113.00752760
_symmetry_Int_Tables_number   1
_chemical_formula_structural   ZnH8C12(IN2)2
_chemical_formula_sum   'Zn12 H96 C144 I24 N48'
_cell_volume   8002.78283518
_cell_formula_units_Z   12
loop_
 _symmetry_equiv_pos_site_id
 _symmetry_equiv_pos_as_xyz
  1  'x, y, z'
loop_
 _atom_site_type_symbol
 _atom_site_label
 _atom_site_symmetry_multiplicity
 _atom_site_fract_x
 _atom_site_fract_y
 _atom_site_fract_z
 _atom_site_occupancy
  Zn  Zn0  1  0.79944310  0.84028656  0.90667077  1.0
  Zn  Zn1  1  0.47188806  0.64861163  0.72159547  1.0
  Zn  Zn2  1  0.52336361  0.24881871  0.55690285  1.0
  Zn  Zn3  1  0.04093547  0.84013328  0.40660840  1.0
  Zn  Zn4  1  0.17658601  0.64856268  0.22157849  1.0
  Zn  Zn5  1  0.72565626  0.24884534  0.05685679  1.0
  Zn  Zn6  1  0.95906607  0.15986644  0.59339128  1.0
  Zn  Zn7  1  0.82341373  0.35143878  0.77842109  1.0
  Zn  Zn8  1  0.27434356  0.75115496  0.94314521  1.0
  Zn  Zn9  1  0.20055539  0.15971374  0.09332898  1.0
  Zn  Zn10  1  0.52810955  0.35138692  0.27840469  1.0
  Zn  Zn11  1  0.47663734  0.75117984  0.44309668  1.0
  H  H12  1  0.83830644  0.77491964  0.97974661  1.0
  H  H13  1  0.98201448  0.79047092  0.02889029  1.0
  H  H14  1  0.15435897  0.99012157  0.97897542  1.0
  H  H15  1  0.00337778  0.96716940  0.93188856  1.0
  H  H16  1  0.97752566  0.82560849  0.87254915  1.0
  H  H17  1  0.02530738  0.74018906  0.81341790  1.0
  H  H18  1  0.71940105  0.59926481  0.77594601  1.0
  H  H19  1  0.68327041  0.68746832  0.83916744  1.0
  H  H20  1  0.87564046  0.39824050  0.62667395  1.0
  H  H21  1  0.73844117  0.29856687  0.57368055  1.0
  H  H22  1  0.53361771  0.35844912  0.64423096  1.0
  H  H23  1  0.66413277  0.46481649  0.69910939  1.0
  H  H24  1  0.17087918  0.70102394  0.76823309  1.0
  H  H25  1  0.34753362  0.72208214  0.76713897  1.0
  H  H26  1  0.28229953  0.51942750  0.67051395  1.0
  H  H27  1  0.10277893  0.49032493  0.66744534  1.0
  H  H28  1  0.07654143  0.63545915  0.13431050  1.0
  H  H29  1  0.09226612  0.71990626  0.08018408  1.0
  H  H30  1  0.34894875  0.89298972  0.16056934  1.0
  H  H31  1  0.31931463  0.80433298  0.21318705  1.0
  H  H32  1  0.37073572  0.06395103  0.00179964  1.0
  H  H33  1  0.50019835  0.99963630  0.10219564  1.0
  H  H34  1  0.53396961  0.17312486  0.00176147  1.0
  H  H35  1  0.65841628  0.11238394  0.09869597  1.0
  H  H36  1  0.93682245  0.77495271  0.47966415  1.0
  H  H37  1  0.80844650  0.79037194  0.52874977  1.0
  H  H38  1  0.83610759  0.99023894  0.47896789  1.0
  H  H39  1  0.96415089  0.96729670  0.43186353  1.0
  H  H40  1  0.84822581  0.82563681  0.37251735  1.0
  H  H41  1  0.71495520  0.74027221  0.31341537  1.0
  H  H42  1  0.87978706  0.59922993  0.27587234  1.0
  H  H43  1  0.00422556  0.68740561  0.33902260  1.0
  H  H44  1  0.52265529  0.39817560  0.12668508  1.0
  H  H45  1  0.56036700  0.29867637  0.07358731  1.0
  H  H46  1  0.82481769  0.35833323  0.14419938  1.0
  H  H47  1  0.80076577  0.46475882  0.19908287  1.0
  H  H48  1  0.53002725  0.70090188  0.26827015  1.0
  H  H49  1  0.37443628  0.72199504  0.26716194  1.0
  H  H50  1  0.23691254  0.51926274  0.17064703  1.0
  H  H51  1  0.38732791  0.49014571  0.16752659  1.0
  H  H52  1  0.55850624  0.63542846  0.63432326  1.0
  H  H53  1  0.62735816  0.71983953  0.58017916  1.0
  H  H54  1  0.54402650  0.89308592  0.66057822  1.0
  H  H55  1  0.48496239  0.80452869  0.71321552  1.0
  H  H56  1  0.69314181  0.06385052  0.50169450  1.0
  H  H57  1  0.49922408  0.99927735  0.60202885  1.0
  H  H58  1  0.63909156  0.17307568  0.50175075  1.0
  H  H59  1  0.45369077  0.11202013  0.59861511  1.0
  H  H60  1  0.06318184  0.22504584  0.52033730  1.0
  H  H61  1  0.19155921  0.20962544  0.47125185  1.0
  H  H62  1  0.16388932  0.00975553  0.52103206  1.0
  H  H63  1  0.03584640  0.03269719  0.56813538  1.0
  H  H64  1  0.15177526  0.17436466  0.62748385  1.0
  H  H65  1  0.28504475  0.25973100  0.68658605  1.0
  H  H66  1  0.12021230  0.40077212  0.72412829  1.0
  H  H67  1  0.99577322  0.31259527  0.66097755  1.0
  H  H68  1  0.47734549  0.60182528  0.87331571  1.0
  H  H69  1  0.43963311  0.70132451  0.92641348  1.0
  H  H70  1  0.17518272  0.64166823  0.85580149  1.0
  H  H71  1  0.19923463  0.53524264  0.80091800  1.0
  H  H72  1  0.46997191  0.29909842  0.73172992  1.0
  H  H73  1  0.62556250  0.27800584  0.73283821  1.0
  H  H74  1  0.76308766  0.48073698  0.82935297  1.0
  H  H75  1  0.61267191  0.50985459  0.83247381  1.0
  H  H76  1  0.44149567  0.36457067  0.36567698  1.0
  H  H77  1  0.37264384  0.28015843  0.41982093  1.0
  H  H78  1  0.45597233  0.10690972  0.33942124  1.0
  H  H79  1  0.51503548  0.19546636  0.28678450  1.0
  H  H80  1  0.30685856  0.93614687  0.49830487  1.0
  H  H81  1  0.50077704  0.00071887  0.39797036  1.0
  H  H82  1  0.36091015  0.82692171  0.49824862  1.0
  H  H83  1  0.54630968  0.88797609  0.40138507  1.0
  H  H84  1  0.16169576  0.22508008  0.02025146  1.0
  H  H85  1  0.01798944  0.20952822  0.97110674  1.0
  H  H86  1  0.84563897  0.00988164  0.02102375  1.0
  H  H87  1  0.99661937  0.03283090  0.06811087  1.0
  H  H88  1  0.02247291  0.17439065  0.12745077  1.0
  H  H89  1  0.97468986  0.25981008  0.18658170  1.0
  H  H90  1  0.28059648  0.40073491  0.22405431  1.0
  H  H91  1  0.31672933  0.31253315  0.16083279  1.0
  H  H92  1  0.12435898  0.60176039  0.37332588  1.0
  H  H93  1  0.26155865  0.70143343  0.42631888  1.0
  H  H94  1  0.46638123  0.64154943  0.35576824  1.0
  H  H95  1  0.33586476  0.53518323  0.30089029  1.0
  H  H96  1  0.82911968  0.29897578  0.23176723  1.0
  H  H97  1  0.65246679  0.27791932  0.23285933  1.0
  H  H98  1  0.71769829  0.48057280  0.32948581  1.0
  H  H99  1  0.89721764  0.50967420  0.33255619  1.0
  H  H100  1  0.92345927  0.36454290  0.86568916  1.0
  H  H101  1  0.90773391  0.28009579  0.91981622  1.0
  H  H102  1  0.65105307  0.10701058  0.83943042  1.0
  H  H103  1  0.68068624  0.19566674  0.78681231  1.0
  H  H104  1  0.62926640  0.93604985  0.99820083  1.0
  H  H105  1  0.49980280  0.00036400  0.89780443  1.0
  H  H106  1  0.46603213  0.82687661  0.99823940  1.0
  H  H107  1  0.34158487  0.88761635  0.90130410  1.0
  C  C108  1  0.91005417  0.82152619  0.98064393  1.0
  C  C109  1  0.98908253  0.83053230  0.00779823  1.0
  C  C110  1  0.07930937  0.89075107  0.00677634  1.0
  C  C111  1  0.08541216  0.94200594  0.97983314  1.0
  C  C112  1  0.00282458  0.92945592  0.95382811  1.0
  C  C113  1  0.92234419  0.77439709  0.85085235  1.0
  C  C114  1  0.94888242  0.72745160  0.81759886  1.0
  C  C115  1  0.87575556  0.66276150  0.79011352  1.0
  C  C116  1  0.77829884  0.64794137  0.79736773  1.0
  C  C117  1  0.75794594  0.69687781  0.83212982  1.0
  C  C118  1  0.90238161  0.61136512  0.75470245  1.0
  C  C119  1  0.01827212  0.57904010  0.71968607  1.0
  C  C120  1  0.85874200  0.50475703  0.69785665  1.0
  C  C121  1  0.78052931  0.44048598  0.66689179  1.0
  C  C122  1  0.80128630  0.39225319  0.63148507  1.0
  C  C123  1  0.72469267  0.33615176  0.60206411  1.0
  C  C124  1  0.61057779  0.36990634  0.64169046  1.0
  C  C125  1  0.68299933  0.42820420  0.67208925  1.0
  C  C126  1  0.12313770  0.59398268  0.71771775  1.0
  C  C127  1  0.19322292  0.66027292  0.74573272  1.0
  C  C128  1  0.29063260  0.67229230  0.74505878  1.0
  C  C129  1  0.25413404  0.55856203  0.69110299  1.0
  C  C130  1  0.15499691  0.54250648  0.68969181  1.0
  C  C131  1  0.13514048  0.69328161  0.13883639  1.0
  C  C132  1  0.14391814  0.73988934  0.10921791  1.0
  C  C133  1  0.22198324  0.81272559  0.11660836  1.0
  C  C134  1  0.28781769  0.83645035  0.15397198  1.0
  C  C135  1  0.27250376  0.78722223  0.18263924  1.0
  C  C136  1  0.23345062  0.86352327  0.08544512  1.0
  C  C137  1  0.16648978  0.89877895  0.03310333  1.0
  C  C138  1  0.32767959  0.96162991  0.05493834  1.0
  C  C139  1  0.42340647  0.02392990  0.05230624  1.0
  C  C140  1  0.43311645  0.07247042  0.02330152  1.0
  C  C141  1  0.50545373  0.03719822  0.07971859  1.0
  C  C142  1  0.52268341  0.13314125  0.02347677  1.0
  C  C143  1  0.59224095  0.09913877  0.07806868  1.0
  C  C144  1  0.91169500  0.82157738  0.48058630  1.0
  C  C145  1  0.84157710  0.83051596  0.50771245  1.0
  C  C146  1  0.81160514  0.89076069  0.50670588  1.0
  C  C147  1  0.85689885  0.94209627  0.47980834  1.0
  C  C148  1  0.92695485  0.92955966  0.45379881  1.0
  C  C149  1  0.85217194  0.77443322  0.35080092  1.0
  C  C150  1  0.77863341  0.72752036  0.31756504  1.0
  C  C151  1  0.78699663  0.66277267  0.29008876  1.0
  C  C152  1  0.86962646  0.64793635  0.29730314  1.0
  C  C153  1  0.93895153  0.69684169  0.33204166  1.0
  C  C154  1  0.70887384  0.61131551  0.25472532  1.0
  C  C155  1  0.56067996  0.57893341  0.21968215  1.0
  C  C156  1  0.64597867  0.50467844  0.19787100  1.0
  C  C157  1  0.66004296  0.44048766  0.16687494  1.0
  C  C158  1  0.59106940  0.39225690  0.13146321  1.0
  C  C159  1  0.61163029  0.33622075  0.10199307  1.0
  C  C160  1  0.75939652  0.36988976  0.14165455  1.0
  C  C161  1  0.74528382  0.42819262  0.17205980  1.0
  C  C162  1  0.47070036  0.59383064  0.21775472  1.0
  C  C163  1  0.46691397  0.66011680  0.24578871  1.0
  C  C164  1  0.38156218  0.67219086  0.24511291  1.0
  C  C165  1  0.30421671  0.55840650  0.19121075  1.0
  C  C166  1  0.38730188  0.54233536  0.18977801  1.0
  C  C167  1  0.55783460  0.69327869  0.63885965  1.0
  C  C168  1  0.59571582  0.73986032  0.60922132  1.0
  C  C169  1  0.59063446  0.81273901  0.61658699  1.0
  C  C170  1  0.54854552  0.83652362  0.65396261  1.0
  C  C171  1  0.51462765  0.78735618  0.68266558  1.0
  C  C172  1  0.63002839  0.86347159  0.58537247  1.0
  C  C173  1  0.73231433  0.89871314  0.53300267  1.0
  C  C174  1  0.63383232  0.96147028  0.55478486  1.0
  C  C175  1  0.60034121  0.02371893  0.55215771  1.0
  C  C176  1  0.63919271  0.07230261  0.52317536  1.0
  C  C177  1  0.53150005  0.03688880  0.57957321  1.0
  C  C178  1  0.61033665  0.13299738  0.52341919  1.0
  C  C179  1  0.50665010  0.09883659  0.57797162  1.0
  C  C180  1  0.08830974  0.17841942  0.51941492  1.0
  C  C181  1  0.15842527  0.16948142  0.49228885  1.0
  C  C182  1  0.18839665  0.10923553  0.49329526  1.0
  C  C183  1  0.14310264  0.05789937  0.52019272  1.0
  C  C184  1  0.07304560  0.07043656  0.54620201  1.0
  C  C185  1  0.14782779  0.22556824  0.64919994  1.0
  C  C186  1  0.22136595  0.27248169  0.68243590  1.0
  C  C187  1  0.21300207  0.33722938  0.70991123  1.0
  C  C188  1  0.13037261  0.35206511  0.70269741  1.0
  C  C189  1  0.06104821  0.30315978  0.66795889  1.0
  C  C190  1  0.29112619  0.38868654  0.74527498  1.0
  C  C191  1  0.43931853  0.42106689  0.78031792  1.0
  C  C192  1  0.35402144  0.49532244  0.80212915  1.0
  C  C193  1  0.33995715  0.55951322  0.83312521  1.0
  C  C194  1  0.40893100  0.60774456  0.86853798  1.0
  C  C195  1  0.38836953  0.66377955  0.89800765  1.0
  C  C196  1  0.24060388  0.63011170  0.85834600  1.0
  C  C197  1  0.25471725  0.57180885  0.82794107  1.0
  C  C198  1  0.52929879  0.40616966  0.78224631  1.0
  C  C199  1  0.53308413  0.33988407  0.75421241  1.0
  C  C200  1  0.61843660  0.32781002  0.75488756  1.0
  C  C201  1  0.69578274  0.44159438  0.80878940  1.0
  C  C202  1  0.61269698  0.45766435  0.81022295  1.0
  C  C203  1  0.44216681  0.30671812  0.36114028  1.0
  C  C204  1  0.40428609  0.26013882  0.39077860  1.0
  C  C205  1  0.40936533  0.18725721  0.38341287  1.0
  C  C206  1  0.45145435  0.16347143  0.34603774  1.0
  C  C207  1  0.48537347  0.21264004  0.31733428  1.0
  C  C208  1  0.36997273  0.13652464  0.41462674  1.0
  C  C209  1  0.26768687  0.10128191  0.46699704  1.0
  C  C210  1  0.36616755  0.03852478  0.44521355  1.0
  C  C211  1  0.39965695  0.97627671  0.44784047  1.0
  C  C212  1  0.36080487  0.92769187  0.47682266  1.0
  C  C213  1  0.46849878  0.96310684  0.42042625  1.0
  C  C214  1  0.38966238  0.86700001  0.47657986  1.0
  C  C215  1  0.49335131  0.90116022  0.42202799  1.0
  C  C216  1  0.08994737  0.17847353  0.01935446  1.0
  C  C217  1  0.01092092  0.16946859  0.99219967  1.0
  C  C218  1  0.92069104  0.10925040  0.99322324  1.0
  C  C219  1  0.91458904  0.05799843  0.02016715  1.0
  C  C220  1  0.99717449  0.07054554  0.04617115  1.0
  C  C221  1  0.07765430  0.22560321  0.14914772  1.0
  C  C222  1  0.05111511  0.27254812  0.18240113  1.0
  C  C223  1  0.12424263  0.33723822  0.20988648  1.0
  C  C224  1  0.22169869  0.35205835  0.20263162  1.0
  C  C225  1  0.24205151  0.30312307  0.16786968  1.0
  C  C226  1  0.09761562  0.38863401  0.24529747  1.0
  C  C227  1  0.98172666  0.42096078  0.28031408  1.0
  C  C228  1  0.14125715  0.49524327  0.30214310  1.0
  C  C229  1  0.21946947  0.55951490  0.33310772  1.0
  C  C230  1  0.19871285  0.60774711  0.36851436  1.0
  C  C231  1  0.27530648  0.66384854  0.39793564  1.0
  C  C232  1  0.38942012  0.63009279  0.35830914  1.0
  C  C233  1  0.31699915  0.57179610  0.32791018  1.0
  C  C234  1  0.87686175  0.40601820  0.28228240  1.0
  C  C235  1  0.80677728  0.33972680  0.25426631  1.0
  C  C236  1  0.70936522  0.32770800  0.25493968  1.0
  C  C237  1  0.74586245  0.44143827  0.30889612  1.0
  C  C238  1  0.84500216  0.45749499  0.31030810  1.0
  C  C239  1  0.86486059  0.30671985  0.86116351  1.0
  C  C240  1  0.85608218  0.26011329  0.89078215  1.0
  C  C241  1  0.77801679  0.18727646  0.88339163  1.0
  C  C242  1  0.71218272  0.16355111  0.84602792  1.0
  C  C243  1  0.72749836  0.21277865  0.81735994  1.0
  C  C244  1  0.76654970  0.13647936  0.91455462  1.0
  C  C245  1  0.83351083  0.10122427  0.96689616  1.0
  C  C246  1  0.67232111  0.03837213  0.94506164  1.0
  C  C247  1  0.57659527  0.97607156  0.94769334  1.0
  C  C248  1  0.56688566  0.92753046  0.97669863  1.0
  C  C249  1  0.49454743  0.96280208  0.92028148  1.0
  C  C250  1  0.47731899  0.86686021  0.97652378  1.0
  C  C251  1  0.40776087  0.90086152  0.92193204  1.0
  I  I252  1  0.83145560  0.95349736  0.87030793  1.0
  I  I253  1  0.65039320  0.76412685  0.94284705  1.0
  I  I254  1  0.54463951  0.74327539  0.79619061  1.0
  I  I255  1  0.49459599  0.52250724  0.69055037  1.0
  I  I256  1  0.36233611  0.22735726  0.59116108  1.0
  I  I257  1  0.57503081  0.29877577  0.48751602  1.0
  I  I258  1  0.12228790  0.95334340  0.37027612  1.0
  I  I259  1  0.11355692  0.76398541  0.44289146  1.0
  I  I260  1  0.19859116  0.74332086  0.29616932  1.0
  I  I261  1  0.02782791  0.52241299  0.19053475  1.0
  I  I262  1  0.86490488  0.22736046  0.09138113  1.0
  I  I263  1  0.72382350  0.29843654  0.98736018  1.0
  I  I264  1  0.87771163  0.04665632  0.62972420  1.0
  I  I265  1  0.88644403  0.23601314  0.55710838  1.0
  I  I266  1  0.80140857  0.25668994  0.70382571  1.0
  I  I267  1  0.97217162  0.47758673  0.80946493  1.0
  I  I268  1  0.13509665  0.77263926  0.90861919  1.0
  I  I269  1  0.27618190  0.70156958  0.01264259  1.0
  I  I270  1  0.16854355  0.04650293  0.12969215  1.0
  I  I271  1  0.34960671  0.23587228  0.05715351  1.0
  I  I272  1  0.45535936  0.25672433  0.20380907  1.0
  I  I273  1  0.50540066  0.47749072  0.30945325  1.0
  I  I274  1  0.63766404  0.77264770  0.40883896  1.0
  I  I275  1  0.42497189  0.70122628  0.51248428  1.0
  N  N276  1  0.91700772  0.86939451  0.95357690  1.0
  N  N277  1  0.82887708  0.75920284  0.85840916  1.0
  N  N278  1  0.99746129  0.63039287  0.74995944  1.0
  N  N279  1  0.95202431  0.51616785  0.69198162  1.0
  N  N280  1  0.83040325  0.54875944  0.72988186  1.0
  N  N281  1  0.32099158  0.62241002  0.71827841  1.0
  N  N282  1  0.63117832  0.32516279  0.60691647  1.0
  N  N283  1  0.19807822  0.71660615  0.17506554  1.0
  N  N284  1  0.15337266  0.85098379  0.06048785  1.0
  N  N285  1  0.25268794  0.95296665  0.02777436  1.0
  N  N286  1  0.32190840  0.91939665  0.08494659  1.0
  N  N287  1  0.60040042  0.14690221  0.05074837  1.0
  N  N288  1  0.95265920  0.86947441  0.45353787  1.0
  N  N289  1  0.93039558  0.75917301  0.35834201  1.0
  N  N290  1  0.63282809  0.63031959  0.24995309  1.0
  N  N291  1  0.56410647  0.51608063  0.19197312  1.0
  N  N292  1  0.71824107  0.54867435  0.22992507  1.0
  N  N293  1  0.30128463  0.62232116  0.21834648  1.0
  N  N294  1  0.69413488  0.32522299  0.10684825  1.0
  N  N295  1  0.51834182  0.71670922  0.67511107  1.0
  N  N296  1  0.69761903  0.85095123  0.56041687  1.0
  N  N297  1  0.70023194  0.95284518  0.52764083  1.0
  N  N298  1  0.59739501  0.91929277  0.58482691  1.0
  N  N299  1  0.54635779  0.14671309  0.55070816  1.0
  N  N300  1  0.04734183  0.13052297  0.54646278  1.0
  N  N301  1  0.06960444  0.24082904  0.64165862  1.0
  N  N302  1  0.36717136  0.36968129  0.75004674  1.0
  N  N303  1  0.43589364  0.48392025  0.80802703  1.0
  N  N304  1  0.28175963  0.45132770  0.77007523  1.0
  N  N305  1  0.69871453  0.37767914  0.78165327  1.0
  N  N306  1  0.30586524  0.67477789  0.89315318  1.0
  N  N307  1  0.48165884  0.28328875  0.32488934  1.0
  N  N308  1  0.30238000  0.14904616  0.43958378  1.0
  N  N309  1  0.29976672  0.04715279  0.47235894  1.0
  N  N310  1  0.40260431  0.08070520  0.41517221  1.0
  N  N311  1  0.45364287  0.85328488  0.44929193  1.0
  N  N312  1  0.08299298  0.13060754  0.04642244  1.0
  N  N313  1  0.17112236  0.24079804  0.14159067  1.0
  N  N314  1  0.00253690  0.36960684  0.25004088  1.0
  N  N315  1  0.04797551  0.48383245  0.30801878  1.0
  N  N316  1  0.16959561  0.45124028  0.27011814  1.0
  N  N317  1  0.67900729  0.37758970  0.28172062  1.0
  N  N318  1  0.36882159  0.67483634  0.39308312  1.0
  N  N319  1  0.80192418  0.28339531  0.82493372  1.0
  N  N320  1  0.84662766  0.14901884  0.93951189  1.0
  N  N321  1  0.74731305  0.04703598  0.97222538  1.0
  N  N322  1  0.67809229  0.08060540  0.91505275  1.0
  N  N323  1  0.39960036  0.85309867  0.94925242  1.0
