# generated using pymatgen
data_CoH10C17NO4
_symmetry_space_group_name_H-M   'P 1'
_cell_length_a   13.13663463
_cell_length_b   13.19613135
_cell_length_c   13.61679861
_cell_angle_alpha   84.91130967
_cell_angle_beta   70.14869487
_cell_angle_gamma   83.15340951
_symmetry_Int_Tables_number   1
_chemical_formula_structural   CoH10C17NO4
_chemical_formula_sum   'Co4 H40 C68 N4 O16'
_cell_volume   2201.46833265
_cell_formula_units_Z   4
loop_
 _symmetry_equiv_pos_site_id
 _symmetry_equiv_pos_as_xyz
  1  'x, y, z'
loop_
 _atom_site_type_symbol
 _atom_site_label
 _atom_site_symmetry_multiplicity
 _atom_site_fract_x
 _atom_site_fract_y
 _atom_site_fract_z
 _atom_site_occupancy
  Co  Co0  1  0.18576507  0.81723143  0.18704002  1.0
  Co  Co1  1  0.13571719  0.82277281  0.36573134  1.0
  Co  Co2  1  0.81422656  0.18276969  0.81296849  1.0
  Co  Co3  1  0.86426855  0.17722895  0.63430546  1.0
  H  H4  1  0.87738349  0.80328345  0.15396872  1.0
  H  H5  1  0.74375777  0.78485479  0.06674817  1.0
  H  H6  1  0.55071401  0.78377032  0.07449850  1.0
  H  H7  1  0.43993827  0.83540719  0.40292808  1.0
  H  H8  1  0.57523045  0.85587179  0.49173054  1.0
  H  H9  1  0.76757304  0.85805768  0.48192068  1.0
  H  H10  1  0.11636439  0.14980938  0.41460738  1.0
  H  H11  1  0.09341416  0.31585010  0.49367513  1.0
  H  H12  1  0.10397283  0.50460038  0.47204307  1.0
  H  H13  1  0.20094228  0.49168061  0.13820613  1.0
  H  H14  1  0.22429993  0.32410653  0.05858074  1.0
  H  H15  1  0.21683292  0.13427080  0.08079268  1.0
  H  H16  1  0.11213942  0.96636615  0.03676318  1.0
  H  H17  1  0.08482041  0.97073832  0.86486665  1.0
  H  H18  1  0.24869896  0.66421108  0.82820931  1.0
  H  H19  1  0.26361492  0.67282828  0.00418137  1.0
  H  H20  1  0.10084038  0.97827275  0.71433872  1.0
  H  H21  1  0.08448585  0.97362087  0.53974551  1.0
  H  H22  1  0.17876939  0.66338253  0.52613366  1.0
  H  H23  1  0.19760661  0.65306966  0.70215451  1.0
  H  H24  1  0.12261755  0.19671310  0.84602832  1.0
  H  H25  1  0.25623819  0.21514407  0.93324884  1.0
  H  H26  1  0.44928009  0.21623082  0.92550187  1.0
  H  H27  1  0.56006126  0.16459622  0.59707330  1.0
  H  H28  1  0.42477094  0.14412934  0.50826675  1.0
  H  H29  1  0.23242990  0.14194420  0.51807605  1.0
  H  H30  1  0.88363230  0.85019023  0.58539229  1.0
  H  H31  1  0.90658643  0.68415102  0.50632315  1.0
  H  H32  1  0.89602840  0.49540227  0.52795635  1.0
  H  H33  1  0.79906161  0.50831973  0.86179189  1.0
  H  H34  1  0.77570572  0.67589228  0.94141756  1.0
  H  H35  1  0.78316538  0.86572880  0.91920720  1.0
  H  H36  1  0.88786136  0.03363267  0.96323816  1.0
  H  H37  1  0.91518186  0.02926204  0.13513042  1.0
  H  H38  1  0.75130532  0.33578546  0.17178595  1.0
  H  H39  1  0.73638684  0.32716901  0.99581758  1.0
  H  H40  1  0.89915978  0.02172457  0.28565780  1.0
  H  H41  1  0.91551167  0.02637876  0.46024948  1.0
  H  H42  1  0.82123704  0.33661708  0.47385699  1.0
  H  H43  1  0.80240540  0.34693068  0.29783575  1.0
  C  C44  1  0.94961093  0.83213299  0.30755033  1.0
  C  C45  1  0.83353442  0.83069529  0.31617962  1.0
  C  C46  1  0.81028305  0.81469505  0.22711893  1.0
  C  C47  1  0.70209749  0.81241142  0.23025060  1.0
  C  C48  1  0.67664033  0.79618218  0.13980637  1.0
  C  C49  1  0.57065242  0.79502437  0.14398231  1.0
  C  C50  1  0.48490406  0.80888700  0.24048289  1.0
  C  C51  1  0.50749511  0.82473839  0.33000120  1.0
  C  C52  1  0.61548869  0.82748028  0.32763690  1.0
  C  C53  1  0.64144694  0.84409675  0.41790162  1.0
  C  C54  1  0.74782157  0.84538765  0.41272664  1.0
  C  C55  1  0.36914550  0.80759068  0.24775422  1.0
  C  C56  1  0.16108176  0.01916906  0.26002857  1.0
  C  C57  1  0.16575411  0.13163111  0.24919740  1.0
  C  C58  1  0.14046703  0.18793969  0.33697032  1.0
  C  C59  1  0.14416899  0.29507571  0.32734879  1.0
  C  C60  1  0.11851658  0.35449625  0.41622726  1.0
  C  C61  1  0.12383843  0.45854309  0.40435153  1.0
  C  C62  1  0.15394406  0.50851938  0.30316058  1.0
  C  C63  1  0.17843173  0.45231702  0.21537894  1.0
  C  C64  1  0.17464413  0.34525535  0.22487813  1.0
  C  C65  1  0.20040061  0.28544215  0.13622327  1.0
  C  C66  1  0.19619385  0.18130228  0.14792193  1.0
  C  C67  1  0.15845833  0.62110150  0.29184851  1.0
  C  C68  1  0.14010427  0.90092953  0.98759665  1.0
  C  C69  1  0.12571670  0.90241748  0.89106680  1.0
  C  C70  1  0.16386962  0.81676950  0.82948885  1.0
  C  C71  1  0.21534247  0.73299481  0.87135679  1.0
  C  C72  1  0.22557624  0.73735697  0.96920267  1.0
  C  C73  1  0.15151712  0.81599141  0.72557375  1.0
  C  C74  1  0.11862781  0.90590401  0.67687115  1.0
  C  C75  1  0.10938809  0.90412735  0.57846542  1.0
  C  C76  1  0.16207664  0.73102929  0.57167642  1.0
  C  C77  1  0.17290013  0.72663810  0.66998650  1.0
  C  C78  1  0.05039958  0.16786580  0.69244715  1.0
  C  C79  1  0.16647373  0.16930274  0.68381941  1.0
  C  C80  1  0.18971951  0.18530224  0.77288123  1.0
  C  C81  1  0.29790412  0.18758741  0.76974827  1.0
  C  C82  1  0.32335643  0.20381667  0.86019260  1.0
  C  C83  1  0.42933998  0.20497753  0.85602149  1.0
  C  C84  1  0.51508510  0.19111491  0.75952122  1.0
  C  C85  1  0.49250383  0.17526273  0.67000055  1.0
  C  C86  1  0.38451278  0.17252008  0.67236116  1.0
  C  C87  1  0.35855526  0.15590437  0.58209541  1.0
  C  C88  1  0.25218078  0.15461194  0.58727120  1.0
  C  C89  1  0.63083997  0.19241583  0.75225144  1.0
  C  C90  1  0.83891250  0.98082215  0.73997329  1.0
  C  C91  1  0.83424323  0.86836161  0.75080481  1.0
  C  C92  1  0.85953053  0.81205915  0.66302985  1.0
  C  C93  1  0.85583255  0.70492388  0.67264931  1.0
  C  C94  1  0.88148401  0.64550488  0.58377029  1.0
  C  C95  1  0.87616221  0.54145726  0.59564826  1.0
  C  C96  1  0.84605576  0.49148938  0.69683954  1.0
  C  C97  1  0.82157081  0.54768867  0.78462202  1.0
  C  C98  1  0.82535792  0.65474730  0.77511956  1.0
  C  C99  1  0.79960374  0.71455361  0.86377423  1.0
  C  C100  1  0.80380488  0.81869272  0.85208112  1.0
  C  C101  1  0.84154135  0.37890879  0.70815080  1.0
  C  C102  1  0.85989917  0.09906699  0.01240475  1.0
  C  C103  1  0.87428644  0.09758208  0.10893520  1.0
  C  C104  1  0.83613516  0.18323008  0.17050895  1.0
  C  C105  1  0.78466156  0.26700400  0.12864204  1.0
  C  C106  1  0.77442351  0.26264414  0.03079956  1.0
  C  C107  1  0.84848546  0.18400590  0.27442199  1.0
  C  C108  1  0.88137391  0.09409409  0.32312114  1.0
  C  C109  1  0.89061120  0.09587075  0.42152838  1.0
  C  C110  1  0.83792743  0.26896956  0.42831578  1.0
  C  C111  1  0.82710726  0.27335998  0.33000323  1.0
  N  N112  1  0.18885103  0.81990306  0.02693841  1.0
  N  N113  1  0.13064168  0.81814638  0.52615600  1.0
  N  N114  1  0.81114993  0.18009342  0.97307115  1.0
  N  N115  1  0.86935768  0.18185095  0.47383931  1.0
  O  O116  1  0.01990996  0.83050976  0.21597198  1.0
  O  O117  1  0.97317519  0.83548069  0.39103246  1.0
  O  O118  1  0.29835734  0.80962865  0.33911061  1.0
  O  O119  1  0.34615344  0.80554712  0.16393396  1.0
  O  O120  1  0.18227134  0.97077227  0.17692678  1.0
  O  O121  1  0.13595501  0.97524037  0.35158579  1.0
  O  O122  1  0.13450550  0.66994353  0.37507541  1.0
  O  O123  1  0.18527281  0.66469171  0.20015637  1.0
  O  O124  1  0.98010575  0.16948517  0.78402854  1.0
  O  O125  1  0.02683662  0.16452113  0.60896803  1.0
  O  O126  1  0.70162768  0.19038244  0.66089556  1.0
  O  O127  1  0.65382378  0.19445252  0.83607784  1.0
  O  O128  1  0.81772513  0.02921280  0.82307706  1.0
  O  O129  1  0.86403654  0.02474550  0.64841590  1.0
  O  O130  1  0.86549387  0.33006981  0.62492522  1.0
  O  O131  1  0.81472699  0.33532544  0.79984528  1.0
