# generated using pymatgen
data_ZnH19C26I(NO3)2
_symmetry_space_group_name_H-M   'P 1'
_cell_length_a   12.53716533
_cell_length_b   13.93844213
_cell_length_c   23.65227659
_cell_angle_alpha   89.98512401
_cell_angle_beta   86.68606081
_cell_angle_gamma   85.83340047
_symmetry_Int_Tables_number   1
_chemical_formula_structural   ZnH19C26I(NO3)2
_chemical_formula_sum   'Zn2 H38 C52 I2 N4 O12'
_cell_volume   4115.35150587
_cell_formula_units_Z   2
loop_
 _symmetry_equiv_pos_site_id
 _symmetry_equiv_pos_as_xyz
  1  'x, y, z'
loop_
 _atom_site_type_symbol
 _atom_site_label
 _atom_site_symmetry_multiplicity
 _atom_site_fract_x
 _atom_site_fract_y
 _atom_site_fract_z
 _atom_site_occupancy
  Zn  Zn0  1  0.60996135  0.50613594  0.49660016  1.0
  Zn  Zn1  1  0.39003810  0.49384220  0.50340545  1.0
  H  H2  1  0.62234443  0.97549273  0.49594415  1.0
  H  H3  1  0.37766616  0.02448681  0.50405353  1.0
  H  H4  1  0.85234747  0.38946748  0.96030689  1.0
  H  H5  1  0.78143895  0.38024281  0.89689006  1.0
  H  H6  1  0.84026380  0.48696662  0.91226882  1.0
  H  H7  1  0.14768864  0.61047316  0.03968037  1.0
  H  H8  1  0.15974100  0.51301368  0.08774720  1.0
  H  H9  1  0.21860351  0.61974958  0.10309149  1.0
  H  H10  1  0.44900092  0.72449823  0.78580406  1.0
  H  H11  1  0.51327717  0.66075265  0.84073044  1.0
  H  H12  1  0.59019212  0.70544520  0.78263674  1.0
  H  H13  1  0.40981266  0.29448405  0.21738482  1.0
  H  H14  1  0.48670736  0.33920249  0.15927180  1.0
  H  H15  1  0.55100997  0.27548636  0.21420586  1.0
  H  H16  1  0.51822788  0.66764150  0.62614675  1.0
  H  H17  1  0.44923329  0.72753948  0.68522275  1.0
  H  H18  1  0.59041919  0.71028582  0.68196094  1.0
  H  H19  1  0.48173453  0.33234030  0.37386033  1.0
  H  H20  1  0.40954546  0.28969813  0.31804523  1.0
  H  H21  1  0.55074122  0.27244086  0.31478441  1.0
  H  H22  1  0.48604048  0.32716820  0.62263538  1.0
  H  H23  1  0.55432089  0.26274693  0.67614713  1.0
  H  H24  1  0.41319760  0.28066635  0.68149406  1.0
  H  H25  1  0.51392295  0.67283298  0.37735390  1.0
  H  H26  1  0.58679851  0.71931465  0.31850234  1.0
  H  H27  1  0.44565841  0.73724558  0.32383917  1.0
  H  H28  1  0.55316721  0.25829851  0.77685659  1.0
  H  H29  1  0.48859396  0.31841398  0.83696958  1.0
  H  H30  1  0.41209007  0.27792387  0.78218881  1.0
  H  H31  1  0.51145908  0.68152589  0.16300620  1.0
  H  H32  1  0.44681745  0.74167814  0.22311646  1.0
  H  H33  1  0.58795083  0.72202541  0.21781268  1.0
  H  H34  1  0.03317949  0.37309598  0.58925093  1.0
  H  H35  1  0.91294497  0.44962661  0.58868373  1.0
  H  H36  1  0.93326532  0.35064063  0.54134279  1.0
  H  H37  1  0.96680678  0.62688650  0.41076181  1.0
  H  H38  1  0.06673952  0.64935044  0.45866054  1.0
  H  H39  1  0.08705205  0.55036232  0.41132067  1.0
  C  C40  1  0.54476707  0.31273129  0.49766068  1.0
  C  C41  1  0.45524449  0.68724609  0.50233739  1.0
  C  C42  1  0.50871517  0.57996803  0.76240681  1.0
  C  C43  1  0.49126969  0.41999215  0.23760260  1.0
  C  C44  1  0.50965354  0.58196869  0.70287785  1.0
  C  C45  1  0.49032265  0.41801021  0.29713264  1.0
  C  C46  1  0.50251807  0.49554408  0.67333805  1.0
  C  C47  1  0.49746785  0.50444414  0.32666286  1.0
  C  C48  1  0.49458203  0.40703555  0.70100558  1.0
  C  C49  1  0.50540503  0.59293899  0.29898812  1.0
  C  C50  1  0.49465442  0.40456846  0.76049980  1.0
  C  C51  1  0.50532815  0.59540178  0.23949826  1.0
  C  C52  1  0.50161623  0.49115783  0.78955567  1.0
  C  C53  1  0.49839786  0.50879655  0.21045292  1.0
  C  C54  1  0.44585509  0.79117730  0.50266212  1.0
  C  C55  1  0.55414238  0.20878573  0.49734144  1.0
  C  C56  1  0.45251668  0.97880523  0.50170288  1.0
  C  C57  1  0.54750322  0.02116923  0.49828017  1.0
  C  C58  1  0.55255184  0.12133401  0.49776445  1.0
  C  C59  1  0.44746952  0.87864049  0.50223589  1.0
  C  C60  1  0.97385080  0.52998460  0.48165353  1.0
  C  C61  1  0.02615356  0.47000216  0.51835363  1.0
  C  C62  1  0.50310064  0.49782062  0.60974241  1.0
  C  C63  1  0.49688707  0.50216543  0.39025549  1.0
  C  C64  1  0.13934618  0.46814322  0.51417307  1.0
  C  C65  1  0.86066894  0.53183849  0.48583589  1.0
  C  C66  1  0.39937530  0.51864149  0.12523346  1.0
  C  C67  1  0.60064247  0.48132726  0.87477206  1.0
  C  C68  1  0.59923120  0.49976846  0.11978235  1.0
  C  C69  1  0.40077705  0.50008881  0.88021463  1.0
  C  C70  1  0.59980658  0.49470796  0.05689745  1.0
  C  C71  1  0.40021376  0.50512842  0.94309244  1.0
  C  C72  1  0.50006361  0.50240664  0.03016162  1.0
  C  C73  1  0.49998083  0.49738726  0.96983057  1.0
  C  C74  1  0.40072078  0.52048878  0.06236267  1.0
  C  C75  1  0.59931919  0.47939146  0.93763720  1.0
  C  C76  1  0.69567728  0.47980082  0.02364584  1.0
  C  C77  1  0.30434263  0.52004131  0.97634194  1.0
  C  C78  1  0.69660011  0.46338835  0.96406119  1.0
  C  C79  1  0.30342140  0.53647321  0.03593373  1.0
  C  C80  1  0.79822867  0.42752792  0.93167007  1.0
  C  C81  1  0.20180236  0.57242498  0.06833127  1.0
  C  C82  1  0.51552355  0.67186743  0.79485306  1.0
  C  C83  1  0.48446514  0.32809491  0.20515582  1.0
  C  C84  1  0.51709064  0.67617860  0.67221419  1.0
  C  C85  1  0.48287949  0.32380678  0.32779140  1.0
  C  C86  1  0.48684402  0.31523375  0.66837722  1.0
  C  C87  1  0.51313629  0.68475589  0.33161074  1.0
  C  C88  1  0.48684623  0.31043292  0.79098750  1.0
  C  C89  1  0.51316670  0.68953868  0.20899617  1.0
  C  C90  1  0.97385661  0.40730570  0.56204265  1.0
  C  C91  1  0.02614513  0.59268394  0.43796331  1.0
  I  I92  1  0.84783252  0.49139688  0.05646835  1.0
  I  I93  1  0.15214410  0.50859642  0.94354635  1.0
  N  N94  1  0.49900862  0.51112148  0.14914335  1.0
  N  N95  1  0.50100397  0.48879119  0.85086531  1.0
  N  N96  1  0.76789024  0.53211844  0.48935534  1.0
  N  N97  1  0.23211952  0.46786111  0.51064702  1.0
  O  O98  1  0.63052393  0.35645537  0.49561357  1.0
  O  O99  1  0.36945761  0.64352711  0.50439212  1.0
  O  O100  1  0.44871775  0.35047745  0.50016402  1.0
  O  O101  1  0.55128420  0.64950066  0.49982968  1.0
  O  O102  1  0.59374296  0.50039468  0.58278863  1.0
  O  O103  1  0.40622859  0.49958349  0.41721143  1.0
  O  O104  1  0.41273891  0.49677712  0.58792145  1.0
  O  O105  1  0.58723132  0.50319817  0.41207104  1.0
  O  O106  1  0.31733288  0.52035971  0.15657908  1.0
  O  O107  1  0.68268211  0.47965437  0.84342817  1.0
  O  O108  1  0.68010224  0.49158212  0.14693308  1.0
  O  O109  1  0.31990852  0.50824349  0.85306258  1.0
