# generated using pymatgen
data_H12PbC12(SO)4
_symmetry_space_group_name_H-M   'P 1'
_cell_length_a   12.27726069
_cell_length_b   16.94785706
_cell_length_c   16.94781001
_cell_angle_alpha   107.55945131
_cell_angle_beta   101.84512633
_cell_angle_gamma   101.84521276
_symmetry_Int_Tables_number   1
_chemical_formula_structural   H12PbC12(SO)4
_chemical_formula_sum   'H72 Pb6 C72 S24 O24'
_cell_volume   3152.68891742
_cell_formula_units_Z   6
loop_
 _symmetry_equiv_pos_site_id
 _symmetry_equiv_pos_as_xyz
  1  'x, y, z'
loop_
 _atom_site_type_symbol
 _atom_site_label
 _atom_site_symmetry_multiplicity
 _atom_site_fract_x
 _atom_site_fract_y
 _atom_site_fract_z
 _atom_site_occupancy
  H  H0  1  0.17245928  0.83372334  0.46177005  1.0
  H  H1  1  0.32753871  0.53822846  0.16627679  1.0
  H  H2  1  0.82753969  0.16627752  0.53822857  1.0
  H  H3  1  0.67245842  0.46176982  0.83372196  1.0
  H  H4  1  0.26131003  0.82294730  0.55353618  1.0
  H  H5  1  0.23868882  0.44646189  0.17705320  1.0
  H  H6  1  0.73869036  0.17705291  0.44646069  1.0
  H  H7  1  0.76131023  0.55353703  0.82294603  1.0
  H  H8  1  0.28556705  0.92616496  0.54130537  1.0
  H  H9  1  0.21443138  0.45869316  0.07383496  1.0
  H  H10  1  0.71443250  0.07383525  0.45869314  1.0
  H  H11  1  0.78556683  0.54130576  0.92616415  1.0
  H  H12  1  0.24626476  0.21171948  0.51088788  1.0
  H  H13  1  0.25373546  0.48911039  0.78827989  1.0
  H  H14  1  0.75373588  0.78828138  0.48910981  1.0
  H  H15  1  0.74626408  0.51088983  0.21171981  1.0
  H  H16  1  0.20081845  0.30766414  0.53879444  1.0
  H  H17  1  0.29918017  0.46120583  0.69233449  1.0
  H  H18  1  0.79918026  0.69233608  0.46120631  1.0
  H  H19  1  0.70081937  0.53879438  0.30766520  1.0
  H  H20  1  0.11123939  0.21571784  0.44655278  1.0
  H  H21  1  0.38876024  0.55344644  0.78428209  1.0
  H  H22  1  0.88876041  0.78428302  0.55344655  1.0
  H  H23  1  0.61123931  0.44655378  0.21571761  1.0
  H  H24  1  0.38165869  0.85795257  0.74501147  1.0
  H  H25  1  0.11834380  0.25498910  0.14204771  1.0
  H  H26  1  0.61833953  0.14204635  0.25498705  1.0
  H  H27  1  0.88165817  0.74501305  0.85795234  1.0
  H  H28  1  0.45634823  0.90018160  0.67953668  1.0
  H  H29  1  0.04365085  0.32046211  0.09981756  1.0
  H  H30  1  0.54364857  0.09981798  0.32046241  1.0
  H  H31  1  0.95634978  0.67953875  0.90018131  1.0
  H  H32  1  0.38691617  0.96557686  0.74464807  1.0
  H  H33  1  0.11308473  0.25535277  0.03442388  1.0
  H  H34  1  0.61308362  0.03442400  0.25535186  1.0
  H  H35  1  0.88691589  0.74464809  0.96557617  1.0
  H  H36  1  0.27258313  0.11156477  0.08805025  1.0
  H  H37  1  0.22741643  0.91195040  0.88843512  1.0
  H  H38  1  0.72741533  0.88843481  0.91194968  1.0
  H  H39  1  0.77258502  0.08805046  0.11156565  1.0
  H  H40  1  0.28723392  0.21919747  0.08868459  1.0
  H  H41  1  0.21276603  0.91131558  0.78080248  1.0
  H  H42  1  0.71276812  0.78080274  0.91131548  1.0
  H  H43  1  0.78723327  0.08868399  0.21919699  1.0
  H  H44  1  0.26412004  0.13459842  0.98949363  1.0
  H  H45  1  0.23587873  0.01050618  0.86540067  1.0
  H  H46  1  0.73587925  0.86540115  0.01050583  1.0
  H  H47  1  0.76412082  0.98949404  0.13459843  1.0
  H  H48  1  0.79182264  0.93836438  0.54505940  1.0
  H  H49  1  0.70817725  0.45494034  0.06163434  1.0
  H  H50  1  0.20817716  0.06163648  0.45494052  1.0
  H  H51  1  0.29182096  0.54505859  0.93836476  1.0
  H  H52  1  0.85504153  0.94683637  0.65431729  1.0
  H  H53  1  0.64495661  0.34568451  0.05316238  1.0
  H  H54  1  0.14495827  0.05316450  0.34568204  1.0
  H  H55  1  0.35504186  0.65431506  0.94683578  1.0
  H  H56  1  0.82360684  0.03862660  0.63413913  1.0
  H  H57  1  0.67639233  0.36586188  0.96137209  1.0
  H  H58  1  0.17639212  0.96137427  0.36586067  1.0
  H  H59  1  0.32360755  0.63413704  0.03862608  1.0
  H  H60  1  0.59305771  0.24446785  0.49343680  1.0
  H  H61  1  0.90694284  0.50656298  0.75553193  1.0
  H  H62  1  0.40694025  0.75553044  0.50656266  1.0
  H  H63  1  0.09306086  0.49343723  0.24447016  1.0
  H  H64  1  0.60640730  0.32313534  0.59565038  1.0
  H  H65  1  0.89359415  0.40435017  0.67686452  1.0
  H  H66  1  0.39359174  0.67686359  0.40435003  1.0
  H  H67  1  0.10640929  0.59564940  0.32313852  1.0
  H  H68  1  0.68124321  0.24261552  0.59206771  1.0
  H  H69  1  0.81875582  0.40793222  0.75738349  1.0
  H  H70  1  0.31875391  0.75738277  0.40793221  1.0
  H  H71  1  0.18124621  0.59206799  0.24261835  1.0
  Pb  Pb72  1  0.42487565  0.19800380  0.77621007  1.0
  Pb  Pb73  1  0.07512250  0.22378878  0.80199811  1.0
  Pb  Pb74  1  0.57512357  0.80199771  0.22378937  1.0
  Pb  Pb75  1  0.92487761  0.77621079  0.19800325  1.0
  Pb  Pb76  1  0.74999764  0.14640149  0.85360169  1.0
  Pb  Pb77  1  0.25000241  0.85360002  0.14639670  1.0
  C  C78  1  0.20065685  0.08449414  0.65068165  1.0
  C  C79  1  0.29934411  0.34931861  0.91550501  1.0
  C  C80  1  0.79934411  0.91550542  0.34931747  1.0
  C  C81  1  0.70065619  0.65068355  0.08449538  1.0
  C  C82  1  0.09324370  0.04060754  0.57479986  1.0
  C  C83  1  0.40675589  0.42520028  0.95939192  1.0
  C  C84  1  0.90675617  0.95939138  0.42519891  1.0
  C  C85  1  0.59324250  0.57480123  0.04060799  1.0
  C  C86  1  0.05200852  0.95002452  0.54065161  1.0
  C  C87  1  0.44799110  0.45934769  0.04997440  1.0
  C  C88  1  0.94799110  0.04997376  0.45934751  1.0
  C  C89  1  0.55200870  0.54065318  0.95002552  1.0
  C  C90  1  0.04246223  0.09137064  0.53488442  1.0
  C  C91  1  0.45753844  0.46511645  0.90862987  1.0
  C  C92  1  0.95754089  0.90863022  0.46511659  1.0
  C  C93  1  0.54246103  0.53488571  0.09137098  1.0
  C  C94  1  0.21979737  0.86648080  0.53053189  1.0
  C  C95  1  0.28020114  0.46946663  0.13351920  1.0
  C  C96  1  0.78020110  0.13351878  0.46946627  1.0
  C  C97  1  0.71979840  0.53053359  0.86648167  1.0
  C  C98  1  0.17082176  0.23675684  0.51159166  1.0
  C  C99  1  0.32917842  0.48840769  0.76324272  1.0
  C  C100  1  0.82917862  0.76324337  0.48840757  1.0
  C  C101  1  0.67082113  0.51159253  0.23675639  1.0
  C  C102  1  0.50173050  0.11993605  0.90865567  1.0
  C  C103  1  0.99826882  0.09134412  0.88006495  1.0
  C  C104  1  0.49827047  0.88006352  0.09134228  1.0
  C  C105  1  0.00173129  0.90865545  0.11993700  1.0
  C  C106  1  0.50475754  0.05868415  0.95727489  1.0
  C  C107  1  0.99524318  0.04272475  0.94131647  1.0
  C  C108  1  0.49524318  0.94131477  0.04272223  1.0
  C  C109  1  0.00475744  0.95727612  0.05868594  1.0
  C  C110  1  0.52658585  0.97943234  0.92045890  1.0
  C  C111  1  0.97341605  0.07954060  0.02056864  1.0
  C  C112  1  0.47341460  0.02056593  0.07954035  1.0
  C  C113  1  0.02658573  0.92045897  0.97943415  1.0
  C  C114  1  0.47899093  0.08032445  0.03677139  1.0
  C  C115  1  0.02100997  0.96322562  0.91967504  1.0
  C  C116  1  0.52101012  0.91967317  0.96322422  1.0
  C  C117  1  0.97899239  0.03677330  0.08032705  1.0
  C  C118  1  0.43354302  0.91660769  0.74054525  1.0
  C  C119  1  0.06645857  0.25945346  0.08339188  1.0
  C  C120  1  0.56645903  0.08339252  0.25945187  1.0
  C  C121  1  0.93354181  0.74054676  0.91660794  1.0
  C  C122  1  0.30522357  0.15803401  0.05918331  1.0
  C  C123  1  0.19477638  0.94081636  0.84196546  1.0
  C  C124  1  0.69477739  0.84196556  0.94081640  1.0
  C  C125  1  0.80522399  0.05918386  0.15803613  1.0
  C  C126  1  0.62403787  0.10938124  0.67636206  1.0
  C  C127  1  0.87596366  0.32363773  0.89061881  1.0
  C  C128  1  0.37596251  0.89061898  0.32363834  1.0
  C  C129  1  0.12403646  0.67636184  0.10938137  1.0
  C  C130  1  0.55936067  0.05394983  0.58427884  1.0
  C  C131  1  0.94063924  0.41572151  0.94605145  1.0
  C  C132  1  0.44063721  0.94605039  0.41572178  1.0
  C  C133  1  0.05936221  0.58427935  0.05395168  1.0
  C  C134  1  0.57021568  0.96964815  0.55460043  1.0
  C  C135  1  0.92978374  0.44539990  0.03035303  1.0
  C  C136  1  0.42978252  0.03035078  0.44540044  1.0
  C  C137  1  0.07021662  0.55460032  0.96965033  1.0
  C  C138  1  0.49013900  0.08502308  0.53116065  1.0
  C  C139  1  0.00986069  0.46883975  0.91497693  1.0
  C  C140  1  0.50985895  0.91497520  0.46884000  1.0
  C  C141  1  0.99014001  0.53115917  0.08502491  1.0
  C  C142  1  0.79570122  0.96806053  0.61292774  1.0
  C  C143  1  0.70429729  0.38707511  0.03194038  1.0
  C  C144  1  0.20429858  0.03194033  0.38707219  1.0
  C  C145  1  0.29570200  0.61292447  0.96805968  1.0
  C  C146  1  0.60228229  0.25568369  0.56206264  1.0
  C  C147  1  0.89771959  0.43793828  0.74431611  1.0
  C  C148  1  0.39771591  0.74431524  0.43793824  1.0
  C  C149  1  0.10228385  0.56206129  0.25568634  1.0
  S  S150  1  0.12031663  0.88986831  0.59398861  1.0
  S  S151  1  0.37968253  0.40601122  0.11013139  1.0
  S  S152  1  0.87968408  0.11013062  0.40601087  1.0
  S  S153  1  0.62031701  0.59398899  0.88986830  1.0
  S  S154  1  0.09495120  0.20587950  0.58382608  1.0
  S  S155  1  0.40504910  0.41617382  0.79411977  1.0
  S  S156  1  0.90505059  0.79412006  0.41617376  1.0
  S  S157  1  0.59495044  0.58382640  0.20588051  1.0
  S  S158  1  0.57089108  0.95772250  0.82434023  1.0
  S  S159  1  0.92911133  0.17565819  0.04227905  1.0
  S  S160  1  0.42910938  0.04227577  0.17565666  1.0
  S  S161  1  0.07088987  0.82434203  0.95772325  1.0
  S  S162  1  0.46165501  0.18422399  0.08287427  1.0
  S  S163  1  0.03834538  0.91712542  0.81577591  1.0
  S  S164  1  0.53834486  0.81577493  0.91712509  1.0
  S  S165  1  0.96165557  0.08287415  0.18422617  1.0
  S  S166  1  0.65396743  0.93314877  0.62747186  1.0
  S  S167  1  0.84603140  0.37252885  0.06685120  1.0
  S  S168  1  0.34603294  0.06685145  0.37252973  1.0
  S  S169  1  0.15396706  0.62747072  0.93314931  1.0
  S  S170  1  0.47524594  0.19050393  0.57517946  1.0
  S  S171  1  0.02475402  0.42482096  0.80949595  1.0
  S  S172  1  0.52475227  0.80949500  0.42482141  1.0
  S  S173  1  0.97524775  0.57517861  0.19050684  1.0
  O  O174  1  0.19290037  0.12049173  0.72592606  1.0
  O  O175  1  0.30709967  0.27407410  0.87950832  1.0
  O  O176  1  0.80710001  0.87950849  0.27407317  1.0
  O  O177  1  0.69289955  0.72592741  0.12049112  1.0
  O  O178  1  0.29740940  0.08589948  0.63392897  1.0
  O  O179  1  0.20259219  0.36607197  0.91409901  1.0
  O  O180  1  0.70259214  0.91409944  0.36607182  1.0
  O  O181  1  0.79740811  0.63393018  0.08590020  1.0
  O  O182  1  0.40488578  0.10229677  0.85162653  1.0
  O  O183  1  0.09511321  0.14837161  0.89770336  1.0
  O  O184  1  0.59511519  0.89770280  0.14837141  1.0
  O  O185  1  0.90488749  0.85162732  0.10229789  1.0
  O  O186  1  0.58959590  0.18239015  0.92449422  1.0
  O  O187  1  0.91040269  0.07550693  0.81761310  1.0
  O  O188  1  0.41040506  0.81760942  0.07550490  1.0
  O  O189  1  0.08959742  0.92449264  0.18238944  1.0
  O  O190  1  0.56672952  0.11382508  0.73244813  1.0
  O  O191  1  0.93327239  0.26755309  0.88617808  1.0
  O  O192  1  0.43327078  0.88617707  0.26755225  1.0
  O  O193  1  0.06672823  0.73244778  0.11382315  1.0
  O  O194  1  0.73207762  0.14297444  0.69580699  1.0
  O  O195  1  0.76792343  0.30419328  0.85702374  1.0
  O  O196  1  0.26792251  0.85702513  0.30419260  1.0
  O  O197  1  0.23207637  0.69580759  0.14297501  1.0
