# generated using pymatgen
data_Al2H7C16S2N(ClO5)2
_symmetry_space_group_name_H-M   'P 1'
_cell_length_a   6.65033212
_cell_length_b   11.03796982
_cell_length_c   12.72252391
_cell_angle_alpha   99.65781229
_cell_angle_beta   104.54731765
_cell_angle_gamma   106.86744938
_symmetry_Int_Tables_number   1
_chemical_formula_structural   Al2H7C16S2N(ClO5)2
_chemical_formula_sum   'Al2 H7 C16 S2 N1 Cl2 O10'
_cell_volume   835.37784064
_cell_formula_units_Z   1
loop_
 _symmetry_equiv_pos_site_id
 _symmetry_equiv_pos_as_xyz
  1  'x, y, z'
loop_
 _atom_site_type_symbol
 _atom_site_label
 _atom_site_symmetry_multiplicity
 _atom_site_fract_x
 _atom_site_fract_y
 _atom_site_fract_z
 _atom_site_occupancy
  Al  Al0  1  0.99991884  0.49868409  0.50492584  1.0
  Al  Al1  1  0.50094086  0.50134940  0.50282093  1.0
  H  H2  1  0.13771678  0.41888938  0.36185431  1.0
  H  H3  1  0.87462245  0.65238102  0.60875144  1.0
  H  H4  1  0.78406188  0.90164365  0.56917196  1.0
  H  H5  1  0.09939456  0.86828807  0.46073992  1.0
  H  H6  1  0.89294445  0.13668392  0.55970953  1.0
  H  H7  1  0.20488277  0.20408499  0.44163492  1.0
  H  H8  1  0.00739241  0.05177905  0.42686821  1.0
  C  C9  1  0.64651310  0.49184986  0.30586033  1.0
  C  C10  1  0.64031948  0.27015840  0.49351591  1.0
  C  C11  1  0.35534392  0.50623481  0.69895041  1.0
  C  C12  1  0.36145491  0.73244278  0.51857151  1.0
  C  C13  1  0.56067767  0.13344873  0.50043677  1.0
  C  C14  1  0.43348585  0.87230018  0.51428871  1.0
  C  C15  1  0.33030037  0.05912872  0.47299725  1.0
  C  C16  1  0.66049003  0.94632904  0.54246131  1.0
  C  C17  1  0.27342872  0.92792465  0.48133408  1.0
  C  C18  1  0.71940696  0.07512351  0.53607024  1.0
  C  C19  1  0.33491459  0.55612705  0.90138913  1.0
  C  C20  1  0.67467523  0.44453592  0.10421682  1.0
  C  C21  1  0.41156731  0.50536184  0.81805945  1.0
  C  C22  1  0.59654983  0.49462700  0.18721431  1.0
  C  C23  1  0.57960129  0.46680633  0.99965637  1.0
  C  C24  1  0.43149133  0.53408307  0.00569659  1.0
  S  S25  1  0.60320096  0.43214263  0.86732371  1.0
  S  S26  1  0.40624311  0.56845925  0.13753528  1.0
  N  N27  1  0.16579892  0.10714214  0.43852673  1.0
  Cl  Cl28  1  0.15330767  0.63885853  0.88674810  1.0
  Cl  Cl29  1  0.85539928  0.36082394  0.11930919  1.0
  O  O30  1  0.81803050  0.46629064  0.35058541  1.0
  O  O31  1  0.49671958  0.32598174  0.46765411  1.0
  O  O32  1  0.48594339  0.48030724  0.64763070  1.0
  O  O33  1  0.15562506  0.67455291  0.50155431  1.0
  O  O34  1  0.18337753  0.53210001  0.65624620  1.0
  O  O35  1  0.51027426  0.67999150  0.53858805  1.0
  O  O36  1  0.51028036  0.51608508  0.35430000  1.0
  O  O37  1  0.84754134  0.32664523  0.51195124  1.0
  O  O38  1  0.19081301  0.43577188  0.44326540  1.0
  O  O39  1  0.80773887  0.56445612  0.55961828  1.0
