# generated using pymatgen
data_ZnH4C18N5O12
_symmetry_space_group_name_H-M   'P 1'
_cell_length_a   14.39560969
_cell_length_b   16.54939213
_cell_length_c   18.00008225
_cell_angle_alpha   89.98348000
_cell_angle_beta   89.32790332
_cell_angle_gamma   89.88732310
_symmetry_Int_Tables_number   1
_chemical_formula_structural   ZnH4C18N5O12
_chemical_formula_sum   'Zn2 H8 C36 N10 O24'
_cell_volume   4288.01073468
_cell_formula_units_Z   2
loop_
 _symmetry_equiv_pos_site_id
 _symmetry_equiv_pos_as_xyz
  1  'x, y, z'
loop_
 _atom_site_type_symbol
 _atom_site_label
 _atom_site_symmetry_multiplicity
 _atom_site_fract_x
 _atom_site_fract_y
 _atom_site_fract_z
 _atom_site_occupancy
  Zn  Zn0  1  0.50016735  0.58421479  0.50000498  1.0
  Zn  Zn1  1  0.49992824  0.41575006  0.50002581  1.0
  H  H2  1  0.38834558  0.58748586  0.12395731  1.0
  H  H3  1  0.38872937  0.41067682  0.87691320  1.0
  H  H4  1  0.61001336  0.58792605  0.87657328  1.0
  H  H5  1  0.61165153  0.41138277  0.12258507  1.0
  H  H6  1  0.40681313  0.71374940  0.58907902  1.0
  H  H7  1  0.59637564  0.28586290  0.41326024  1.0
  H  H8  1  0.59140665  0.71388265  0.40927591  1.0
  H  H9  1  0.40485510  0.28615547  0.58899113  1.0
  C  C10  1  0.49927726  0.50192877  0.64543043  1.0
  C  C11  1  0.50104727  0.50161671  0.35459141  1.0
  C  C12  1  0.32086312  0.49895520  0.50173349  1.0
  C  C13  1  0.67921433  0.49823371  0.49843055  1.0
  C  C14  1  0.22111625  0.49944874  0.50130512  1.0
  C  C15  1  0.77896147  0.49860002  0.49886603  1.0
  C  C16  1  0.13595632  0.49981287  0.50063806  1.0
  C  C17  1  0.86411724  0.49926435  0.49943075  1.0
  C  C18  1  0.04289029  0.49992673  0.50014545  1.0
  C  C19  1  0.95718009  0.49975173  0.49986386  1.0
  C  C20  1  0.43759306  0.54889715  0.15270705  1.0
  C  C21  1  0.43728109  0.45022440  0.84778966  1.0
  C  C22  1  0.56126833  0.54926320  0.84759293  1.0
  C  C23  1  0.56273331  0.45058278  0.15188882  1.0
  C  C24  1  0.43834855  0.54746582  0.22978580  1.0
  C  C25  1  0.43786828  0.45328499  0.77073658  1.0
  C  C26  1  0.56117834  0.54792534  0.77051640  1.0
  C  C27  1  0.56287269  0.45363487  0.22894097  1.0
  C  C28  1  0.50086861  0.50097123  0.27072191  1.0
  C  C29  1  0.49940210  0.50122862  0.72929152  1.0
  C  C30  1  0.49993308  0.49934629  0.11259843  1.0
  C  C31  1  0.49907717  0.49945500  0.88737354  1.0
  C  C32  1  0.49946810  0.49881263  0.03382276  1.0
  C  C33  1  0.49904968  0.49884336  0.96614931  1.0
  C  C34  1  0.44071382  0.83276497  0.54711587  1.0
  C  C35  1  0.55972795  0.16701816  0.45407416  1.0
  C  C36  1  0.54642748  0.83285638  0.44446368  1.0
  C  C37  1  0.45173234  0.16728280  0.55525228  1.0
  C  C38  1  0.44577449  0.74902372  0.54817360  1.0
  C  C39  1  0.55543282  0.25080233  0.45312106  1.0
  C  C40  1  0.54893272  0.74910156  0.44802838  1.0
  C  C41  1  0.44912259  0.25102143  0.55139482  1.0
  C  C42  1  0.49230971  0.87877509  0.49505667  1.0
  C  C43  1  0.50693365  0.12130151  0.50550829  1.0
  C  C44  1  0.49523231  0.96365789  0.49722175  1.0
  C  C45  1  0.50398657  0.03639755  0.50349224  1.0
  N  N46  1  0.49864122  0.70847453  0.49887298  1.0
  N  N47  1  0.50121147  0.29145299  0.50147418  1.0
  N  N48  1  0.36666839  0.59584674  0.26925860  1.0
  N  N49  1  0.36813694  0.40418783  0.73147338  1.0
  N  N50  1  0.63317766  0.59610785  0.73141383  1.0
  N  N51  1  0.63439912  0.40562866  0.26754062  1.0
  N  N52  1  0.37728486  0.87208086  0.60126528  1.0
  N  N53  1  0.62317638  0.12698252  0.40041918  1.0
  N  N54  1  0.60055750  0.87233204  0.38439788  1.0
  N  N55  1  0.39645766  0.12758334  0.61452612  1.0
  O  O56  1  0.48918400  0.57038232  0.61520294  1.0
  O  O57  1  0.49105254  0.43355948  0.38568474  1.0
  O  O58  1  0.51085041  0.57013347  0.38468951  1.0
  O  O59  1  0.50905193  0.43373090  0.61448201  1.0
  O  O60  1  0.36086580  0.56735875  0.49534437  1.0
  O  O61  1  0.63992631  0.42962435  0.49202453  1.0
  O  O62  1  0.63913633  0.56673384  0.50467910  1.0
  O  O63  1  0.36022820  0.43027899  0.50830345  1.0
  O  O64  1  0.35511797  0.66611462  0.24764347  1.0
  O  O65  1  0.32282715  0.56162666  0.31952992  1.0
  O  O66  1  0.32110945  0.43900359  0.68419278  1.0
  O  O67  1  0.36176431  0.33222821  0.74969869  1.0
  O  O68  1  0.64571981  0.66584009  0.75385263  1.0
  O  O69  1  0.67644048  0.56203768  0.68064230  1.0
  O  O70  1  0.67787767  0.44011992  0.31713031  1.0
  O  O71  1  0.64599692  0.33511298  0.24653189  1.0
  O  O72  1  0.37360211  0.84187276  0.66399893  1.0
  O  O73  1  0.33185938  0.93020425  0.57850241  1.0
  O  O74  1  0.62428231  0.15448627  0.33667850  1.0
  O  O75  1  0.67070676  0.07081147  0.42461957  1.0
  O  O76  1  0.67662282  0.84173148  0.36870251  1.0
  O  O77  1  0.56397661  0.93102821  0.35397748  1.0
  O  O78  1  0.31800248  0.15510097  0.62649568  1.0
  O  O79  1  0.43484890  0.07165102  0.64783669  1.0
