# generated using pymatgen
data_CuH4C7N3
_symmetry_space_group_name_H-M   'P 1'
_cell_length_a   21.73869044
_cell_length_b   27.16444132
_cell_length_c   29.12765587
_cell_angle_alpha   89.51010533
_cell_angle_beta   92.45848590
_cell_angle_gamma   89.98284047
_symmetry_Int_Tables_number   1
_chemical_formula_structural   CuH4C7N3
_chemical_formula_sum   'Cu12 H48 C84 N36'
_cell_volume   17183.98142515
_cell_formula_units_Z   12
loop_
 _symmetry_equiv_pos_site_id
 _symmetry_equiv_pos_as_xyz
  1  'x, y, z'
loop_
 _atom_site_type_symbol
 _atom_site_label
 _atom_site_symmetry_multiplicity
 _atom_site_fract_x
 _atom_site_fract_y
 _atom_site_fract_z
 _atom_site_occupancy
  Cu  Cu0  1  0.41949709  0.43321470  0.35500327  1.0
  Cu  Cu1  1  0.35867727  0.39863816  0.44338763  1.0
  Cu  Cu2  1  0.41291091  0.31953279  0.37370701  1.0
  Cu  Cu3  1  0.63333950  0.11193680  0.83435078  1.0
  Cu  Cu4  1  0.63287076  0.10505086  0.94290292  1.0
  Cu  Cu5  1  0.55172807  0.18441539  0.88665501  1.0
  Cu  Cu6  1  0.91026298  0.57132123  0.14781040  1.0
  Cu  Cu7  1  0.85393675  0.59713613  0.05092660  1.0
  Cu  Cu8  1  0.91453049  0.68097362  0.11750798  1.0
  Cu  Cu9  1  0.11678281  0.90369789  0.66821820  1.0
  Cu  Cu10  1  0.12577442  0.89157386  0.56316855  1.0
  Cu  Cu11  1  0.06450660  0.80680917  0.62475563  1.0
  H  H12  1  0.35129972  0.53480141  0.33526030  1.0
  H  H13  1  0.27109600  0.49114239  0.46328294  1.0
  H  H14  1  0.48608447  0.27973346  0.28692014  1.0
  H  H15  1  0.51825420  0.43718842  0.27849214  1.0
  H  H16  1  0.35059646  0.33011589  0.53178665  1.0
  H  H17  1  0.39004358  0.22074849  0.42950202  1.0
  H  H18  1  0.73344166  0.03214518  0.81395529  1.0
  H  H19  1  0.70845013  0.00413595  0.95890772  1.0
  H  H20  1  0.44674876  0.20799904  0.80738332  1.0
  H  H21  1  0.57523075  0.11994614  0.73308348  1.0
  H  H22  1  0.63766789  0.15215258  0.04226258  1.0
  H  H23  1  0.54629110  0.26796417  0.96184372  1.0
  H  H24  1  0.83423796  0.47624665  0.17220354  1.0
  H  H25  1  0.76300070  0.50473246  0.03301453  1.0
  H  H26  1  0.99606439  0.72706002  0.20336232  1.0
  H  H27  1  0.00917266  0.57009793  0.23108545  1.0
  H  H28  1  0.84339778  0.65880307  0.95745091  1.0
  H  H29  1  0.89013108  0.77474132  0.05426483  1.0
  H  H30  1  0.21472095  0.98913972  0.68779473  1.0
  H  H31  1  0.20746149  0.98657789  0.53864520  1.0
  H  H32  1  0.97272240  0.77131112  0.70345058  1.0
  H  H33  1  0.03915492  0.91113019  0.75656495  1.0
  H  H34  1  0.11880378  0.84099443  0.46621226  1.0
  H  H35  1  0.07236684  0.71791543  0.55395253  1.0
  H  H36  1  0.75304083  0.92139189  0.94585086  1.0
  H  H37  1  0.81418768  0.97274145  0.81773804  1.0
  H  H38  1  0.90892576  0.91256479  0.76533855  1.0
  H  H39  1  0.96492332  0.77154044  0.81398979  1.0
  H  H40  1  0.91639029  0.73127317  0.90691735  1.0
  H  H41  1  0.80247582  0.82067241  0.98615640  1.0
  H  H42  1  0.25223769  0.59975035  0.45865293  1.0
  H  H43  1  0.22663746  0.55460020  0.32034929  1.0
  H  H44  1  0.12227181  0.59969908  0.25871261  1.0
  H  H45  1  0.01458130  0.71725175  0.30616844  1.0
  H  H46  1  0.04627392  0.76183517  0.40493156  1.0
  H  H47  1  0.17582350  0.68838245  0.49398821  1.0
  H  H48  1  0.25125724  0.07478929  0.54559807  1.0
  H  H49  1  0.30914629  0.03548796  0.68183084  1.0
  H  H50  1  0.40783845  0.09622218  0.73491195  1.0
  H  H51  1  0.48136052  0.22474834  0.67507062  1.0
  H  H52  1  0.43180535  0.25927679  0.57734937  1.0
  H  H53  1  0.30439547  0.17130286  0.50063007  1.0
  H  H54  1  0.74258446  0.39646341  0.04815812  1.0
  H  H55  1  0.70980026  0.45878437  0.17762337  1.0
  H  H56  1  0.61191118  0.41435120  0.23846391  1.0
  H  H57  1  0.51687434  0.28403819  0.19948851  1.0
  H  H58  1  0.54725365  0.23246156  0.10577816  1.0
  H  H59  1  0.67022907  0.30186804  0.01687295  1.0
  C  C60  1  0.33867731  0.51712513  0.36704443  1.0
  C  C61  1  0.29362112  0.53031823  0.39757191  1.0
  C  C62  1  0.29788610  0.49503222  0.43288360  1.0
  C  C63  1  0.48738741  0.31935305  0.29099956  1.0
  C  C64  1  0.51908934  0.35527668  0.26663551  1.0
  C  C65  1  0.50436265  0.39999860  0.28702045  1.0
  C  C66  1  0.36120858  0.31008402  0.50104403  1.0
  C  C67  1  0.36908363  0.25943096  0.49515856  1.0
  C  C68  1  0.38072460  0.25381559  0.44863524  1.0
  C  C69  1  0.72134331  0.03231479  0.84966286  1.0
  C  C70  1  0.73779847  0.99972562  0.88560874  1.0
  C  C71  1  0.70809247  0.01770610  0.92379609  1.0
  C  C72  1  0.48522271  0.18643229  0.79608512  1.0
  C  C73  1  0.49426684  0.16514990  0.75333382  1.0
  C  C74  1  0.55128616  0.14139682  0.75800976  1.0
  C  C75  1  0.61385930  0.17473670  0.01624164  1.0
  C  C76  1  0.59462462  0.22379598  0.01818906  1.0
  C  C77  1  0.56735568  0.23408021  0.97477921  1.0
  C  C78  1  0.82407881  0.49000103  0.13762004  1.0
  C  C79  1  0.78026421  0.47380072  0.10452635  1.0
  C  C80  1  0.78782629  0.50421225  0.06612877  1.0
  C  C81  1  0.99215151  0.68725228  0.20376494  1.0
  C  C82  1  0.02031188  0.65240348  0.23351574  1.0
  C  C83  1  0.99932752  0.60669560  0.21750412  1.0
  C  C84  1  0.85619532  0.68094965  0.98715918  1.0
  C  C85  1  0.86396218  0.73194164  0.99050445  1.0
  C  C86  1  0.87949357  0.74042305  0.03687749  1.0
  C  C87  1  0.20640213  0.98168335  0.65156164  1.0
  C  C88  1  0.22937078  0.00527714  0.61293645  1.0
  C  C89  1  0.20222118  0.98075789  0.57512399  1.0
  C  C90  1  0.99630701  0.80579415  0.71046217  1.0
  C  C91  1  0.98790943  0.84010485  0.74522536  1.0
  C  C92  1  0.03023591  0.87768560  0.73732844  1.0
  C  C93  1  0.10618945  0.81663392  0.49396546  1.0
  C  C94  1  0.09770696  0.76561111  0.49410693  1.0
  C  C95  1  0.08296664  0.75355165  0.53914142  1.0
  C  C96  1  0.81754795  0.88413916  0.89844650  1.0
  C  C97  1  0.83820583  0.83681452  0.91594430  1.0
  C  C98  1  0.87668756  0.80604313  0.88863222  1.0
  C  C99  1  0.89804335  0.82401031  0.84532357  1.0
  C  C100  1  0.87954724  0.87242209  0.82894854  1.0
  C  C101  1  0.83781288  0.90160164  0.85452350  1.0
  C  C102  1  0.77900673  0.91999348  0.91497454  1.0
  C  C103  1  0.81068759  0.94709940  0.84618092  1.0
  C  C104  1  0.90974178  0.88138608  0.78882694  1.0
  C  C105  1  0.93844669  0.80534234  0.81414868  1.0
  C  C106  1  0.88825957  0.76314151  0.91361592  1.0
  C  C107  1  0.82890879  0.81156843  0.95666950  1.0
  C  C108  1  0.18643997  0.63099386  0.40357086  1.0
  C  C109  1  0.15059018  0.67147118  0.41982901  1.0
  C  C110  1  0.10658415  0.69681721  0.38918380  1.0
  C  C111  1  0.09531384  0.67916789  0.34288794  1.0
  C  C112  1  0.13135828  0.63849294  0.32675390  1.0
  C  C113  1  0.17828184  0.61586717  0.35627570  1.0
  C  C114  1  0.23125406  0.60066813  0.42421211  1.0
  C  C115  1  0.21894385  0.57757036  0.34978837  1.0
  C  C116  1  0.10868183  0.62722984  0.28299837  1.0
  C  C117  1  0.05226281  0.69105182  0.30792628  1.0
  C  C118  1  0.08127120  0.73462579  0.41409552  1.0
  C  C119  1  0.14934060  0.69436945  0.46206506  1.0
  C  C120  1  0.32046604  0.11333820  0.59280675  1.0
  C  C121  1  0.34494647  0.15743020  0.57235129  1.0
  C  C122  1  0.38805154  0.18783949  0.59874146  1.0
  C  C123  1  0.40913695  0.17318359  0.64447286  1.0
  C  C124  1  0.38426623  0.12926368  0.66486922  1.0
  C  C125  1  0.33942514  0.10007212  0.63953151  1.0
  C  C126  1  0.27796447  0.07826393  0.57767456  1.0
  C  C127  1  0.30764419  0.05786615  0.65084642  1.0
  C  C128  1  0.41219007  0.12395197  0.70827057  1.0
  C  C129  1  0.45163421  0.19277615  0.67628450  1.0
  C  C130  1  0.40119877  0.22824544  0.57160331  1.0
  C  C131  1  0.33441864  0.18051164  0.52998872  1.0
  C  C132  1  0.67734387  0.36979405  0.10146631  1.0
  C  C133  1  0.64488781  0.32564383  0.08766829  1.0
  C  C134  1  0.60296170  0.30180898  0.11819966  1.0
  C  C135  1  0.59088273  0.32400433  0.16183820  1.0
  C  C136  1  0.62256165  0.36887920  0.17513317  1.0
  C  C137  1  0.66699155  0.39068646  0.14590047  1.0
  C  C138  1  0.72046908  0.39930681  0.08067369  1.0
  C  C139  1  0.70444059  0.43171925  0.15061315  1.0
  C  C140  1  0.60023344  0.38332045  0.21668858  1.0
  C  C141  1  0.55067912  0.31302228  0.19624752  1.0
  C  C142  1  0.58017054  0.26016978  0.09586255  1.0
  C  C143  1  0.64515426  0.29790966  0.04803521  1.0
  N  N144  1  0.34281248  0.46250763  0.42371911  1.0
  N  N145  1  0.36769564  0.47610988  0.38303391  1.0
  N  N146  1  0.46614066  0.39118310  0.32149734  1.0
  N  N147  1  0.45532976  0.34159505  0.32386062  1.0
  N  N148  1  0.38004481  0.29864661  0.42801878  1.0
  N  N149  1  0.36822989  0.33338010  0.46050011  1.0
  N  N150  1  0.67559164  0.05849569  0.91112157  1.0
  N  N151  1  0.68404348  0.06756530  0.86555126  1.0
  N  N152  1  0.57488518  0.14795009  0.80105035  1.0
  N  N153  1  0.53404992  0.17578704  0.82466472  1.0
  N  N154  1  0.57053309  0.19371125  0.94835699  1.0
  N  N155  1  0.59916968  0.15688719  0.97400026  1.0
  N  N156  1  0.83354052  0.53678582  0.07592484  1.0
  N  N157  1  0.85557410  0.52804947  0.12006155  1.0
  N  N158  1  0.96105186  0.61385096  0.18039424  1.0
  N  N159  1  0.95621259  0.66346351  0.17196532  1.0
  N  N160  1  0.88093411  0.69696930  0.05986268  1.0
  N  N161  1  0.86681151  0.66019842  0.02909990  1.0
  N  N162  1  0.16512381  0.94471316  0.59049325  1.0
  N  N163  1  0.16801659  0.94520325  0.63748831  1.0
  N  N164  1  0.06175982  0.86664393  0.69994721  1.0
  N  N165  1  0.04111037  0.82223926  0.68331028  1.0
  N  N166  1  0.08319317  0.79494364  0.56450569  1.0
  N  N167  1  0.09730592  0.83399248  0.53653354  1.0
  N  N168  1  0.77502363  0.95802328  0.88299606  1.0
  N  N169  1  0.94521765  0.84050957  0.78002767  1.0
  N  N170  1  0.85928196  0.76690876  0.95485059  1.0
  N  N171  1  0.25078261  0.56854336  0.39119068  1.0
  N  N172  1  0.06074572  0.65922644  0.27173121  1.0
  N  N173  1  0.10729932  0.73259380  0.45828935  1.0
  N  N174  1  0.27041569  0.04483540  0.61319812  1.0
  N  N175  1  0.45276727  0.16271169  0.71491004  1.0
  N  N176  1  0.36861137  0.22351282  0.53001770  1.0
  N  N177  1  0.73667633  0.43668111  0.11088641  1.0
  N  N178  1  0.55655033  0.34936821  0.22927998  1.0
  N  N179  1  0.60604420  0.25829136  0.05331483  1.0
