# generated using pymatgen
data_ZnH6C25(N2O5)2
_symmetry_space_group_name_H-M   'P 1'
_cell_length_a   13.20478487
_cell_length_b   14.43634676
_cell_length_c   28.06669169
_cell_angle_alpha   89.99996249
_cell_angle_beta   90.00009076
_cell_angle_gamma   89.97601552
_symmetry_Int_Tables_number   1
_chemical_formula_structural   ZnH6C25(N2O5)2
_chemical_formula_sum   'Zn2 H12 C50 N8 O20'
_cell_volume   5350.32078329
_cell_formula_units_Z   2
loop_
 _symmetry_equiv_pos_site_id
 _symmetry_equiv_pos_as_xyz
  1  'x, y, z'
loop_
 _atom_site_type_symbol
 _atom_site_label
 _atom_site_symmetry_multiplicity
 _atom_site_fract_x
 _atom_site_fract_y
 _atom_site_fract_z
 _atom_site_occupancy
  Zn  Zn0  1  0.39443661  0.50001510  0.49999979  1.0
  Zn  Zn1  1  0.60556312  0.49998463  0.50000015  1.0
  H  H2  1  0.33783699  0.51533388  0.65271141  1.0
  H  H3  1  0.33792982  0.48399185  0.34729173  1.0
  H  H4  1  0.66216225  0.48466615  0.65271284  1.0
  H  H5  1  0.66207115  0.51600896  0.34729173  1.0
  H  H6  1  0.47677908  0.73203318  0.87783592  1.0
  H  H7  1  0.47810370  0.26788828  0.12216759  1.0
  H  H8  1  0.52321486  0.26796421  0.87783663  1.0
  H  H9  1  0.52189197  0.73210964  0.12216794  1.0
  H  H10  1  0.51755724  0.73463325  0.03403002  1.0
  H  H11  1  0.51908296  0.26544199  0.96598204  1.0
  H  H12  1  0.48243557  0.26536490  0.03402966  1.0
  H  H13  1  0.48091309  0.73455725  0.96598097  1.0
  C  C14  1  0.49997819  0.67974688  0.49999694  1.0
  C  C15  1  0.50002003  0.32025285  0.49999587  1.0
  C  C16  1  0.49999942  0.50000044  0.59303997  1.0
  C  C17  1  0.49999955  0.50000068  0.40696211  1.0
  C  C18  1  0.49021856  0.58674648  0.82068454  1.0
  C  C19  1  0.49067901  0.41322000  0.17932609  1.0
  C  C20  1  0.50977727  0.41324897  0.82068490  1.0
  C  C21  1  0.50932234  0.58677639  0.17932609  1.0
  C  C22  1  0.59012041  0.49295625  0.72122287  1.0
  C  C23  1  0.59007668  0.50747988  0.27878348  1.0
  C  C24  1  0.40987627  0.50703876  0.72122180  1.0
  C  C25  1  0.40992535  0.49251557  0.27878312  1.0
  C  C26  1  0.59079404  0.49174894  0.67169798  1.0
  C  C27  1  0.59074350  0.50864493  0.32830766  1.0
  C  C28  1  0.40920382  0.50824896  0.67169726  1.0
  C  C29  1  0.40925811  0.49135385  0.32830766  1.0
  C  C30  1  0.49999767  0.49999747  0.74744292  1.0
  C  C31  1  0.50000130  0.49999741  0.25256486  1.0
  C  C32  1  0.49999893  0.49999867  0.89814469  1.0
  C  C33  1  0.50000080  0.49999829  0.10186416  1.0
  C  C34  1  0.49202420  0.58497450  0.87310112  1.0
  C  C35  1  0.49245162  0.41500792  0.12691164  1.0
  C  C36  1  0.50797350  0.41502290  0.87310183  1.0
  C  C37  1  0.50754863  0.58498999  0.12691200  1.0
  C  C38  1  0.48441940  0.66786040  0.89798328  1.0
  C  C39  1  0.48536176  0.33209777  0.10202592  1.0
  C  C40  1  0.51557620  0.33213693  0.89798400  1.0
  C  C41  1  0.51463605  0.66790021  0.10202627  1.0
  C  C42  1  0.49999960  0.49999899  0.64663482  1.0
  C  C43  1  0.50000089  0.49999936  0.35336940  1.0
  C  C44  1  0.50292737  0.58634642  0.02600770  1.0
  C  C45  1  0.50354197  0.41366786  0.97400186  1.0
  C  C46  1  0.49707295  0.41365244  0.02600805  1.0
  C  C47  1  0.49645792  0.58633067  0.97400151  1.0
  C  C48  1  0.50000062  0.49999974  0.05090767  1.0
  C  C49  1  0.49999986  0.49999929  0.94910046  1.0
  C  C50  1  0.51182987  0.66835468  0.05232038  1.0
  C  C51  1  0.51296161  0.33169354  0.94769132  1.0
  C  C52  1  0.48816609  0.33164342  0.05232002  1.0
  C  C53  1  0.48703584  0.66830505  0.94769060  1.0
  C  C54  1  0.49994617  0.77949304  0.49999373  1.0
  C  C55  1  0.50005204  0.22050600  0.49999195  1.0
  C  C56  1  0.49994969  0.86446399  0.49998768  1.0
  C  C57  1  0.50004928  0.13553505  0.49998554  1.0
  C  C58  1  0.49997916  0.95728111  0.49998590  1.0
  C  C59  1  0.50001981  0.04271862  0.49998447  1.0
  C  C60  1  0.85130435  0.49998324  0.49999730  1.0
  C  C61  1  0.14869463  0.50001788  0.49999765  1.0
  C  C62  1  0.95376417  0.49999571  0.49999694  1.0
  C  C63  1  0.04623404  0.50000679  0.49999730  1.0
  N  N64  1  0.49999708  0.49999741  0.79822090  1.0
  N  N65  1  0.50000113  0.49999817  0.20178973  1.0
  N  N66  1  0.76299167  0.49997077  0.49999694  1.0
  N  N67  1  0.23700655  0.50002896  0.49999801  1.0
  N  N68  1  0.31015769  0.51421575  0.74523888  1.0
  N  N69  1  0.31023761  0.48491187  0.25476961  1.0
  N  N70  1  0.68983839  0.48577989  0.74524067  1.0
  N  N71  1  0.68976350  0.51508502  0.25476996  1.0
  O  O72  1  0.41348429  0.64057007  0.49949564  1.0
  O  O73  1  0.58651392  0.35942897  0.49949599  1.0
  O  O74  1  0.41349709  0.35944282  0.50050003  1.0
  O  O75  1  0.58650113  0.64055621  0.50050145  1.0
  O  O76  1  0.41390353  0.50113579  0.57271517  1.0
  O  O77  1  0.58609516  0.50114291  0.42728584  1.0
  O  O78  1  0.41390408  0.49885909  0.42728513  1.0
  O  O79  1  0.58609594  0.49886514  0.57271552  1.0
  O  O80  1  0.48053360  0.65735995  0.79655060  1.0
  O  O81  1  0.48140723  0.34255874  0.20345540  1.0
  O  O82  1  0.51945828  0.34263418  0.79655167  1.0
  O  O83  1  0.51859580  0.65743759  0.20345576  1.0
  O  O84  1  0.24378275  0.55820822  0.72385019  1.0
  O  O85  1  0.29922972  0.47504790  0.78411415  1.0
  O  O86  1  0.24409250  0.44070744  0.27617505  1.0
  O  O87  1  0.29910090  0.52398829  0.21588081  1.0
  O  O88  1  0.75621470  0.44178817  0.72385268  1.0
  O  O89  1  0.70076435  0.52494626  0.78411628  1.0
  O  O90  1  0.75590799  0.55929078  0.27617505  1.0
  O  O91  1  0.70090070  0.47600731  0.21588152  1.0
