# generated using pymatgen
data_Zn4H21C26(NO5)3
_symmetry_space_group_name_H-M   'P 1'
_cell_length_a   10.74698273
_cell_length_b   10.93934415
_cell_length_c   19.62229722
_cell_angle_alpha   96.89417699
_cell_angle_beta   92.34029258
_cell_angle_gamma   99.13959932
_symmetry_Int_Tables_number   1
_chemical_formula_structural   Zn4H21C26(NO5)3
_chemical_formula_sum   'Zn4 H21 C26 N3 O15'
_cell_volume   2256.91197295
_cell_formula_units_Z   1
loop_
 _symmetry_equiv_pos_site_id
 _symmetry_equiv_pos_as_xyz
  1  'x, y, z'
loop_
 _atom_site_type_symbol
 _atom_site_label
 _atom_site_symmetry_multiplicity
 _atom_site_fract_x
 _atom_site_fract_y
 _atom_site_fract_z
 _atom_site_occupancy
  Zn  Zn0  1  0.41381226  0.58697906  0.44245643  1.0
  Zn  Zn1  1  0.38747406  0.38049367  0.54939257  1.0
  Zn  Zn2  1  0.61227581  0.60986873  0.57073784  1.0
  Zn  Zn3  1  0.59420001  0.39179827  0.43719026  1.0
  H  H4  1  0.27741685  0.45550037  0.89063212  1.0
  H  H5  1  0.52267458  0.80312164  0.23096471  1.0
  H  H6  1  0.47750498  0.71898103  0.29669147  1.0
  H  H7  1  0.94509297  0.77215145  0.54622061  1.0
  H  H8  1  0.08298482  0.77206998  0.49635017  1.0
  H  H9  1  0.10017979  0.81341873  0.58801874  1.0
  H  H10  1  0.24746518  0.57381897  0.69198690  1.0
  H  H11  1  0.15632191  0.59974536  0.76585508  1.0
  H  H12  1  0.10106928  0.47461398  0.69815502  1.0
  H  H13  1  0.60595998  0.29341443  0.04226640  1.0
  H  H14  1  0.64565796  0.23683783  0.11443941  1.0
  H  H15  1  0.54897304  0.01388510  0.58874324  1.0
  H  H16  1  0.43415304  0.75795743  0.12990680  1.0
  H  H17  1  0.50596768  0.71317561  0.05843674  1.0
  H  H18  1  0.45851441  0.97128894  0.43483957  1.0
  H  H19  1  0.97151503  0.36381708  0.44918768  1.0
  H  H20  1  0.66922095  0.58597158  0.77606528  1.0
  H  H21  1  0.38691066  0.51732673  0.00260714  1.0
  H  H22  1  0.67948908  0.58806238  0.90280364  1.0
  H  H23  1  0.60563654  0.33225512  0.22608639  1.0
  H  H24  1  0.66951168  0.49904137  0.00277333  1.0
  C  C25  1  0.48671806  0.16063827  0.49053651  1.0
  C  C26  1  0.57863871  0.51104927  0.02383792  1.0
  C  C27  1  0.47894667  0.51677969  0.98064622  1.0
  C  C28  1  0.51782983  0.82809253  0.52663740  1.0
  C  C29  1  0.47072216  0.51798491  0.76149016  1.0
  C  C30  1  0.51722987  0.96474243  0.53782846  1.0
  C  C31  1  0.48378093  0.02381501  0.48571702  1.0
  C  C32  1  0.97699620  0.53418599  0.51306126  1.0
  C  C33  1  0.03085419  0.44583156  0.47723765  1.0
  C  C34  1  0.17017524  0.45279817  0.47845522  1.0
  C  C35  1  0.83534440  0.52255434  0.51124115  1.0
  C  C36  1  0.57097503  0.51424714  0.09864728  1.0
  C  C37  1  0.47907356  0.51009636  0.68561715  1.0
  C  C38  1  0.52941121  0.50127587  0.31453039  1.0
  C  C39  1  0.54522015  0.51131966  0.24098289  1.0
  C  C40  1  0.51956114  0.61622419  0.21037875  1.0
  C  C41  1  0.53138761  0.61517266  0.13840120  1.0
  C  C42  1  0.04264842  0.75396308  0.54553889  1.0
  C  C43  1  0.18477753  0.52858601  0.72764915  1.0
  C  C44  1  0.60176343  0.41229463  0.13086789  1.0
  C  C45  1  0.58710189  0.41155678  0.20081530  1.0
  C  C46  1  0.58998663  0.55645123  0.87293704  1.0
  C  C47  1  0.58433676  0.55663080  0.80235224  1.0
  C  C48  1  0.35876161  0.48223459  0.79500737  1.0
  C  C49  1  0.36523963  0.48368231  0.86640203  1.0
  C  C50  1  0.47950494  0.51835118  0.90640563  1.0
  N  N51  1  0.48014012  0.72069762  0.24501311  1.0
  N  N52  1  0.64585537  0.31470568  0.09098703  1.0
  N  N53  1  0.50936631  0.72237913  0.11062152  1.0
  O  O54  1  0.50354412  0.49279495  0.50108880  1.0
  O  O55  1  0.39014129  0.43980274  0.64748249  1.0
  O  O56  1  0.57064912  0.41193899  0.34020304  1.0
  O  O57  1  0.57760023  0.57235544  0.66409293  1.0
  O  O58  1  0.47380074  0.58245369  0.34939849  1.0
  O  O59  1  0.04934894  0.62721477  0.55705109  1.0
  O  O60  1  0.24197076  0.44088889  0.76221952  1.0
  O  O61  1  0.23106181  0.53836460  0.44837036  1.0
  O  O62  1  0.77430956  0.43760968  0.46668384  1.0
  O  O63  1  0.43791082  0.21372623  0.54179902  1.0
  O  O64  1  0.58272837  0.78398706  0.57099928  1.0
  O  O65  1  0.53744470  0.21204446  0.44115784  1.0
  O  O66  1  0.45374731  0.76685627  0.47385434  1.0
  O  O67  1  0.21490177  0.37093753  0.50869435  1.0
  O  O68  1  0.78990746  0.59799628  0.55425200  1.0
