# generated using pymatgen
data_AlH9C13SNO5
_symmetry_space_group_name_H-M   'P 1'
_cell_length_a   6.63985468
_cell_length_b   12.63470391
_cell_length_c   17.65220798
_cell_angle_alpha   93.02097695
_cell_angle_beta   100.80219640
_cell_angle_gamma   103.83818087
_symmetry_Int_Tables_number   1
_chemical_formula_structural   AlH9C13SNO5
_chemical_formula_sum   'Al2 H18 C26 S2 N2 O10'
_cell_volume   1405.02355220
_cell_formula_units_Z   2
loop_
 _symmetry_equiv_pos_site_id
 _symmetry_equiv_pos_as_xyz
  1  'x, y, z'
loop_
 _atom_site_type_symbol
 _atom_site_label
 _atom_site_symmetry_multiplicity
 _atom_site_fract_x
 _atom_site_fract_y
 _atom_site_fract_z
 _atom_site_occupancy
  Al  Al0  1  0.98510343  0.48301761  0.49850571  1.0
  Al  Al1  1  0.48550534  0.48343392  0.50008724  1.0
  H  H2  1  0.31916778  0.61096119  0.55474241  1.0
  H  H3  1  0.65645730  0.42472051  0.40353775  1.0
  H  H4  1  0.87418336  0.58955785  0.27705978  1.0
  H  H5  1  0.82443712  0.61301741  0.13555963  1.0
  H  H6  1  0.41126175  0.46039975  0.26336612  1.0
  H  H7  1  0.54649964  0.45645489  0.73443254  1.0
  H  H8  1  0.20840356  0.54215077  0.72601136  1.0
  H  H9  1  0.30266918  0.58188128  0.87086568  1.0
  H  H10  1  0.34225346  0.46755014  0.05368560  1.0
  H  H11  1  0.48731231  0.43021050  0.13446526  1.0
  H  H12  1  0.65190147  0.47887828  0.94708404  1.0
  H  H13  1  0.45901430  0.43661042  0.86390809  1.0
  H  H14  1  0.64706777  0.19148499  0.46372348  1.0
  H  H15  1  0.56028729  0.06119887  0.40750849  1.0
  H  H16  1  0.72866867  0.17504280  0.37570471  1.0
  H  H17  1  0.23547542  0.77913182  0.61910913  1.0
  H  H18  1  0.39819588  0.91018482  0.60897199  1.0
  H  H19  1  0.35356019  0.79898345  0.53714830  1.0
  C  C20  1  0.82263283  0.68162420  0.50579973  1.0
  C  C21  1  0.81587714  0.48013202  0.63666609  1.0
  C  C22  1  0.15182621  0.28855714  0.49560704  1.0
  C  C23  1  0.16861671  0.50231040  0.36120607  1.0
  C  C24  1  0.14406673  0.52170516  0.27768817  1.0
  C  C25  1  0.97868669  0.56591909  0.24232521  1.0
  C  C26  1  0.95217328  0.57920124  0.16386741  1.0
  C  C27  1  0.08655252  0.54779573  0.11872518  1.0
  C  C28  1  0.25768607  0.50553702  0.15506504  1.0
  C  C29  1  0.28345297  0.49386674  0.23458614  1.0
  C  C30  1  0.05068083  0.55198804  0.03764754  1.0
  C  C31  1  0.02834778  0.54752853  0.96690330  1.0
  C  C32  1  0.97881147  0.53441969  0.88504012  1.0
  C  C33  1  0.76112526  0.49817290  0.84663754  1.0
  C  C34  1  0.71157301  0.48186367  0.76536620  1.0
  C  C35  1  0.87188024  0.49615147  0.72298459  1.0
  C  C36  1  0.08645336  0.53053834  0.76057584  1.0
  C  C37  1  0.13769868  0.55168475  0.84072345  1.0
  C  C38  1  0.88483238  0.10047241  0.46808962  1.0
  C  C39  1  0.08892391  0.87012599  0.53512821  1.0
  C  C40  1  0.08545583  0.16983000  0.49767095  1.0
  C  C41  1  0.88909925  0.80058183  0.50484445  1.0
  C  C42  1  0.08567605  0.97921012  0.52111692  1.0
  C  C43  1  0.88871424  0.99140880  0.48183496  1.0
  C  C44  1  0.69447786  0.13332410  0.42665938  1.0
  C  C45  1  0.27886293  0.83784356  0.57760698  1.0
  S  S46  1  0.27234762  0.10327515  0.54086108  1.0
  S  S47  1  0.70261721  0.86711065  0.46133184  1.0
  N  N48  1  0.39473733  0.47876001  0.11206777  1.0
  N  N49  1  0.60511528  0.48312708  0.88944358  1.0
  O  O50  1  0.96987843  0.63189728  0.52046788  1.0
  O  O51  1  0.63801942  0.49522465  0.60433625  1.0
  O  O52  1  0.35046536  0.33459164  0.51120039  1.0
  O  O53  1  0.01910816  0.51360230  0.39458753  1.0
  O  O54  1  0.00520146  0.33773384  0.47770228  1.0
  O  O55  1  0.33464526  0.47412016  0.39305758  1.0
  O  O56  1  0.62331568  0.63642684  0.49213633  1.0
  O  O57  1  0.95185246  0.45579249  0.60138755  1.0
  O  O58  1  0.27644377  0.53383188  0.53586823  1.0
  O  O59  1  0.69353590  0.43708790  0.45964275  1.0
