# generated using pymatgen
data_ZnH27C32N(O2F)2
_symmetry_space_group_name_H-M   'P 1'
_cell_length_a   17.11813713
_cell_length_b   18.22092575
_cell_length_c   19.39706680
_cell_angle_alpha   90.88473417
_cell_angle_beta   90.35829682
_cell_angle_gamma   92.90424308
_symmetry_Int_Tables_number   1
_chemical_formula_structural   ZnH27C32N(O2F)2
_chemical_formula_sum   'Zn2 H54 C64 N2 O8 F4'
_cell_volume   6041.46521682
_cell_formula_units_Z   2
loop_
 _symmetry_equiv_pos_site_id
 _symmetry_equiv_pos_as_xyz
  1  'x, y, z'
loop_
 _atom_site_type_symbol
 _atom_site_label
 _atom_site_symmetry_multiplicity
 _atom_site_fract_x
 _atom_site_fract_y
 _atom_site_fract_z
 _atom_site_occupancy
  Zn  Zn0  1  0.52698204  0.58279260  0.49200916  1.0
  Zn  Zn1  1  0.49943768  0.43047280  0.49469674  1.0
  H  H2  1  0.36617204  0.57783211  0.94520667  1.0
  H  H3  1  0.43063561  0.17171725  0.58294295  1.0
  H  H4  1  0.61570272  0.70815241  0.41970028  1.0
  H  H5  1  0.42568009  0.30914013  0.57832008  1.0
  H  H6  1  0.63929462  0.95103723  0.47696555  1.0
  H  H7  1  0.38415836  0.06281829  0.51256414  1.0
  H  H8  1  0.28769680  0.48650645  0.58797089  1.0
  H  H9  1  0.74451526  0.59368597  0.59848323  1.0
  H  H10  1  0.99649752  0.49926414  0.46609936  1.0
  H  H11  1  0.01967568  0.51764808  0.62220918  1.0
  H  H12  1  0.88773123  0.59678746  0.62316792  1.0
  H  H13  1  0.54063001  0.39658998  0.04435390  1.0
  H  H14  1  0.14382943  0.47970684  0.60631357  1.0
  H  H15  1  0.42556635  0.39667725  0.70005497  1.0
  H  H16  1  0.54250435  0.60483773  0.26723786  1.0
  H  H17  1  0.41232055  0.38967136  0.82798427  1.0
  H  H18  1  0.51303822  0.59626853  0.14092994  1.0
  H  H19  1  0.72054830  0.42208864  0.39384118  1.0
  H  H20  1  0.81229927  0.38083649  0.39178993  1.0
  H  H21  1  0.72417686  0.32556514  0.38096667  1.0
  H  H22  1  0.77410685  0.31206849  0.50163864  1.0
  H  H23  1  0.68558893  0.35715130  0.50287726  1.0
  H  H24  1  0.37747397  0.56640304  0.07182932  1.0
  H  H25  1  0.30561357  0.44951232  0.33437244  1.0
  H  H26  1  0.21263131  0.46573293  0.29808391  1.0
  H  H27  1  0.29902994  0.50726805  0.26161128  1.0
  H  H28  1  0.23233263  0.60078351  0.33384615  1.0
  H  H29  1  0.32425398  0.58281846  0.36841800  1.0
  H  H30  1  0.02926882  0.63553572  0.44038893  1.0
  H  H31  1  0.10917795  0.67402176  0.39300538  1.0
  H  H32  1  0.02064883  0.64517874  0.34950846  1.0
  H  H33  1  0.12173235  0.55230253  0.33080342  1.0
  H  H34  1  0.04241129  0.51431005  0.37669898  1.0
  H  H35  1  0.52943128  0.40816963  0.91773442  1.0
  H  H36  1  0.96938533  0.35689855  0.62239464  1.0
  H  H37  1  0.88097561  0.30260574  0.61199312  1.0
  H  H38  1  0.96857503  0.27395854  0.57272275  1.0
  H  H39  1  0.88538194  0.32868182  0.48296448  1.0
  H  H40  1  0.97124265  0.38330003  0.49668486  1.0
  H  H41  1  0.42022213  0.71473032  0.80292394  1.0
  H  H42  1  0.37754166  0.67635445  0.87816872  1.0
  H  H43  1  0.45279575  0.74701959  0.88571994  1.0
  H  H44  1  0.50811803  0.62548727  0.90982045  1.0
  H  H45  1  0.54937969  0.66440435  0.83468254  1.0
  H  H46  1  0.45049392  0.69101115  0.57389022  1.0
  H  H47  1  0.31876451  0.35371723  0.22318962  1.0
  H  H48  1  0.30715272  0.39285857  0.14068116  1.0
  H  H49  1  0.30463923  0.29563959  0.14905399  1.0
  H  H50  1  0.43347457  0.34146874  0.10214336  1.0
  H  H51  1  0.44583040  0.30172564  0.18384730  1.0
  H  H52  1  0.55989378  0.31903243  0.40219603  1.0
  H  H53  1  0.43599612  0.82676749  0.57804090  1.0
  H  H54  1  0.57351865  0.18242827  0.39981341  1.0
  H  H55  1  0.60814080  0.84465461  0.41578937  1.0
  C  C56  1  0.52850419  0.49995927  0.36119368  1.0
  C  C57  1  0.46166885  0.41927512  0.18389959  1.0
  C  C58  1  0.47746779  0.57191591  0.74374542  1.0
  C  C59  1  0.48124846  0.42642947  0.25402862  1.0
  C  C60  1  0.46307192  0.51025243  0.70069615  1.0
  C  C61  1  0.51118608  0.49173546  0.28550044  1.0
  C  C62  1  0.40487397  0.53821997  0.96667970  1.0
  C  C63  1  0.50111253  0.43550697  0.02279663  1.0
  C  C64  1  0.41094193  0.53161255  0.03795745  1.0
  C  C65  1  0.49502490  0.44212008  0.95158546  1.0
  C  C66  1  0.46031021  0.48121569  0.06725581  1.0
  C  C67  1  0.47698915  0.50895138  0.62437315  1.0
  C  C68  1  0.44823012  0.49474259  0.92223351  1.0
  C  C69  1  0.48407130  0.72779756  0.54013091  1.0
  C  C70  1  0.53336417  0.28353529  0.44130564  1.0
  C  C71  1  0.65854924  0.49601036  0.52682990  1.0
  C  C72  1  0.36488871  0.51946455  0.47450565  1.0
  C  C73  1  0.47637907  0.80329854  0.54179970  1.0
  C  C74  1  0.54012619  0.20792740  0.44042631  1.0
  C  C75  1  0.52102807  0.84786209  0.49684764  1.0
  C  C76  1  0.50297158  0.16551180  0.49157700  1.0
  C  C77  1  0.57271909  0.81307923  0.45246277  1.0
  C  C78  1  0.43803707  0.44484252  0.73299821  1.0
  C  C79  1  0.45986959  0.20205023  0.54166783  1.0
  C  C80  1  0.57698425  0.73721313  0.45389459  1.0
  C  C81  1  0.45682527  0.27803278  0.53967211  1.0
  C  C82  1  0.58241538  0.97425616  0.48370528  1.0
  C  C83  1  0.44087731  0.03933102  0.50541386  1.0
  C  C84  1  0.57759055  0.04979999  0.48186788  1.0
  C  C85  1  0.44555564  0.96366812  0.50667367  1.0
  C  C86  1  0.50755927  0.08493741  0.49269112  1.0
  C  C87  1  0.51565922  0.92836671  0.49609978  1.0
  C  C88  1  0.74302670  0.48895310  0.54569423  1.0
  C  C89  1  0.52074574  0.55326350  0.24326480  1.0
  C  C90  1  0.27783041  0.52045939  0.48243285  1.0
  C  C91  1  0.78612634  0.42789136  0.52613640  1.0
  C  C92  1  0.22857018  0.53833150  0.42772927  1.0
  C  C93  1  0.86789617  0.43076413  0.53800442  1.0
  C  C94  1  0.14689380  0.53455863  0.43791955  1.0
  C  C95  1  0.90487878  0.49370307  0.57046486  1.0
  C  C96  1  0.11611018  0.51399184  0.50314872  1.0
  C  C97  1  0.85922569  0.54976359  0.59593831  1.0
  C  C98  1  0.16756163  0.49744665  0.55688646  1.0
  C  C99  1  0.77949382  0.54820023  0.58233699  1.0
  C  C100  1  0.43115776  0.44127814  0.80401798  1.0
  C  C101  1  0.24767817  0.50058228  0.54678512  1.0
  C  C102  1  0.99092515  0.50542585  0.57249233  1.0
  C  C103  1  0.03172252  0.50618624  0.51317313  1.0
  C  C104  1  0.74692391  0.36311087  0.48739788  1.0
  C  C105  1  0.75134478  0.37331414  0.40901359  1.0
  C  C106  1  0.26509026  0.55812352  0.35907696  1.0
  C  C107  1  0.27077218  0.49131720  0.31028935  1.0
  C  C108  1  0.09206031  0.55503482  0.38067074  1.0
  C  C109  1  0.06085124  0.63189097  0.39140226  1.0
  C  C110  1  0.91598646  0.36522018  0.52076706  1.0
  C  C111  1  0.50333473  0.54838809  0.17338691  1.0
  C  C112  1  0.93468728  0.32192424  0.58563214  1.0
  C  C113  1  0.49495799  0.64005131  0.85643764  1.0
  C  C114  1  0.43275155  0.69782795  0.85577244  1.0
  C  C115  1  0.42175297  0.34851190  0.15732426  1.0
  C  C116  1  0.33285408  0.34758132  0.16830953  1.0
  C  C117  1  0.44869563  0.50340061  0.84632902  1.0
  C  C118  1  0.47453246  0.48187511  0.14278409  1.0
  C  C119  1  0.47176804  0.57089172  0.81581448  1.0
  N  N120  1  0.53311111  0.69532059  0.49669292  1.0
  N  N121  1  0.49305878  0.31790721  0.49048510  1.0
  O  O122  1  0.52759204  0.56504691  0.38624845  1.0
  O  O123  1  0.45631284  0.44902006  0.59261962  1.0
  O  O124  1  0.54165957  0.44261502  0.39508534  1.0
  O  O125  1  0.50924470  0.56559240  0.59726565  1.0
  O  O126  1  0.64071503  0.55857689  0.50446607  1.0
  O  O127  1  0.39199317  0.45758248  0.45871180  1.0
  O  O128  1  0.61043052  0.44114677  0.53481863  1.0
  O  O129  1  0.40486462  0.57885098  0.48694477  1.0
  F  F130  1  0.64486251  0.09124282  0.47119480  1.0
  F  F131  1  0.37779029  0.92270558  0.51650356  1.0
  F  F132  1  0.50063619  0.63788400  0.71613248  1.0
  F  F133  1  0.46696716  0.36540179  0.29299995  1.0
