# generated using pymatgen
data_CuH3C7N2
_symmetry_space_group_name_H-M   'P 1'
_cell_length_a   28.64745406
_cell_length_b   28.64874257
_cell_length_c   28.67990414
_cell_angle_alpha   90.03366192
_cell_angle_beta   89.88873760
_cell_angle_gamma   89.97719286
_symmetry_Int_Tables_number   1
_chemical_formula_structural   CuH3C7N2
_chemical_formula_sum   'Cu12 H36 C84 N24'
_cell_volume   23537.93523938
_cell_formula_units_Z   12
loop_
 _symmetry_equiv_pos_site_id
 _symmetry_equiv_pos_as_xyz
  1  'x, y, z'
loop_
 _atom_site_type_symbol
 _atom_site_label
 _atom_site_symmetry_multiplicity
 _atom_site_fract_x
 _atom_site_fract_y
 _atom_site_fract_z
 _atom_site_occupancy
  Cu  Cu0  1  0.62501481  0.33103564  0.41894345  1.0
  Cu  Cu1  1  0.67068133  0.42125285  0.37418886  1.0
  Cu  Cu2  1  0.57931904  0.37588088  0.32874608  1.0
  Cu  Cu3  1  0.37479357  0.83085279  0.08064487  1.0
  Cu  Cu4  1  0.32916913  0.92110160  0.12551324  1.0
  Cu  Cu5  1  0.42035268  0.87567806  0.17063951  1.0
  Cu  Cu6  1  0.12512091  0.16892076  0.58114396  1.0
  Cu  Cu7  1  0.17106098  0.07899361  0.62600637  1.0
  Cu  Cu8  1  0.07956326  0.12433626  0.67167377  1.0
  Cu  Cu9  1  0.87527763  0.66898283  0.91943825  1.0
  Cu  Cu10  1  0.82938973  0.57885414  0.87442595  1.0
  Cu  Cu11  1  0.92106722  0.62416222  0.82932536  1.0
  H  H12  1  0.69360610  0.31361205  0.50423060  1.0
  H  H13  1  0.75630353  0.43728363  0.44377346  1.0
  H  H14  1  0.49394062  0.30630331  0.31257201  1.0
  H  H15  1  0.55643930  0.24561247  0.43601972  1.0
  H  H16  1  0.68694835  0.50627938  0.30486448  1.0
  H  H17  1  0.56306562  0.44495382  0.24382235  1.0
  H  H18  1  0.30637421  0.81348856  0.99555234  1.0
  H  H19  1  0.24362747  0.93720642  0.05623742  1.0
  H  H20  1  0.50599244  0.80604951  0.18649610  1.0
  H  H21  1  0.44335157  0.74552475  0.06301711  1.0
  H  H22  1  0.31292414  0.00638817  0.19441921  1.0
  H  H23  1  0.43685162  0.94499987  0.25543251  1.0
  H  H24  1  0.19376919  0.18627399  0.49566758  1.0
  H  H25  1  0.25680478  0.06291529  0.55630482  1.0
  H  H26  1  0.99379201  0.19384921  0.68776330  1.0
  H  H27  1  0.05619808  0.25403111  0.56383103  1.0
  H  H28  1  0.18765012  0.99420250  0.69533429  1.0
  H  H29  1  0.06360553  0.05539674  0.75682160  1.0
  H  H30  1  0.80642284  0.68642259  0.00456659  1.0
  H  H31  1  0.74349314  0.56310430  0.94367271  1.0
  H  H32  1  0.00689260  0.69374072  0.81348254  1.0
  H  H33  1  0.94401453  0.75417988  0.93715014  1.0
  H  H34  1  0.81302193  0.49399436  0.80516939  1.0
  H  H35  1  0.93734222  0.55491359  0.74416406  1.0
  H  H36  1  0.18697140  0.93580599  0.87569925  1.0
  H  H37  1  0.06370606  0.87481976  0.81471136  1.0
  H  H38  1  0.12537285  0.81297382  0.93724435  1.0
  H  H39  1  0.81325929  0.43583875  0.62452000  1.0
  H  H40  1  0.93636782  0.37459225  0.68561610  1.0
  H  H41  1  0.87492439  0.31272113  0.56306367  1.0
  H  H42  1  0.62456950  0.68694346  0.06271933  1.0
  H  H43  1  0.56284087  0.62530137  0.18538900  1.0
  H  H44  1  0.68659637  0.56445188  0.12455543  1.0
  H  H45  1  0.31340192  0.06449634  0.37480823  1.0
  H  H46  1  0.43662385  0.12553767  0.31349838  1.0
  H  H47  1  0.37545875  0.18689529  0.43682234  1.0
  C  C48  1  0.70297344  0.34384058  0.48346621  1.0
  C  C49  1  0.74029378  0.37526565  0.48950934  1.0
  C  C50  1  0.73501173  0.40724300  0.45256737  1.0
  C  C51  1  0.51518731  0.29744589  0.34256020  1.0
  C  C52  1  0.50991850  0.26038637  0.37439745  1.0
  C  C53  1  0.54711697  0.26643166  0.40586171  1.0
  C  C54  1  0.65677451  0.48527165  0.29596027  1.0
  C  C55  1  0.62500059  0.49099344  0.25898547  1.0
  C  C56  1  0.59323018  0.45394693  0.26477730  1.0
  C  C57  1  0.29696831  0.84371580  0.01633964  1.0
  C  C58  1  0.25970955  0.87520808  0.01040317  1.0
  C  C59  1  0.26492037  0.90715884  0.04736911  1.0
  C  C60  1  0.48473049  0.79729323  0.15649792  1.0
  C  C61  1  0.49001017  0.76032429  0.12451362  1.0
  C  C62  1  0.45271016  0.76633396  0.09318836  1.0
  C  C63  1  0.34309939  0.98537498  0.20337955  1.0
  C  C64  1  0.37492671  0.99115424  0.24028643  1.0
  C  C65  1  0.40664627  0.95401523  0.23455913  1.0
  C  C66  1  0.20323442  0.15612760  0.51647644  1.0
  C  C67  1  0.24066231  0.12477588  0.51045684  1.0
  C  C68  1  0.23543112  0.09288317  0.54748261  1.0
  C  C69  1  0.01505167  0.20258677  0.65766311  1.0
  C  C70  1  0.00964514  0.23943718  0.62561248  1.0
  C  C71  1  0.04692816  0.23332195  0.59410960  1.0
  C  C72  1  0.15742908  0.01517044  0.70437369  1.0
  C  C73  1  0.12568606  0.00943290  0.74149339  1.0
  C  C74  1  0.09380079  0.04640734  0.73578471  1.0
  C  C75  1  0.79703029  0.65629264  0.98368887  1.0
  C  C76  1  0.75959333  0.62499440  0.98956040  1.0
  C  C77  1  0.76486272  0.59304591  0.95256995  1.0
  C  C78  1  0.98556642  0.70250371  0.84352433  1.0
  C  C79  1  0.99082273  0.73943832  0.87553956  1.0
  C  C80  1  0.95344687  0.73339621  0.90693510  1.0
  C  C81  1  0.84331357  0.51488863  0.79626666  1.0
  C  C82  1  0.87516654  0.50910149  0.75923266  1.0
  C  C83  1  0.90707314  0.54602918  0.76511278  1.0
  C  C84  1  0.16018793  0.87439124  0.91049878  1.0
  C  C85  1  0.16001907  0.90902414  0.87576625  1.0
  C  C86  1  0.12532571  0.90935851  0.84113802  1.0
  C  C87  1  0.09061372  0.87464070  0.84145973  1.0
  C  C88  1  0.09040773  0.83974327  0.87596477  1.0
  C  C89  1  0.12531435  0.83983832  0.91039861  1.0
  C  C90  1  0.83995135  0.37428215  0.58962729  1.0
  C  C91  1  0.84014746  0.40895813  0.62442626  1.0
  C  C92  1  0.87479916  0.40927684  0.65913000  1.0
  C  C93  1  0.90946852  0.37448020  0.65884987  1.0
  C  C94  1  0.90970839  0.33954697  0.62434448  1.0
  C  C95  1  0.87484847  0.33967987  0.58983924  1.0
  C  C96  1  0.65968147  0.62568159  0.08953165  1.0
  C  C97  1  0.62465624  0.66009713  0.08957694  1.0
  C  C98  1  0.58968534  0.66016305  0.12406613  1.0
  C  C99  1  0.58988777  0.62539295  0.15866995  1.0
  C  C100  1  0.62473393  0.59078475  0.15905134  1.0
  C  C101  1  0.65954068  0.59115325  0.12439107  1.0
  C  C102  1  0.34029516  0.12569897  0.41000626  1.0
  C  C103  1  0.34035405  0.09127547  0.37500274  1.0
  C  C104  1  0.37500431  0.09103334  0.34018639  1.0
  C  C105  1  0.40977768  0.12566722  0.34043093  1.0
  C  C106  1  0.41010344  0.16037711  0.37514589  1.0
  C  C107  1  0.37529578  0.16014928  0.40983794  1.0
  C  C108  1  0.22518473  0.87478465  0.97559168  1.0
  C  C109  1  0.19520413  0.87443240  0.94547236  1.0
  C  C110  1  0.77488066  0.37476165  0.52439203  1.0
  C  C111  1  0.80488640  0.37435298  0.55454529  1.0
  C  C112  1  0.72493423  0.62547359  0.02439425  1.0
  C  C113  1  0.69483592  0.62570396  0.05453031  1.0
  C  C114  1  0.27527591  0.12520073  0.47549320  1.0
  C  C115  1  0.30528937  0.12557310  0.44524818  1.0
  C  C116  1  0.02537721  0.77439588  0.87594032  1.0
  C  C117  1  0.05535044  0.80463912  0.87601050  1.0
  C  C118  1  0.47533543  0.22549238  0.37475468  1.0
  C  C119  1  0.44523558  0.19538426  0.37507574  1.0
  C  C120  1  0.97493532  0.27429027  0.62505271  1.0
  C  C121  1  0.94480967  0.30441179  0.62450294  1.0
  C  C122  1  0.52454911  0.72538231  0.12407199  1.0
  C  C123  1  0.55455398  0.69517223  0.12400071  1.0
  C  C124  1  0.12567269  0.97465792  0.77616979  1.0
  C  C125  1  0.12541770  0.94445993  0.80613756  1.0
  C  C126  1  0.62492555  0.52571540  0.22425020  1.0
  C  C127  1  0.62480926  0.55575955  0.19412892  1.0
  C  C128  1  0.37495009  0.02595177  0.27496084  1.0
  C  C129  1  0.37494290  0.05603937  0.30506621  1.0
  C  C130  1  0.87506723  0.47442906  0.72438141  1.0
  C  C131  1  0.87485010  0.44440832  0.69418781  1.0
  N  N132  1  0.69755258  0.39556608  0.42678023  1.0
  N  N133  1  0.67768473  0.35630928  0.44597324  1.0
  N  N134  1  0.57236552  0.30408246  0.39353798  1.0
  N  N135  1  0.55255493  0.32331563  0.35437257  1.0
  N  N136  1  0.60532447  0.42838259  0.30222232  1.0
  N  N137  1  0.64467525  0.44780547  0.32159685  1.0
  N  N138  1  0.30234652  0.89538791  0.07311028  1.0
  N  N139  1  0.32219886  0.85615533  0.05386332  1.0
  N  N140  1  0.42739910  0.80388513  0.10574353  1.0
  N  N141  1  0.44723734  0.82309767  0.14490900  1.0
  N  N142  1  0.39444951  0.92831793  0.19721678  1.0
  N  N143  1  0.35511957  0.94777917  0.17787591  1.0
  N  N144  1  0.19788216  0.10453686  0.57329885  1.0
  N  N145  1  0.17791702  0.14368494  0.55405078  1.0
  N  N146  1  0.07233841  0.19583962  0.60659052  1.0
  N  N147  1  0.05255821  0.17676603  0.64593147  1.0
  N  N148  1  0.10579927  0.07194359  0.69824511  1.0
  N  N149  1  0.14519499  0.05256367  0.67874445  1.0
  N  N150  1  0.80248381  0.60463872  0.92688540  1.0
  N  N151  1  0.82242420  0.64376496  0.94618456  1.0
  N  N152  1  0.92812927  0.69588815  0.89438774  1.0
  N  N153  1  0.94804027  0.67670221  0.85514096  1.0
  N  N154  1  0.89498195  0.57162009  0.80263472  1.0
  N  N155  1  0.85550199  0.55227498  0.82195671  1.0
