# generated using pymatgen
data_AlH18C24(N3O2)3
_symmetry_space_group_name_H-M   'P 1'
_cell_length_a   3.88339710
_cell_length_b   15.78987116
_cell_length_c   15.81809092
_cell_angle_alpha   61.00457989
_cell_angle_beta   87.52797939
_cell_angle_gamma   86.21021020
_symmetry_Int_Tables_number   1
_chemical_formula_structural   AlH18C24(N3O2)3
_chemical_formula_sum   'Al1 H18 C24 N9 O6'
_cell_volume   846.44189151
_cell_formula_units_Z   1
loop_
 _symmetry_equiv_pos_site_id
 _symmetry_equiv_pos_as_xyz
  1  'x, y, z'
loop_
 _atom_site_type_symbol
 _atom_site_label
 _atom_site_symmetry_multiplicity
 _atom_site_fract_x
 _atom_site_fract_y
 _atom_site_fract_z
 _atom_site_occupancy
  Al  Al0  1  0.96909631  0.50188093  0.00272632  1.0
  H  H1  1  0.15710218  0.38869194  0.45949142  1.0
  H  H2  1  0.72633697  0.15026670  0.45070478  1.0
  H  H3  1  0.73202603  0.39188904  0.64942381  1.0
  H  H4  1  0.28916808  0.15227775  0.89588324  1.0
  H  H5  1  0.71615328  0.95467960  0.89082891  1.0
  H  H6  1  0.23243676  0.95448588  0.65186595  1.0
  H  H7  1  0.85679057  0.27697362  0.19357446  1.0
  H  H8  1  0.95963069  0.17663888  0.30146513  1.0
  H  H9  1  0.03191154  0.52386440  0.20283489  1.0
  H  H10  1  0.91664741  0.51034812  0.31457636  1.0
  H  H11  1  0.86243267  0.52552899  0.77525377  1.0
  H  H12  1  0.94576055  0.51483685  0.67337512  1.0
  H  H13  1  0.17574457  0.27542774  0.03574555  1.0
  H  H14  1  0.10068608  0.17475724  0.02614927  1.0
  H  H15  1  0.81227594  0.69566097  0.03086592  1.0
  H  H16  1  0.91476078  0.80585270  0.01704311  1.0
  H  H17  1  0.08974090  0.69949548  0.77923736  1.0
  H  H18  1  0.00753869  0.80942897  0.67835479  1.0
  C  C19  1  0.44948774  0.65434854  0.92698266  1.0
  C  C20  1  0.45783990  0.42421448  0.15501733  1.0
  C  C21  1  0.50202294  0.42461711  0.92519668  1.0
  C  C22  1  0.49220560  0.21421494  0.71319370  1.0
  C  C23  1  0.45791150  0.21242208  0.57095510  1.0
  C  C24  1  0.47911687  0.07065723  0.71257442  1.0
  C  C25  1  0.26629816  0.40838052  0.31596627  1.0
  C  C26  1  0.28239108  0.35750301  0.41717906  1.0
  C  C27  1  0.44443765  0.26519852  0.46423210  1.0
  C  C28  1  0.60051096  0.22240813  0.41216219  1.0
  C  C29  1  0.61720395  0.27446714  0.31096090  1.0
  C  C30  1  0.44577148  0.36880182  0.26062172  1.0
  C  C31  1  0.63580067  0.36020320  0.72370304  1.0
  C  C32  1  0.65477692  0.41050226  0.77600687  1.0
  C  C33  1  0.51411718  0.36996019  0.87229325  1.0
  C  C34  1  0.37748797  0.27553139  0.91530668  1.0
  C  C35  1  0.38784018  0.22457901  0.86332029  1.0
  C  C36  1  0.50681445  0.26785161  0.76775355  1.0
  C  C37  1  0.60636840  0.91411369  0.86002667  1.0
  C  C38  1  0.61125374  0.81270689  0.91238968  1.0
  C  C39  1  0.45620950  0.75996363  0.87240907  1.0
  C  C40  1  0.31237413  0.81306823  0.77740633  1.0
  C  C41  1  0.33669400  0.91402698  0.72451673  1.0
  C  C42  1  0.47547279  0.96372525  0.76661008  1.0
  N  N43  1  0.47039991  0.26561461  0.61626164  1.0
  N  N44  1  0.46031519  0.11499197  0.61554123  1.0
  N  N45  1  0.49877312  0.11690926  0.76448164  1.0
  N  N46  1  0.78227358  0.23042820  0.26237264  1.0
  N  N47  1  0.09816288  0.49871671  0.27277620  1.0
  N  N48  1  0.78609705  0.50128069  0.73044951  1.0
  N  N49  1  0.25585284  0.23006793  0.00940251  1.0
  N  N50  1  0.74568516  0.76731970  0.00410499  1.0
  N  N51  1  0.16910886  0.76708881  0.73349760  1.0
  O  O52  1  0.26543902  0.40738754  0.99069949  1.0
  O  O53  1  0.22376268  0.60962343  0.90806796  1.0
  O  O54  1  0.21914555  0.49050303  0.10962847  1.0
  O  O55  1  0.72301948  0.48929631  0.90620696  1.0
  O  O56  1  0.70747935  0.40654092  0.10823339  1.0
  O  O57  1  0.67384965  0.60631882  0.99412310  1.0
