# generated using pymatgen
data_AlH10C17(SO6)2
_symmetry_space_group_name_H-M   'P 1'
_cell_length_a   6.75390078
_cell_length_b   22.17359680
_cell_length_c   26.97829800
_cell_angle_alpha   102.18606000
_cell_angle_beta   92.63337949
_cell_angle_gamma   92.37763171
_symmetry_Int_Tables_number   1
_chemical_formula_structural   AlH10C17(SO6)2
_chemical_formula_sum   'Al4 H40 C68 S8 O48'
_cell_volume   3939.59190401
_cell_formula_units_Z   4
loop_
 _symmetry_equiv_pos_site_id
 _symmetry_equiv_pos_as_xyz
  1  'x, y, z'
loop_
 _atom_site_type_symbol
 _atom_site_label
 _atom_site_symmetry_multiplicity
 _atom_site_fract_x
 _atom_site_fract_y
 _atom_site_fract_z
 _atom_site_occupancy
  Al  Al0  1  0.18914290  0.24618717  0.74655614  1.0
  Al  Al1  1  0.81142884  0.75201501  0.25202481  1.0
  Al  Al2  1  0.68888018  0.24525749  0.74487282  1.0
  Al  Al3  1  0.31161606  0.75306147  0.25361998  1.0
  H  H4  1  0.75613984  0.67105711  0.37007644  1.0
  H  H5  1  0.24486423  0.32874553  0.62938970  1.0
  H  H6  1  0.23820969  0.83198617  0.12977102  1.0
  H  H7  1  0.76244253  0.16755380  0.86932772  1.0
  H  H8  1  0.75028918  0.60887101  0.43737142  1.0
  H  H9  1  0.25046163  0.39125904  0.56231509  1.0
  H  H10  1  0.23443921  0.89333462  0.06222054  1.0
  H  H11  1  0.76673690  0.10686297  0.93728200  1.0
  H  H12  1  0.36446781  0.62818495  0.34708410  1.0
  H  H13  1  0.63633178  0.37130220  0.65244159  1.0
  H  H14  1  0.86330561  0.87724722  0.15927089  1.0
  H  H15  1  0.13774483  0.12158921  0.83979323  1.0
  H  H16  1  0.31437124  0.56374109  0.50379703  1.0
  H  H17  1  0.68614764  0.43641797  0.49609114  1.0
  H  H18  1  0.73493772  0.03475135  0.07505479  1.0
  H  H19  1  0.26725685  0.96502631  0.92440336  1.0
  H  H20  1  0.26741566  0.49848993  0.56562140  1.0
  H  H21  1  0.73315344  0.50165468  0.43427809  1.0
  H  H22  1  0.68684765  0.10136869  0.01411654  1.0
  H  H23  1  0.31559110  0.89836366  0.98530925  1.0
  H  H24  1  0.65747931  0.48647036  0.96389780  1.0
  H  H25  1  0.34808506  0.51466911  0.03305680  1.0
  H  H26  1  0.28132188  0.95722997  0.55364645  1.0
  H  H27  1  0.72045691  0.04329195  0.44385324  1.0
  H  H28  1  0.48974108  0.56298280  0.39141627  1.0
  H  H29  1  0.51075194  0.43663822  0.60829197  1.0
  H  H30  1  0.00270819  0.93695750  0.11166979  1.0
  H  H31  1  0.99853665  0.06262519  0.88801311  1.0
  H  H32  1  0.61683184  0.59699211  0.92925560  1.0
  H  H33  1  0.07517848  0.41842966  0.10277288  1.0
  H  H34  1  0.76243595  0.98019040  0.62098759  1.0
  H  H35  1  0.23913714  0.02062653  0.37634394  1.0
  H  H36  1  0.12952593  0.60440287  0.90229112  1.0
  H  H37  1  0.53848555  0.39135814  0.03877299  1.0
  H  H38  1  0.74652980  0.10678293  0.63617993  1.0
  H  H39  1  0.25506821  0.89306145  0.36141499  1.0
  H  H40  1  0.45805478  0.32572036  0.76946187  1.0
  H  H41  1  0.54221573  0.67276471  0.22891307  1.0
  H  H42  1  0.93154627  0.17257176  0.75931253  1.0
  H  H43  1  0.06870094  0.82543698  0.23873472  1.0
  C  C44  1  0.40709400  0.17067028  0.66724808  1.0
  C  C45  1  0.59354773  0.82847192  0.33089202  1.0
  C  C46  1  0.96425934  0.32444161  0.82322243  1.0
  C  C47  1  0.03615245  0.67349520  0.17550727  1.0
  C  C48  1  0.44610099  0.18070154  0.80731172  1.0
  C  C49  1  0.55494708  0.81761657  0.19122554  1.0
  C  C50  1  0.93461907  0.31050147  0.68539972  1.0
  C  C51  1  0.06604581  0.68867967  0.31378642  1.0
  C  C52  1  0.88493477  0.64639206  0.37885185  1.0
  C  C53  1  0.11601849  0.35343609  0.62071918  1.0
  C  C54  1  0.37294359  0.85613358  0.12181432  1.0
  C  C55  1  0.62799725  0.14332775  0.87732241  1.0
  C  C56  1  0.88166780  0.61094153  0.41558042  1.0
  C  C57  1  0.11914483  0.38907383  0.58411285  1.0
  C  C58  1  0.37210263  0.89027540  0.08415966  1.0
  C  C59  1  0.62908690  0.10952794  0.91520263  1.0
  C  C60  1  0.04609728  0.57859123  0.42759527  1.0
  C  C61  1  0.95466438  0.42147110  0.57221147  1.0
  C  C62  1  0.54298058  0.92269740  0.07336463  1.0
  C  C63  1  0.45857038  0.07699808  0.92607122  1.0
  C  C64  1  0.22182414  0.58587391  0.40236616  1.0
  C  C65  1  0.77890312  0.41401726  0.59740513  1.0
  C  C66  1  0.72193317  0.91678441  0.10103881  1.0
  C  C67  1  0.27944112  0.08270946  0.89839596  1.0
  C  C68  1  0.22836524  0.62283404  0.36647378  1.0
  C  C69  1  0.77248893  0.37683419  0.63313383  1.0
  C  C70  1  0.72450794  0.88166802  0.13827273  1.0
  C  C71  1  0.27657102  0.11744656  0.86088977  1.0
  C  C72  1  0.05985684  0.65213986  0.35379199  1.0
  C  C73  1  0.94106608  0.34747898  0.64570458  1.0
  C  C74  1  0.55065556  0.85225925  0.14970625  1.0
  C  C75  1  0.45029383  0.14672695  0.84922563  1.0
  C  C76  1  0.17700657  0.53561726  0.50157140  1.0
  C  C77  1  0.82348363  0.46459145  0.49835756  1.0
  C  C78  1  0.63306030  0.01898066  0.04197773  1.0
  C  C79  1  0.36918509  0.98075494  0.95746493  1.0
  C  C80  1  0.14995768  0.49841374  0.53648390  1.0
  C  C81  1  0.85054261  0.50179227  0.46344096  1.0
  C  C82  1  0.60611760  0.05650246  0.00723343  1.0
  C  C83  1  0.39632664  0.94323003  0.99218146  1.0
  C  C84  1  0.97347884  0.46200407  0.53560522  1.0
  C  C85  1  0.02701525  0.53817210  0.46431013  1.0
  C  C86  1  0.47434199  0.03828871  0.96419160  1.0
  C  C87  1  0.52784101  0.96146267  0.03526648  1.0
  C  C88  1  0.81027652  0.49320868  0.97971933  1.0
  C  C89  1  0.19499359  0.50820106  0.01735202  1.0
  C  C90  1  0.38033679  0.97630311  0.52938193  1.0
  C  C91  1  0.62152116  0.02417338  0.46810970  1.0
  C  C92  1  0.94574251  0.55414780  0.98644023  1.0
  C  C93  1  0.06248831  0.44760253  0.01047854  1.0
  C  C94  1  0.60132281  0.95992283  0.52123403  1.0
  C  C95  1  0.40044908  0.04056201  0.47628250  1.0
  C  C96  1  0.03067574  0.62997591  0.12722187  1.0
  C  C97  1  0.96985574  0.36855609  0.87120977  1.0
  C  C98  1  0.60719888  0.86900168  0.38002465  1.0
  C  C99  1  0.39401583  0.13092504  0.61778157  1.0
  C  C100  1  0.88435855  0.48532943  0.03355036  1.0
  C  C101  1  0.12117005  0.51506242  0.96331980  1.0
  C  C102  1  0.34102250  0.97007352  0.47113631  1.0
  C  C103  1  0.66067761  0.03040200  0.52634002  1.0
  C  C104  1  0.02079604  0.54726430  0.04168884  1.0
  C  C105  1  0.98461167  0.45367977  0.95534664  1.0
  C  C106  1  0.56259323  0.95314917  0.46174318  1.0
  C  C107  1  0.43921053  0.04733539  0.53575592  1.0
  C  C108  1  0.03124655  0.59328895  0.08687081  1.0
  C  C109  1  0.97119789  0.40672848  0.91078341  1.0
  C  C110  1  0.60461514  0.90619476  0.42001437  1.0
  C  C111  1  0.39705579  0.09417484  0.57755215  1.0
  S  S112  1  0.88825361  0.62706744  0.97211336  1.0
  S  S113  1  0.15427846  0.37980840  0.02565755  1.0
  S  S114  1  0.71529058  0.90730206  0.55384553  1.0
  S  S115  1  0.28701209  0.09326204  0.44365691  1.0
  S  S116  1  0.28968180  0.53184088  0.91936760  1.0
  S  S117  1  0.74516278  0.46583501  0.08251315  1.0
  S  S118  1  0.86338594  0.07474711  0.56179989  1.0
  S  S119  1  0.13825924  0.92579602  0.43567255  1.0
  O  O120  1  0.61400370  0.19669060  0.79272476  1.0
  O  O121  1  0.38701574  0.80161162  0.20578289  1.0
  O  O122  1  0.10074599  0.29977619  0.70543827  1.0
  O  O123  1  0.89963875  0.69928400  0.29384464  1.0
  O  O124  1  0.24714514  0.19012307  0.68568387  1.0
  O  O125  1  0.75331236  0.80877229  0.31253616  1.0
  O  O126  1  0.79251995  0.31041019  0.80153835  1.0
  O  O127  1  0.20805648  0.68781177  0.19702704  1.0
  O  O128  1  0.27637944  0.19067657  0.78841309  1.0
  O  O129  1  0.72467499  0.80716329  0.20979867  1.0
  O  O130  1  0.76472447  0.29277709  0.69768507  1.0
  O  O131  1  0.23570195  0.70608529  0.30117612  1.0
  O  O132  1  0.13025565  0.30521234  0.80802964  1.0
  O  O133  1  0.87007182  0.69226969  0.19108990  1.0
  O  O134  1  0.58307763  0.18106967  0.68830652  1.0
  O  O135  1  0.41736283  0.81767068  0.31002815  1.0
  O  O136  1  0.44556248  0.28306659  0.75101339  1.0
  O  O137  1  0.55483113  0.71524784  0.24776065  1.0
  O  O138  1  0.93363743  0.20772871  0.74315658  1.0
  O  O139  1  0.06689671  0.79054060  0.25519687  1.0
  O  O140  1  0.38420584  0.55457491  0.41291766  1.0
  O  O141  1  0.61648626  0.44535390  0.58696526  1.0
  O  O142  1  0.89268396  0.94565723  0.08996859  1.0
  O  O143  1  0.10878575  0.05400681  0.90968600  1.0
  O  O144  1  0.78097735  0.66015122  0.01278754  1.0
  O  O145  1  0.07205944  0.65359807  0.95791929  1.0
  O  O146  1  0.75941529  0.60781757  0.92105718  1.0
  O  O147  1  0.01202577  0.32913641  0.00986323  1.0
  O  O148  1  0.35130532  0.37453133  0.00546219  1.0
  O  O149  1  0.19473167  0.39960687  0.08476410  1.0
  O  O150  1  0.59110652  0.85178228  0.54396050  1.0
  O  O151  1  0.92446570  0.90703659  0.54675613  1.0
  O  O152  1  0.67698383  0.94181154  0.61116869  1.0
  O  O153  1  0.07773555  0.09371575  0.45059944  1.0
  O  O154  1  0.41167863  0.14868565  0.45366193  1.0
  O  O155  1  0.32557437  0.05875970  0.38633922  1.0
  O  O156  1  0.42885557  0.57816341  0.95067920  1.0
  O  O157  1  0.36350635  0.47609027  0.89119289  1.0
  O  O158  1  0.16648688  0.56292799  0.88186937  1.0
  O  O159  1  0.89225802  0.46279780  0.12290977  1.0
  O  O160  1  0.58660078  0.50711601  0.09245672  1.0
  O  O161  1  0.67169691  0.39790635  0.06019861  1.0
  O  O162  1  0.03539359  0.03988535  0.55121324  1.0
  O  O163  1  0.85090683  0.13761118  0.55718327  1.0
  O  O164  1  0.81690096  0.07017369  0.61952048  1.0
  O  O165  1  0.14988986  0.86302347  0.44060487  1.0
  O  O166  1  0.96659853  0.96091076  0.44602157  1.0
  O  O167  1  0.18527602  0.92991688  0.37789817  1.0
