# generated using pymatgen
data_Mg2H48C55O6
_symmetry_space_group_name_H-M   'P 1'
_cell_length_a   6.91102825
_cell_length_b   53.88989576
_cell_length_c   53.88930241
_cell_angle_alpha   119.81790941
_cell_angle_beta   92.45045699
_cell_angle_gamma   92.45269458
_symmetry_Int_Tables_number   1
_chemical_formula_structural   Mg2H48C55O6
_chemical_formula_sum   'Mg6 H144 C165 O18'
_cell_volume   17349.65429283
_cell_formula_units_Z   3
loop_
 _symmetry_equiv_pos_site_id
 _symmetry_equiv_pos_as_xyz
  1  'x, y, z'
loop_
 _atom_site_type_symbol
 _atom_site_label
 _atom_site_symmetry_multiplicity
 _atom_site_fract_x
 _atom_site_fract_y
 _atom_site_fract_z
 _atom_site_occupancy
  Mg  Mg0  1  0.19903431  0.64563410  0.31614168  1.0
  Mg  Mg1  1  0.55352485  0.67050259  0.35437591  1.0
  Mg  Mg2  1  0.88308960  0.68387035  0.32949806  1.0
  Mg  Mg3  1  0.98454094  0.35514463  0.68249646  1.0
  Mg  Mg4  1  0.62944930  0.32733837  0.64485272  1.0
  Mg  Mg5  1  0.30209806  0.31750929  0.67265563  1.0
  H  H6  1  0.67106057  0.37976575  0.62275178  1.0
  H  H7  1  0.29113130  0.24299912  0.62027894  1.0
  H  H8  1  0.04821513  0.37727054  0.75700191  1.0
  H  H9  1  0.66963062  0.40389798  0.52888200  1.0
  H  H10  1  0.26556568  0.12498043  0.59609212  1.0
  H  H11  1  0.14093022  0.47110538  0.87503558  1.0
  H  H12  1  0.22398451  0.44539393  0.50244958  1.0
  H  H13  1  0.77856947  0.05705350  0.55461900  1.0
  H  H14  1  0.72152467  0.49753226  0.94291556  1.0
  H  H15  1  0.29006186  0.54952784  0.50314444  1.0
  H  H16  1  0.74025330  0.95364908  0.45048109  1.0
  H  H17  1  0.78673652  0.49683218  0.04635110  1.0
  H  H18  1  0.78488439  0.59633424  0.48437433  1.0
  H  H19  1  0.18866251  0.88802403  0.40362471  1.0
  H  H20  1  0.30083594  0.51559597  0.11197797  1.0
  H  H21  1  0.88100444  0.49324134  0.43863836  1.0
  H  H22  1  0.38766958  0.94540348  0.50672905  1.0
  H  H23  1  0.44204930  0.56131150  0.05458312  1.0
  H  H24  1  0.53585331  0.51062309  0.39753050  1.0
  H  H25  1  0.02520815  0.88691706  0.48935535  1.0
  H  H26  1  0.13835661  0.60245391  0.11308495  1.0
  H  H27  1  0.65182575  0.48311232  0.40035001  1.0
  H  H28  1  0.16874555  0.91725362  0.51685153  1.0
  H  H29  1  0.25156361  0.59961275  0.08275014  1.0
  H  H30  1  0.77321958  0.50264242  0.38646104  1.0
  H  H31  1  0.27054095  0.88382994  0.49734757  1.0
  H  H32  1  0.38684315  0.61350893  0.11617031  1.0
  H  H33  1  0.24396330  0.61051449  0.44166172  1.0
  H  H34  1  0.63323714  0.83118360  0.38948072  1.0
  H  H35  1  0.80193739  0.55829948  0.16881151  1.0
  H  H36  1  0.77641167  0.55029859  0.39436556  1.0
  H  H37  1  0.22596147  0.84407892  0.44968792  1.0
  H  H38  1  0.38197926  0.60562418  0.15597739  1.0
  H  H39  1  0.47706883  0.56480932  0.34647608  1.0
  H  H40  1  0.91200992  0.78170352  0.43518835  1.0
  H  H41  1  0.13038446  0.65349907  0.21832908  1.0
  H  H42  1  0.66520223  0.54499367  0.35010888  1.0
  H  H43  1  0.11994102  0.80515975  0.45500337  1.0
  H  H44  1  0.31483544  0.64984620  0.19487177  1.0
  H  H45  1  0.71537712  0.58104765  0.35925311  1.0
  H  H46  1  0.13414097  0.77822643  0.41896399  1.0
  H  H47  1  0.35592542  0.64073135  0.22179795  1.0
  H  H48  1  0.51818952  0.61670035  0.37120063  1.0
  H  H49  1  0.90168295  0.75452444  0.38330585  1.0
  H  H50  1  0.14665721  0.62878088  0.24548001  1.0
  H  H51  1  0.83120714  0.62961619  0.39417191  1.0
  H  H52  1  0.20165284  0.76450474  0.37037878  1.0
  H  H53  1  0.43673064  0.60585817  0.23549404  1.0
  H  H54  1  0.02352765  0.60163000  0.40985518  1.0
  H  H55  1  0.42184988  0.80819705  0.39836458  1.0
  H  H56  1  0.61315749  0.59016253  0.19179299  1.0
  H  H57  1  0.41374540  0.57046838  0.47570238  1.0
  H  H58  1  0.84317627  0.90526965  0.42953982  1.0
  H  H59  1  0.93792163  0.52431643  0.09474855  1.0
  H  H60  1  0.22724254  0.59075629  0.47269991  1.0
  H  H61  1  0.63634932  0.88197538  0.40925993  1.0
  H  H62  1  0.75439237  0.52731648  0.11803588  1.0
  H  H63  1  0.45327495  0.60811166  0.49166805  1.0
  H  H64  1  0.84497136  0.88358555  0.39189500  1.0
  H  H65  1  0.96130616  0.50831249  0.11639427  1.0
  H  H66  1  0.96656574  0.57509370  0.53483175  1.0
  H  H67  1  0.39140792  0.95975558  0.42491100  1.0
  H  H68  1  0.43176200  0.46514019  0.04026151  1.0
  H  H69  1  0.88898497  0.60350004  0.52973806  1.0
  H  H70  1  0.28548736  0.92625903  0.39647868  1.0
  H  H71  1  0.35933906  0.47022952  0.07376429  1.0
  H  H72  1  0.12879439  0.59276564  0.52323677  1.0
  H  H73  1  0.53602944  0.93050664  0.40721816  1.0
  H  H74  1  0.60564896  0.47672313  0.06951658  1.0
  H  H75  1  0.97461242  0.47322523  0.51529538  1.0
  H  H76  1  0.50121546  0.04208455  0.52681380  1.0
  H  H77  1  0.45934621  0.48471176  0.95790732  1.0
  H  H78  1  0.65058123  0.49797544  0.47819531  1.0
  H  H79  1  0.15237881  0.98024205  0.50203934  1.0
  H  H80  1  0.17237544  0.52177623  0.01973956  1.0
  H  H81  1  0.67538713  0.47609519  0.49412686  1.0
  H  H82  1  0.19909577  0.01805991  0.52391653  1.0
  H  H83  1  0.18124847  0.50584834  0.98192701  1.0
  H  H84  1  0.76296156  0.46539507  0.46013217  1.0
  H  H85  1  0.29739999  0.99476795  0.53462134  1.0
  H  H86  1  0.30277849  0.53984886  0.00522608  1.0
  H  H87  1  0.61954078  0.52157592  0.53683567  1.0
  H  H88  1  0.09763218  0.01529861  0.47846700  1.0
  H  H89  1  0.08265889  0.46316321  0.98474063  1.0
  H  H90  1  0.52870750  0.55600465  0.55413141  1.0
  H  H91  1  0.97254328  0.99816291  0.44402496  1.0
  H  H92  1  0.97445470  0.44586406  0.00186718  1.0
  H  H93  1  0.59855078  0.54136838  0.51866983  1.0
  H  H94  1  0.05694722  0.97734286  0.45867376  1.0
  H  H95  1  0.07968827  0.48133143  0.02269574  1.0
  H  H96  1  0.59960091  0.49182831  0.59567819  1.0
  H  H97  1  0.10770360  0.10388155  0.50820958  1.0
  H  H98  1  0.00425111  0.40433414  0.89614357  1.0
  H  H99  1  0.32984526  0.54134078  0.58065142  1.0
  H  H100  1  0.78857101  0.03932659  0.45867857  1.0
  H  H101  1  0.74940000  0.41935603  0.96067829  1.0
  H  H102  1  0.58252545  0.54155068  0.58820767  1.0
  H  H103  1  0.04108482  0.04667444  0.45847787  1.0
  H  H104  1  0.99453961  0.41178842  0.95333986  1.0
  H  H105  1  0.41421568  0.53493139  0.60843979  1.0
  H  H106  1  0.87938814  0.07352134  0.46508839  1.0
  H  H107  1  0.80596755  0.39156565  0.92648567  1.0
  H  H108  1  0.31955875  0.39599772  0.52867066  1.0
  H  H109  1  0.92365298  0.13266618  0.60402945  1.0
  H  H110  1  0.79101107  0.47134283  0.86731914  1.0
  H  H111  1  0.41542418  0.39486364  0.49824667  1.0
  H  H112  1  0.02072719  0.10337403  0.60514669  1.0
  H  H113  1  0.91735138  0.50175523  0.89661411  1.0
  H  H114  1  0.17179827  0.40302705  0.50532315  1.0
  H  H115  1  0.76888004  0.10229015  0.59700899  1.0
  H  H116  1  0.66666667  0.49467872  0.89769951  1.0
  H  H117  1  0.70918053  0.43033880  0.63045484  1.0
  H  H118  1  0.27863186  0.20012757  0.56967879  1.0
  H  H119  1  0.07843532  0.36955212  0.79985737  1.0
  H  H120  1  0.35728753  0.46930566  0.61303414  1.0
  H  H121  1  0.88800688  0.14375880  0.53063265  1.0
  H  H122  1  0.74429268  0.38692622  0.85625450  1.0
  H  H123  1  0.57839345  0.48580978  0.63386888  1.0
  H  H124  1  0.09297185  0.14808069  0.51418648  1.0
  H  H125  1  0.94461946  0.36610870  0.85193558  1.0
  H  H126  1  0.44517821  0.45984188  0.63854761  1.0
  H  H127  1  0.98558537  0.17873057  0.54012592  1.0
  H  H128  1  0.80671520  0.36142422  0.82128279  1.0
  H  H129  1  0.88404767  0.35001297  0.54366291  1.0
  H  H130  1  0.53385441  0.19366035  0.64998697  1.0
  H  H131  1  0.34032599  0.45634126  0.80634847  1.0
  H  H132  1  0.93930045  0.36664819  0.52312802  1.0
  H  H133  1  0.57256308  0.15649567  0.63336610  1.0
  H  H134  1  0.41616434  0.47688859  0.84351689  1.0
  H  H135  1  0.70201771  0.35137574  0.52021688  1.0
  H  H136  1  0.35054447  0.16884975  0.64863937  1.0
  H  H137  1  0.18173443  0.47978213  0.83116079  1.0
  H  H138  1  0.35431088  0.36209604  0.60034606  1.0
  H  H139  1  0.99200116  0.23822559  0.63789900  1.0
  H  H140  1  0.75392036  0.39963435  0.76177221  1.0
  H  H141  1  0.14578257  0.40952551  0.57721822  1.0
  H  H142  1  0.73618433  0.16768539  0.59043766  1.0
  H  H143  1  0.56848925  0.42277362  0.83232262  1.0
  H  H144  1  0.19880769  0.37393385  0.55301652  1.0
  H  H145  1  0.82484691  0.17905645  0.62602599  1.0
  H  H146  1  0.64577309  0.44698165  0.82094063  1.0
  H  H147  1  0.35993918  0.39563350  0.58333768  1.0
  H  H148  1  0.96416123  0.18772250  0.60434928  1.0
  H  H149  1  0.77651740  0.41665231  0.81230314  1.0
  C  C150  1  0.92737623  0.36286108  0.63039690  1.0
  C  C151  1  0.56442378  0.26753696  0.63717507  1.0
  C  C152  1  0.29694725  0.36960937  0.73246596  1.0
  C  C153  1  0.82203773  0.37605253  0.61771561  1.0
  C  C154  1  0.44581682  0.24167092  0.62399087  1.0
  C  C155  1  0.20423891  0.38230127  0.75833067  1.0
  C  C156  1  0.90336086  0.38453450  0.59947002  1.0
  C  C157  1  0.51860159  0.21493686  0.61548686  1.0
  C  C158  1  0.30376986  0.40054544  0.78506372  1.0
  C  C159  1  0.78754356  0.39998164  0.58838178  1.0
  C  C160  1  0.38729245  0.18840551  0.60003203  1.0
  C  C161  1  0.19903068  0.41162493  0.81159587  1.0
  C  C162  1  0.76714526  0.39158567  0.55901293  1.0
  C  C163  1  0.37535783  0.16743257  0.60842542  1.0
  C  C164  1  0.20818841  0.44099181  0.83257592  1.0
  C  C165  1  0.67567640  0.40966845  0.55138571  1.0
  C  C166  1  0.26572593  0.14172446  0.59033749  1.0
  C  C167  1  0.12442417  0.44860585  0.85829240  1.0
  C  C168  1  0.58905223  0.43444966  0.57078760  1.0
  C  C169  1  0.15424458  0.13636083  0.56556995  1.0
  C  C170  1  0.01835320  0.42920028  0.86365534  1.0
  C  C171  1  0.49237421  0.45133144  0.55960019  1.0
  C  C172  1  0.04073857  0.10829207  0.54869033  1.0
  C  C173  1  0.93290815  0.44039862  0.89172437  1.0
  C  C174  1  0.37735207  0.43807418  0.53317295  1.0
  C  C175  1  0.93915931  0.09510806  0.56194863  1.0
  C  C176  1  0.84429424  0.46681945  0.90488357  1.0
  C  C177  1  0.30642339  0.45565587  0.52328684  1.0
  C  C178  1  0.85067493  0.06763841  0.54436144  1.0
  C  C179  1  0.78318123  0.47669876  0.93234631  1.0
  C  C180  1  0.32965692  0.48580672  0.53869341  1.0
  C  C181  1  0.84369280  0.05290741  0.51421154  1.0
  C  C182  1  0.79101493  0.46129617  0.94709150  1.0
  C  C183  1  0.23440744  0.50074676  0.52512485  1.0
  C  C184  1  0.73339696  0.02440435  0.49927283  1.0
  C  C185  1  0.70923959  0.47486076  0.97559375  1.0
  C  C186  1  0.32489300  0.52290384  0.52185624  1.0
  C  C187  1  0.80166719  0.99898010  0.47710732  1.0
  C  C188  1  0.80290542  0.47812842  0.00102334  1.0
  C  C189  1  0.21966023  0.53274535  0.50610635  1.0
  C  C190  1  0.68659387  0.97339221  0.46725867  1.0
  C  C191  1  0.71336543  0.49386747  0.02660881  1.0
  C  C192  1  0.03262673  0.52162783  0.49301599  1.0
  C  C193  1  0.51066989  0.97140778  0.47836711  1.0
  C  C194  1  0.53941418  0.50695556  0.02858749  1.0
  C  C195  1  0.93377280  0.53403328  0.47717838  1.0
  C  C196  1  0.39964337  0.94314833  0.46594078  1.0
  C  C197  1  0.45648437  0.52278126  0.05684029  1.0
  C  C198  1  0.90757976  0.56370418  0.49040754  1.0
  C  C199  1  0.34395604  0.92669624  0.43626216  1.0
  C  C200  1  0.41731554  0.50956108  0.07330067  1.0
  C  C201  1  0.80719392  0.57349189  0.47428920  1.0
  C  C202  1  0.23388590  0.90078024  0.42646641  1.0
  C  C203  1  0.33320442  0.52568683  0.09922259  1.0
  C  C204  1  0.72939172  0.55546444  0.44601367  1.0
  C  C205  1  0.17407384  0.89053824  0.44449642  1.0
  C  C206  1  0.28360432  0.55396106  0.10947243  1.0
  C  C207  1  0.75720264  0.52586883  0.43269669  1.0
  C  C208  1  0.23140863  0.90681812  0.47409551  1.0
  C  C209  1  0.32448368  0.56726854  0.09317565  1.0
  C  C210  1  0.85972580  0.51610622  0.44871234  1.0
  C  C211  1  0.34359266  0.93260266  0.48386183  1.0
  C  C212  1  0.41080665  0.55124488  0.06738291  1.0
  C  C213  1  0.67475370  0.50450750  0.40274471  1.0
  C  C214  1  0.17024590  0.89824142  0.49546503  1.0
  C  C215  1  0.27204803  0.59722332  0.10175619  1.0
  C  C216  1  0.61444895  0.56815122  0.43183246  1.0
  C  C217  1  0.04626428  0.86368948  0.43182195  1.0
  C  C218  1  0.18270877  0.56813595  0.13633608  1.0
  C  C219  1  0.45768278  0.58476682  0.44509367  1.0
  C  C220  1  0.87277076  0.86035454  0.41523380  1.0
  C  C221  1  0.01250879  0.55488465  0.13966719  1.0
  C  C222  1  0.36155443  0.59705113  0.43109304  1.0
  C  C223  1  0.76431775  0.83407076  0.40294078  1.0
  C  C224  1  0.93017100  0.56888072  0.16593958  1.0
  C  C225  1  0.40616238  0.59295160  0.40414757  1.0
  C  C226  1  0.81312589  0.81120867  0.40701142  1.0
  C  C227  1  0.00165042  0.59582163  0.18879856  1.0
  C  C228  1  0.55619875  0.57499320  0.39013322  1.0
  C  C229  1  0.98108409  0.81515412  0.42497605  1.0
  C  C230  1  0.16581732  0.60983062  0.18487021  1.0
  C  C231  1  0.65794496  0.56367037  0.40478442  1.0
  C  C232  1  0.09417827  0.84112506  0.43630550  1.0
  C  C233  1  0.25310385  0.59518727  0.15891089  1.0
  C  C234  1  0.60511847  0.56609462  0.35994111  1.0
  C  C235  1  0.03881306  0.79387375  0.43389737  1.0
  C  C236  1  0.24493925  0.64002821  0.20615468  1.0
  C  C237  1  0.28805737  0.60723805  0.39207342  1.0
  C  C238  1  0.68086947  0.78483280  0.39273244  1.0
  C  C239  1  0.89558701  0.60790950  0.21516160  1.0
  C  C240  1  0.36589477  0.61830173  0.37573428  1.0
  C  C241  1  0.74777596  0.75743775  0.38168814  1.0
  C  C242  1  0.98984282  0.62424789  0.24255951  1.0
  C  C243  1  0.25443836  0.63236344  0.36462263  1.0
  C  C244  1  0.62232828  0.73225176  0.36763652  1.0
  C  C245  1  0.88966892  0.63537439  0.26774635  1.0
  C  C246  1  0.05758282  0.63694782  0.37209523  1.0
  C  C247  1  0.42084460  0.73512692  0.36304731  1.0
  C  C248  1  0.68531556  0.62790799  0.26487164  1.0
  C  C249  1  0.98134792  0.62591820  0.38877815  1.0
  C  C250  1  0.35554288  0.76282867  0.37407813  1.0
  C  C251  1  0.59228655  0.61123075  0.23716687  1.0
  C  C252  1  0.09055129  0.61085863  0.39806207  1.0
  C  C253  1  0.47970887  0.78718080  0.38913099  1.0
  C  C254  1  0.69205866  0.60194437  0.21281098  1.0
  C  C255  1  0.93003904  0.65293315  0.36353523  1.0
  C  C256  1  0.27731958  0.71058556  0.34705478  1.0
  C  C257  1  0.56649044  0.63648184  0.28942794  1.0
  C  C258  1  0.38468929  0.58872811  0.47274694  1.0
  C  C259  1  0.79582977  0.88405336  0.41128292  1.0
  C  C260  1  0.91179219  0.52724982  0.11595536  1.0
  C  C261  1  0.97622388  0.58478427  0.52114600  1.0
  C  C262  1  0.39143305  0.93637696  0.41519673  1.0
  C  C263  1  0.45516159  0.47882130  0.06363681  1.0
  C  C264  1  0.94336116  0.49904565  0.49570859  1.0
  C  C265  1  0.44404675  0.99668146  0.50096432  1.0
  C  C266  1  0.44759794  0.50427842  0.00330957  1.0
  C  C267  1  0.04547087  0.48991018  0.51223109  1.0
  C  C268  1  0.55533525  0.02234120  0.51011567  1.0
  C  C269  1  0.53322232  0.48776526  0.97765219  1.0
  C  C270  1  0.74747398  0.48409839  0.48143067  1.0
  C  C271  1  0.26313899  0.99735678  0.51591628  1.0
  C  C272  1  0.26600108  0.51854992  0.00262957  1.0
  C  C273  1  0.52858626  0.53595935  0.53346112  1.0
  C  C274  1  0.99235200  0.99753552  0.46407140  1.0
  C  C275  1  0.99500855  0.46653478  0.00249072  1.0
  C  C276  1  0.43045916  0.49906477  0.56606586  1.0
  C  C277  1  0.93132473  0.06701674  0.50095641  1.0
  C  C278  1  0.86463489  0.43393678  0.93299456  1.0
  C  C279  1  0.51441934  0.48142009  0.57508639  1.0
  C  C280  1  0.03283735  0.09369252  0.51860688  1.0
  C  C281  1  0.93959436  0.42491967  0.90633009  1.0
  C  C282  1  0.43975054  0.53090508  0.58679315  1.0
  C  C283  1  0.90892699  0.05590393  0.46911649  1.0
  C  C284  1  0.85319861  0.41320959  0.94410544  1.0
  C  C285  1  0.31888467  0.40633143  0.51555742  1.0
  C  C286  1  0.91261811  0.10922104  0.59369279  1.0
  C  C287  1  0.80347099  0.48444419  0.89076390  1.0
  C  C288  1  0.59527816  0.44152746  0.59992185  1.0
  C  C289  1  0.15347624  0.15841247  0.55848369  1.0
  C  C290  1  0.99532705  0.40006665  0.84159843  1.0
  C  C291  1  0.69852362  0.42449925  0.60788474  1.0
  C  C292  1  0.27375234  0.18339960  0.57551956  1.0
  C  C293  1  0.09048328  0.39211770  0.81659940  1.0
  C  C294  1  0.48839235  0.46538635  0.62242231  1.0
  C  C295  1  0.02309895  0.15705669  0.53459083  1.0
  C  C296  1  0.86603571  0.37755255  0.84295521  1.0
  C  C297  1  0.82772536  0.36344200  0.53543284  1.0
  C  C298  1  0.46414203  0.17199698  0.63656519  1.0
  C  C299  1  0.29227915  0.46457400  0.82801099  1.0
  C  C300  1  0.10081550  0.38000634  0.59321966  1.0
  C  C301  1  0.72057418  0.21320287  0.61999858  1.0
  C  C302  1  0.50750188  0.40678595  0.78680030  1.0
  C  C303  1  0.20293788  0.36613997  0.60486496  1.0
  C  C304  1  0.83661205  0.23871202  0.63387931  1.0
  C  C305  1  0.59801629  0.39513076  0.76129095  1.0
  C  C306  1  0.12345769  0.35723679  0.62296190  1.0
  C  C307  1  0.76610335  0.26572039  0.64279648  1.0
  C  C308  1  0.50049378  0.37703867  0.73428660  1.0
  C  C309  1  0.25077513  0.34282557  0.63356910  1.0
  C  C310  1  0.90799181  0.29072715  0.65717637  1.0
  C  C311  1  0.61730171  0.36643104  0.70927704  1.0
  C  C312  1  0.20593933  0.39040380  0.57585424  1.0
  C  C313  1  0.81539335  0.18544398  0.60957209  1.0
  C  C314  1  0.63000455  0.42414189  0.81456466  1.0
  O  O315  1  0.76267179  0.65899595  0.37307643  1.0
  O  O316  1  0.10391536  0.71406501  0.34097111  1.0
  O  O317  1  0.38956590  0.62694811  0.28596038  1.0
  O  O318  1  0.99207014  0.66052372  0.34577853  1.0
  O  O319  1  0.33166381  0.68524007  0.33947793  1.0
  O  O320  1  0.64637951  0.65423995  0.31476506  1.0
  O  O321  1  0.33809697  0.64080638  0.34772176  1.0
  O  O322  1  0.69758871  0.70691602  0.35921256  1.0
  O  O323  1  0.99033986  0.65227687  0.29307960  1.0
  O  O324  1  0.41698140  0.33572540  0.62400968  1.0
  O  O325  1  0.08128823  0.28826065  0.66425807  1.0
  O  O326  1  0.79307698  0.37598729  0.71175392  1.0
  O  O327  1  0.19016493  0.33788279  0.65320191  1.0
  O  O328  1  0.85236775  0.31530465  0.66210597  1.0
  O  O329  1  0.53708943  0.34680535  0.68469369  1.0
  O  O330  1  0.84213004  0.35646841  0.64871140  1.0
  O  O331  1  0.48566510  0.29224260  0.64354554  1.0
  O  O332  1  0.19343951  0.35128582  0.70775769  1.0
