# generated using pymatgen
data_Zn2H14C22N2O9
_symmetry_space_group_name_H-M   'P 1'
_cell_length_a   9.78439009
_cell_length_b   11.13763737
_cell_length_c   16.08031615
_cell_angle_alpha   91.42075119
_cell_angle_beta   90.76978382
_cell_angle_gamma   92.28197670
_symmetry_Int_Tables_number   1
_chemical_formula_structural   Zn2H14C22N2O9
_chemical_formula_sum   'Zn2 H14 C22 N2 O9'
_cell_volume   1750.24186141
_cell_formula_units_Z   1
loop_
 _symmetry_equiv_pos_site_id
 _symmetry_equiv_pos_as_xyz
  1  'x, y, z'
loop_
 _atom_site_type_symbol
 _atom_site_label
 _atom_site_symmetry_multiplicity
 _atom_site_fract_x
 _atom_site_fract_y
 _atom_site_fract_z
 _atom_site_occupancy
  Zn  Zn0  1  0.63860822  0.50457096  0.50343305  1.0
  Zn  Zn1  1  0.35745997  0.49431799  0.49414749  1.0
  H  H2  1  0.86872933  0.36127194  0.57588986  1.0
  H  H3  1  0.90150819  0.58674646  0.48714396  1.0
  H  H4  1  0.59048582  0.32392902  0.92839664  1.0
  H  H5  1  0.82344421  0.49032005  0.00275512  1.0
  H  H6  1  0.61331970  0.09776897  0.53772705  1.0
  H  H7  1  0.30402105  0.88437767  0.50914137  1.0
  H  H8  1  0.12630445  0.42340531  0.60760716  1.0
  H  H9  1  0.09496323  0.49487190  0.43457018  1.0
  H  H10  1  0.61915011  0.68349230  0.95805714  1.0
  H  H11  1  0.25297299  0.51031762  0.95936624  1.0
  H  H12  1  0.37041746  0.31516264  0.04145082  1.0
  H  H13  1  0.30879250  0.10624745  0.48881765  1.0
  H  H14  1  0.39874554  0.67249657  0.07065946  1.0
  H  H15  1  0.61067163  0.90639188  0.46927449  1.0
  C  C16  1  0.50552739  0.73208372  0.48572047  1.0
  C  C17  1  0.51549125  0.13452923  0.52048104  1.0
  C  C18  1  0.40208684  0.93209900  0.49922163  1.0
  C  C19  1  0.50239980  0.47264452  0.33712563  1.0
  C  C20  1  0.51105461  0.86502796  0.48352863  1.0
  C  C21  1  0.92199199  0.43737094  0.54650888  1.0
  C  C22  1  0.07337559  0.44585636  0.54973217  1.0
  C  C23  1  0.51354418  0.26722955  0.51731833  1.0
  C  C24  1  0.47198447  0.52163776  0.66162142  1.0
  C  C25  1  0.56395359  0.60152826  0.97698614  1.0
  C  C26  1  0.44107785  0.59559913  0.03789823  1.0
  C  C27  1  0.50601361  0.48704777  0.08452226  1.0
  C  C28  1  0.50943700  0.47058473  0.24749757  1.0
  C  C29  1  0.47225944  0.52351901  0.75150656  1.0
  C  C30  1  0.62858594  0.49248952  0.02138566  1.0
  C  C31  1  0.54795689  0.40118977  0.96075695  1.0
  C  C32  1  0.48342122  0.51047342  0.91485649  1.0
  C  C33  1  0.42519205  0.39677029  0.02175082  1.0
  C  C34  1  0.36040698  0.50496298  0.97791720  1.0
  C  C35  1  0.51171921  0.47670769  0.17194867  1.0
  C  C36  1  0.47589362  0.51918453  0.82722909  1.0
  C  C37  1  0.40460105  0.06248722  0.50188001  1.0
  N  N38  1  0.84852831  0.51490808  0.51197396  1.0
  N  N39  1  0.14737265  0.47809992  0.48862550  1.0
  O  O40  1  0.62095551  0.68248013  0.48020489  1.0
  O  O41  1  0.38975799  0.67706177  0.49381201  1.0
  O  O42  1  0.61423335  0.46407612  0.37774452  1.0
  O  O43  1  0.38381427  0.48466553  0.36771414  1.0
  O  O44  1  0.62906972  0.32401857  0.52843083  1.0
  O  O45  1  0.39988577  0.31548845  0.50300190  1.0
  O  O46  1  0.58782290  0.53758449  0.62743119  1.0
  O  O47  1  0.35673156  0.50286177  0.62445533  1.0
  O  O48  1  0.76214476  0.48506082  0.04994031  1.0
