# generated using pymatgen
data_Zr3H19C44Br2Cl5O16
_symmetry_space_group_name_H-M   'P 1'
_cell_length_a   19.04020286
_cell_length_b   19.15527575
_cell_length_c   19.15525191
_cell_angle_alpha   89.66791465
_cell_angle_beta   60.28101554
_cell_angle_gamma   119.71991365
_symmetry_Int_Tables_number   1
_chemical_formula_structural   Zr3H19C44Br2Cl5O16
_chemical_formula_sum   'Zr6 H38 C88 Br4 Cl10 O32'
_cell_volume   4967.52864005
_cell_formula_units_Z   2
loop_
 _symmetry_equiv_pos_site_id
 _symmetry_equiv_pos_as_xyz
  1  'x, y, z'
loop_
 _atom_site_type_symbol
 _atom_site_label
 _atom_site_symmetry_multiplicity
 _atom_site_fract_x
 _atom_site_fract_y
 _atom_site_fract_z
 _atom_site_occupancy
  Zr  Zr0  1  0.50070819  0.09284935  0.90716525  1.0
  Zr  Zr1  1  0.49878280  0.90718316  0.09284560  1.0
  Zr  Zr2  1  0.31463573  0.90864294  0.09141056  1.0
  Zr  Zr3  1  0.68484790  0.09141708  0.90864364  1.0
  Zr  Zr4  1  0.49976658  0.09193677  0.09192170  1.0
  Zr  Zr5  1  0.49976192  0.90812674  0.90810832  1.0
  H  H6  1  0.35462589  0.07347810  0.07167767  1.0
  H  H7  1  0.64487989  0.07168966  0.07346004  1.0
  H  H8  1  0.35431501  0.78274253  0.07239476  1.0
  H  H9  1  0.64518129  0.07239943  0.78271915  1.0
  H  H10  1  0.49972866  0.54628483  0.11369679  1.0
  H  H11  1  0.49887548  0.45327792  0.88680393  1.0
  H  H12  1  0.50341647  0.31913333  0.10393801  1.0
  H  H13  1  0.50038272  0.44554661  0.11181089  1.0
  H  H14  1  0.50297560  0.68417765  0.89261845  1.0
  H  H15  1  0.50000092  0.55478337  0.88780593  1.0
  H  H16  1  0.50119505  0.88694457  0.45295287  1.0
  H  H17  1  0.50037516  0.11386150  0.54592754  1.0
  H  H18  1  0.49683178  0.89270359  0.68406220  1.0
  H  H19  1  0.50011267  0.88798001  0.55452591  1.0
  H  H20  1  0.49649951  0.10407230  0.31898923  1.0
  H  H21  1  0.49973821  0.11198646  0.44529532  1.0
  H  H22  1  0.16071135  0.54688347  0.88715727  1.0
  H  H23  1  0.83887517  0.45207248  0.11403352  1.0
  H  H24  1  0.92417134  0.32054915  0.89232349  1.0
  H  H25  1  0.05818422  0.44654755  0.88794077  1.0
  H  H26  1  0.07529795  0.68285013  0.10442277  1.0
  H  H27  1  0.94139416  0.55318579  0.11245831  1.0
  H  H28  1  0.16087574  0.11392602  0.45229528  1.0
  H  H29  1  0.83900296  0.88703676  0.54715201  1.0
  H  H30  1  0.92428080  0.10441956  0.68303938  1.0
  H  H31  1  0.05824073  0.11235219  0.55351785  1.0
  H  H32  1  0.07534703  0.89224175  0.32078554  1.0
  H  H33  1  0.94143825  0.88782337  0.44689954  1.0
  H  H34  1  0.70967812  0.88684818  0.11026429  1.0
  H  H35  1  0.93183420  0.10963157  0.88731887  1.0
  H  H36  1  0.28977079  0.11028417  0.88688977  1.0
  H  H37  1  0.06761225  0.88734180  0.10965922  1.0
  H  H38  1  0.93211291  0.54642327  0.45281294  1.0
  H  H39  1  0.06751792  0.45271088  0.54654161  1.0
  H  H40  1  0.71228167  0.31971579  0.68358958  1.0
  H  H41  1  0.83294826  0.44563564  0.55449279  1.0
  H  H42  1  0.28740305  0.68372751  0.31964281  1.0
  H  H43  1  0.16687092  0.55460408  0.44558212  1.0
  C  C44  1  0.50440344  0.23667539  0.99484477  1.0
  C  C45  1  0.49523221  0.99489842  0.23662492  1.0
  C  C46  1  0.50377934  0.76761098  0.00081682  1.0
  C  C47  1  0.49577331  0.00081112  0.76756580  1.0
  C  C48  1  0.26400979  0.99839537  0.99755506  1.0
  C  C49  1  0.73805064  0.23654845  0.76772076  1.0
  C  C50  1  0.73544181  0.99752408  0.99840007  1.0
  C  C51  1  0.26142162  0.76771570  0.23655899  1.0
  C  C52  1  0.26765609  0.00062200  0.23624279  1.0
  C  C53  1  0.26756732  0.76871886  0.99454913  1.0
  C  C54  1  0.73198224  0.99458744  0.76874755  1.0
  C  C55  1  0.73189879  0.23619034  0.00064695  1.0
  C  C56  1  0.50301909  0.68932031  0.00403109  1.0
  C  C57  1  0.50326605  0.31400975  0.99257819  1.0
  C  C58  1  0.50180352  0.64818237  0.06647987  1.0
  C  C59  1  0.50040529  0.57476941  0.06394712  1.0
  C  C60  1  0.50160345  0.35374210  0.93158217  1.0
  C  C61  1  0.50006980  0.42568929  0.93560975  1.0
  C  C62  1  0.50255422  0.34989756  0.05660342  1.0
  C  C63  1  0.50089557  0.42130304  0.06044878  1.0
  C  C64  1  0.50223886  0.65265336  0.94076062  1.0
  C  C65  1  0.50062273  0.57962232  0.93859099  1.0
  C  C66  1  0.50003836  0.53877660  0.00050697  1.0
  C  C67  1  0.50004948  0.46146189  0.99926587  1.0
  C  C68  1  0.49658865  0.99268564  0.31385038  1.0
  C  C69  1  0.49671996  0.00408824  0.68917549  1.0
  C  C70  1  0.49834681  0.93171585  0.35349943  1.0
  C  C71  1  0.49998641  0.93575155  0.42539782  1.0
  C  C72  1  0.49806768  0.06658625  0.64795204  1.0
  C  C73  1  0.49963142  0.06409360  0.57447170  1.0
  C  C74  1  0.49760923  0.94085297  0.65249644  1.0
  C  C75  1  0.49939011  0.93872589  0.57939187  1.0
  C  C76  1  0.49740129  0.05674320  0.34970602  1.0
  C  C77  1  0.49918491  0.06061005  0.42104774  1.0
  C  C78  1  0.50004608  0.99941585  0.46117396  1.0
  C  C79  1  0.50002106  0.00064486  0.53850711  1.0
  C  C80  1  0.19279846  0.68960822  0.99273101  1.0
  C  C81  1  0.80668691  0.31387431  0.00392780  1.0
  C  C82  1  0.21470021  0.64871558  0.93190021  1.0
  C  C83  1  0.13894545  0.57505279  0.93599431  1.0
  C  C84  1  0.78482142  0.35304746  0.06647676  1.0
  C  C85  1  0.86062012  0.42493656  0.06415513  1.0
  C  C86  1  0.90709626  0.35057395  0.94068773  1.0
  C  C87  1  0.98218691  0.42183477  0.93870383  1.0
  C  C88  1  0.09241088  0.65190753  0.05697795  1.0
  C  C89  1  0.01738149  0.57863806  0.06097184  1.0
  C  C90  1  0.03901231  0.53844124  0.99967574  1.0
  C  C91  1  0.96056160  0.46124271  0.00077761  1.0
  C  C92  1  0.19290961  0.00385199  0.31402647  1.0
  C  C93  1  0.80681723  0.99270863  0.68975846  1.0
  C  C94  1  0.21484080  0.06637454  0.35322150  1.0
  C  C95  1  0.13908755  0.06406203  0.42515119  1.0
  C  C96  1  0.78496497  0.93182849  0.64890861  1.0
  C  C97  1  0.86075489  0.93590570  0.57530037  1.0
  C  C98  1  0.90720076  0.05694362  0.65211283  1.0
  C  C99  1  0.98226677  0.06088567  0.57891594  1.0
  C  C100  1  0.09248679  0.94060147  0.35079981  1.0
  C  C101  1  0.01745375  0.93860748  0.42212852  1.0
  C  C102  1  0.03912318  0.00068721  0.46151469  1.0
  C  C103  1  0.96068153  0.99958582  0.53871776  1.0
  C  C104  1  0.78763812  0.93538782  0.06214654  1.0
  C  C105  1  0.86000651  0.93484983  0.06400386  1.0
  C  C106  1  0.83529958  0.87106416  0.12873257  1.0
  C  C107  1  0.91345988  0.06159282  0.93586160  1.0
  C  C108  1  0.98847857  0.06376588  0.93508971  1.0
  C  C109  1  0.09192570  0.12855201  0.87127765  1.0
  C  C110  1  0.21179782  0.06214863  0.93544934  1.0
  C  C111  1  0.13943519  0.06400202  0.93488812  1.0
  C  C112  1  0.16418525  0.12874911  0.87110299  1.0
  C  C113  1  0.08600087  0.93587643  0.06161315  1.0
  C  C114  1  0.01097958  0.93507589  0.06375316  1.0
  C  C115  1  0.90755841  0.87122776  0.12853178  1.0
  C  C116  1  0.81426040  0.99800212  0.99860073  1.0
  C  C117  1  0.96232830  0.99948978  0.99964564  1.0
  C  C118  1  0.18519484  0.99860932  0.99806017  1.0
  C  C119  1  0.03711399  0.99963698  0.99950158  1.0
  C  C120  1  0.18090623  0.68928138  0.31394087  1.0
  C  C121  1  0.81865018  0.31391396  0.68929728  1.0
  C  C122  1  0.07860334  0.64811648  0.35361227  1.0
  C  C123  1  0.00959280  0.57477411  0.42541960  1.0
  C  C124  1  0.92092700  0.35352256  0.64820299  1.0
  C  C125  1  0.99004614  0.42534560  0.57485041  1.0
  C  C126  1  0.79109657  0.35010895  0.65232883  1.0
  C  C127  1  0.85993246  0.42135489  0.57936805  1.0
  C  C128  1  0.20857524  0.65240328  0.35009269  1.0
  C  C129  1  0.13982764  0.57944232  0.42134628  1.0
  C  C130  1  0.03770011  0.53862876  0.46137938  1.0
  C  C131  1  0.96204844  0.46136320  0.53862479  1.0
  Br  Br132  1  0.87379062  0.78678858  0.21405116  1.0
  Br  Br133  1  0.69976954  0.78667742  0.21430001  1.0
  Br  Br134  1  0.29973740  0.21432437  0.78678964  1.0
  Br  Br135  1  0.12576238  0.21417822  0.78688673  1.0
  Cl  Cl136  1  0.50209363  0.68258991  0.14986560  1.0
  Cl  Cl137  1  0.50041173  0.31888429  0.84864162  1.0
  Cl  Cl138  1  0.49951128  0.84878968  0.31859396  1.0
  Cl  Cl139  1  0.49779209  0.14998982  0.68232235  1.0
  Cl  Cl140  1  0.33318958  0.68365618  0.84856581  1.0
  Cl  Cl141  1  0.66633187  0.31772686  0.15016744  1.0
  Cl  Cl142  1  0.33336435  0.15002780  0.31786641  1.0
  Cl  Cl143  1  0.66650266  0.84848019  0.68379782  1.0
  Cl  Cl144  1  0.02893046  0.68250088  0.31886413  1.0
  Cl  Cl145  1  0.97048411  0.31868521  0.68267122  1.0
  O  O146  1  0.50644073  0.20515277  0.93591751  1.0
  O  O147  1  0.49303957  0.93591465  0.20515556  1.0
  O  O148  1  0.50419941  0.80031385  0.05855639  1.0
  O  O149  1  0.49522891  0.05849018  0.80032914  1.0
  O  O150  1  0.23500374  0.93885375  0.05699269  1.0
  O  O151  1  0.76335944  0.20408321  0.80123211  1.0
  O  O152  1  0.76444123  0.05695537  0.93885253  1.0
  O  O153  1  0.23606020  0.80118508  0.20411676  1.0
  O  O154  1  0.35848874  0.05765795  0.20406302  1.0
  O  O155  1  0.35836288  0.80179003  0.93653717  1.0
  O  O156  1  0.64120524  0.93659271  0.80175112  1.0
  O  O157  1  0.64108332  0.20408697  0.05763354  1.0
  O  O158  1  0.23580145  0.79725774  0.05459654  1.0
  O  O159  1  0.76370534  0.05467190  0.79725701  1.0
  O  O160  1  0.76370675  0.20638403  0.94194477  1.0
  O  O161  1  0.23579690  0.94192547  0.20644912  1.0
  O  O162  1  0.35344370  0.05788154  0.93913953  1.0
  O  O163  1  0.35034488  0.79531617  0.20739142  1.0
  O  O164  1  0.64600490  0.93913154  0.05791766  1.0
  O  O165  1  0.64914841  0.20739302  0.79526133  1.0
  O  O166  1  0.49708125  0.94126607  0.79591134  1.0
  O  O167  1  0.50190869  0.20649302  0.05627584  1.0
  O  O168  1  0.49768256  0.05631936  0.20649243  1.0
  O  O169  1  0.50246936  0.79594290  0.94127279  1.0
  O  O170  1  0.60432432  0.05193825  0.84451469  1.0
  O  O171  1  0.39516675  0.84454009  0.05193085  1.0
  O  O172  1  0.60386145  0.05129726  0.05231924  1.0
  O  O173  1  0.39562760  0.05232240  0.05129045  1.0
  O  O174  1  0.42262696  0.96168677  0.11445980  1.0
  O  O175  1  0.57687318  0.11447376  0.96167074  1.0
  O  O176  1  0.57656256  0.96154052  0.96230595  1.0
  O  O177  1  0.42295656  0.96232153  0.96153322  1.0
