# generated using pymatgen
data_Al2H17C26O10F
_symmetry_space_group_name_H-M   'P 1'
_cell_length_a   7.24083130
_cell_length_b   11.09215264
_cell_length_c   15.00722286
_cell_angle_alpha   81.72580912
_cell_angle_beta   77.65969177
_cell_angle_gamma   71.58883525
_symmetry_Int_Tables_number   1
_chemical_formula_structural   Al2H17C26O10F
_chemical_formula_sum   'Al2 H17 C26 O10 F1'
_cell_volume   1113.40514357
_cell_formula_units_Z   1
loop_
 _symmetry_equiv_pos_site_id
 _symmetry_equiv_pos_as_xyz
  1  'x, y, z'
loop_
 _atom_site_type_symbol
 _atom_site_label
 _atom_site_symmetry_multiplicity
 _atom_site_fract_x
 _atom_site_fract_y
 _atom_site_fract_z
 _atom_site_occupancy
  Al  Al0  1  0.50508397  0.48550749  0.49958120  1.0
  Al  Al1  1  0.00522688  0.48466421  0.50110696  1.0
  H  H2  1  0.21390556  0.63107842  0.43120042  1.0
  H  H3  1  0.75509664  0.38428430  0.60463234  1.0
  H  H4  1  0.14505995  0.09688703  0.51939788  1.0
  H  H5  1  0.74357112  0.11461756  0.47514552  1.0
  H  H6  1  0.27387871  0.85854046  0.52017321  1.0
  H  H7  1  0.80984176  0.56885495  0.75870614  1.0
  H  H8  1  0.42441709  0.45549630  0.78237018  1.0
  H  H9  1  0.13808324  0.54883629  0.23736362  1.0
  H  H10  1  0.62716752  0.43975764  0.22093539  1.0
  H  H11  1  0.60613592  0.65781228  0.98564687  1.0
  H  H12  1  0.56611831  0.57016645  0.90569116  1.0
  H  H13  1  0.32361171  0.36777568  0.01823363  1.0
  H  H14  1  0.49926483  0.42959023  0.94386847  1.0
  H  H15  1  0.25353135  0.65636833  0.00410459  1.0
  H  H16  1  0.37862606  0.55906832  0.08994002  1.0
  H  H17  1  0.80663640  0.37001515  0.98926575  1.0
  H  H18  1  0.57621617  0.42325631  0.05985271  1.0
  C  C19  1  0.82716693  0.48544371  0.34039712  1.0
  C  C20  1  0.64761033  0.70966233  0.50052321  1.0
  C  C21  1  0.17838801  0.49975314  0.66045654  1.0
  C  C22  1  0.36363245  0.26230333  0.49791689  1.0
  C  C23  1  0.57897357  0.85192176  0.49910964  1.0
  C  C24  1  0.43600452  0.12010659  0.49763354  1.0
  C  C25  1  0.70789454  0.92737115  0.48623217  1.0
  C  C26  1  0.30314754  0.04804842  0.51008837  1.0
  C  C27  1  0.63958832  0.05914313  0.48545423  1.0
  C  C28  1  0.37480744  0.91614347  0.51068308  1.0
  C  C29  1  0.66682394  0.56899407  0.95070724  1.0
  C  C30  1  0.34608340  0.45521933  0.97792954  1.0
  C  C31  1  0.27711244  0.56336724  0.04452020  1.0
  C  C32  1  0.70313100  0.45311197  0.02426095  1.0
  C  C33  1  0.92124015  0.55235655  0.80140482  1.0
  C  C34  1  0.86758395  0.55977379  0.89557242  1.0
  C  C35  1  0.26915646  0.48747968  0.81467016  1.0
  C  C36  1  0.21375971  0.49427898  0.90898070  1.0
  C  C37  1  0.04156735  0.53579637  0.19519510  1.0
  C  C38  1  0.08699620  0.54946485  0.10018560  1.0
  C  C39  1  0.75292616  0.47289054  0.18614408  1.0
  C  C40  1  0.80106361  0.48583264  0.09106239  1.0
  C  C41  1  0.12231291  0.51686552  0.76046095  1.0
  C  C42  1  0.01429238  0.53397712  0.94864450  1.0
  C  C43  1  0.87248803  0.49963660  0.23845524  1.0
  C  C44  1  0.96211392  0.52894853  0.04863131  1.0
  O  O45  1  0.65444770  0.47860293  0.37785282  1.0
  O  O46  1  0.82994117  0.65532634  0.50327833  1.0
  O  O47  1  0.04120744  0.49151384  0.62225528  1.0
  O  O48  1  0.49443682  0.31682187  0.49791503  1.0
  O  O49  1  0.35757265  0.49207144  0.62301398  1.0
  O  O50  1  0.17912744  0.31458455  0.49896762  1.0
  O  O51  1  0.96676860  0.48270744  0.38099144  1.0
  O  O52  1  0.51501924  0.65692014  0.49864393  1.0
  O  O53  1  0.24577808  0.54372893  0.45826479  1.0
  O  O54  1  0.76289336  0.42726327  0.54350206  1.0
  F  F55  1  0.90783667  0.87446182  0.47258202  1.0
