# generated using pymatgen
data_Zn4H12C15O13
_symmetry_space_group_name_H-M   'P 1'
_cell_length_a   13.02153265
_cell_length_b   13.66171957
_cell_length_c   15.30541859
_cell_angle_alpha   75.36794625
_cell_angle_beta   69.92300582
_cell_angle_gamma   72.80380877
_symmetry_Int_Tables_number   1
_chemical_formula_structural   Zn4H12C15O13
_chemical_formula_sum   'Zn8 H24 C30 O26'
_cell_volume   2408.10519645
_cell_formula_units_Z   2
loop_
 _symmetry_equiv_pos_site_id
 _symmetry_equiv_pos_as_xyz
  1  'x, y, z'
loop_
 _atom_site_type_symbol
 _atom_site_label
 _atom_site_symmetry_multiplicity
 _atom_site_fract_x
 _atom_site_fract_y
 _atom_site_fract_z
 _atom_site_occupancy
  Zn  Zn0  1  0.19010918  0.08824552  0.90184860  1.0
  Zn  Zn1  1  0.96346825  0.01440398  0.02363209  1.0
  Zn  Zn2  1  0.07007416  0.13127780  0.11472468  1.0
  Zn  Zn3  1  0.19284400  0.89946172  0.07742552  1.0
  Zn  Zn4  1  0.60855441  0.52018961  0.65212473  1.0
  Zn  Zn5  1  0.75415423  0.48153443  0.44179878  1.0
  Zn  Zn6  1  0.63443790  0.70980696  0.47535848  1.0
  Zn  Zn7  1  0.48990684  0.54982240  0.48882014  1.0
  H  H8  1  0.04699872  0.10408358  0.67396739  1.0
  H  H9  1  0.93088235  0.04891434  0.74760660  1.0
  H  H10  1  0.81341982  0.23231664  0.77538964  1.0
  H  H11  1  0.98713178  0.26061298  0.57947713  1.0
  H  H12  1  0.09529866  0.44026883  0.90185532  1.0
  H  H13  1  0.15504526  0.43357581  0.99223710  1.0
  H  H14  1  0.34959304  0.40292517  0.87729429  1.0
  H  H15  1  0.20835366  0.47331363  0.73761211  1.0
  H  H16  1  0.55466733  0.95020758  0.82638342  1.0
  H  H17  1  0.55803224  0.85424971  0.93089780  1.0
  H  H18  1  0.51045263  0.73057551  0.85675216  1.0
  H  H19  1  0.62065162  0.87946760  0.68544166  1.0
  H  H20  1  0.65052497  0.15510098  0.23398453  1.0
  H  H21  1  0.71884074  0.06421889  0.31219392  1.0
  H  H22  1  0.78613185  0.21717059  0.33610026  1.0
  H  H23  1  0.54943065  0.31244391  0.31194252  1.0
  H  H24  1  0.98870004  0.68635144  0.99793115  1.0
  H  H25  1  0.10917791  0.62440992  0.03789034  1.0
  H  H26  1  0.95154252  0.56364020  0.16384884  1.0
  H  H27  1  0.88909147  0.78763241  0.20293512  1.0
  H  H28  1  0.15293886  0.01056506  0.38132347  1.0
  H  H29  1  0.07357462  0.91831023  0.39776361  1.0
  H  H30  1  0.25271922  0.77586752  0.36565564  1.0
  H  H31  1  0.32758921  0.93861874  0.42291200  1.0
  C  C32  1  0.01027255  0.09776184  0.82293265  1.0
  C  C33  1  0.97276658  0.11253535  0.73560621  1.0
  C  C34  1  0.89139732  0.21391779  0.71908067  1.0
  C  C35  1  0.90994312  0.27885762  0.63635855  1.0
  C  C36  1  0.82683515  0.37218025  0.60948790  1.0
  C  C37  1  0.16213613  0.28765082  0.96122954  1.0
  C  C38  1  0.16809865  0.40176646  0.92913381  1.0
  C  C39  1  0.27388205  0.42018082  0.85506200  1.0
  C  C40  1  0.28081857  0.45677530  0.76386432  1.0
  C  C41  1  0.38532936  0.47839410  0.69176213  1.0
  C  C42  1  0.39397540  0.92584288  0.91729364  1.0
  C  C43  1  0.51937691  0.88527212  0.87293289  1.0
  C  C44  1  0.54005847  0.80093628  0.81838027  1.0
  C  C45  1  0.59235852  0.80917008  0.72552874  1.0
  C  C46  1  0.61238477  0.72906422  0.66831938  1.0
  C  C47  1  0.83048810  0.11796322  0.18421154  1.0
  C  C48  1  0.72124494  0.13892753  0.26307021  1.0
  C  C49  1  0.71352191  0.22192649  0.31361983  1.0
  C  C50  1  0.62492810  0.30190045  0.33240739  1.0
  C  C51  1  0.62368424  0.38097483  0.38352525  1.0
  C  C52  1  0.04991619  0.78659807  0.04639754  1.0
  C  C53  1  0.02835906  0.68163694  0.05239397  1.0
  C  C54  1  0.95440064  0.64561189  0.14784555  1.0
  C  C55  1  0.89262063  0.70477804  0.21402857  1.0
  C  C56  1  0.82182476  0.66241741  0.30637522  1.0
  C  C57  1  0.15602586  0.96730402  0.25526277  1.0
  C  C58  1  0.15463522  0.94001417  0.35863262  1.0
  C  C59  1  0.24837273  0.85222452  0.37860078  1.0
  C  C60  1  0.32709635  0.86342310  0.41081125  1.0
  C  C61  1  0.41932952  0.77600696  0.43138868  1.0
  O  O62  1  0.10484749  0.03336034  0.02909758  1.0
  O  O63  1  0.93554959  0.08859484  0.90245788  1.0
  O  O64  1  0.11332389  0.09471205  0.80889697  1.0
  O  O65  1  0.85339755  0.41047545  0.52135414  1.0
  O  O66  1  0.73704148  0.40545942  0.67239494  1.0
  O  O67  1  0.11720297  0.26048851  0.04923156  1.0
  O  O68  1  0.19864366  0.23137601  0.89751714  1.0
  O  O69  1  0.37825497  0.50860897  0.60728638  1.0
  O  O70  1  0.47150031  0.46672291  0.71866777  1.0
  O  O71  1  0.35033540  0.87785210  0.99853078  1.0
  O  O72  1  0.34439402  0.00330598  0.86848916  1.0
  O  O73  1  0.65221338  0.75702365  0.57924891  1.0
  O  O74  1  0.58920241  0.64114127  0.70998107  1.0
  O  O75  1  0.90662815  0.16224052  0.17774204  1.0
  O  O76  1  0.83631982  0.05619119  0.13164802  1.0
  O  O77  1  0.53154146  0.44968100  0.40342230  1.0
  O  O78  1  0.71299566  0.37494130  0.40386621  1.0
  O  O79  1  0.13617466  0.78509087  0.06846974  1.0
  O  O80  1  0.97807891  0.86653695  0.02291471  1.0
  O  O81  1  0.75862908  0.72906582  0.35960845  1.0
  O  O82  1  0.82886641  0.56443716  0.32581310  1.0
  O  O83  1  0.18131647  0.89226235  0.21073238  1.0
  O  O84  1  0.12943543  0.06386886  0.22304318  1.0
  O  O85  1  0.49469263  0.80105416  0.45183834  1.0
  O  O86  1  0.41699306  0.68442317  0.42755563  1.0
  O  O87  1  0.61925854  0.56565329  0.51755143  1.0
