# generated using pymatgen
data_CdH21C27N7Cl2
_symmetry_space_group_name_H-M   'P 1'
_cell_length_a   15.03542789
_cell_length_b   17.91173348
_cell_length_c   25.71766012
_cell_angle_alpha   89.99987090
_cell_angle_beta   89.99988113
_cell_angle_gamma   89.99989254
_symmetry_Int_Tables_number   1
_chemical_formula_structural   CdH21C27N7Cl2
_chemical_formula_sum   'Cd8 H168 C216 N56 Cl16'
_cell_volume   6926.03788914
_cell_formula_units_Z   8
loop_
 _symmetry_equiv_pos_site_id
 _symmetry_equiv_pos_as_xyz
  1  'x, y, z'
loop_
 _atom_site_type_symbol
 _atom_site_label
 _atom_site_symmetry_multiplicity
 _atom_site_fract_x
 _atom_site_fract_y
 _atom_site_fract_z
 _atom_site_occupancy
  Cd  Cd0  1  0.42178163  0.45624777  0.19206818  1.0
  Cd  Cd1  1  0.57821727  0.45624467  0.30793127  1.0
  Cd  Cd2  1  0.07821421  0.04375251  0.19207105  1.0
  Cd  Cd3  1  0.92177763  0.04375389  0.30792828  1.0
  Cd  Cd4  1  0.57821696  0.54375354  0.80792964  1.0
  Cd  Cd5  1  0.42177798  0.54375273  0.69206694  1.0
  Cd  Cd6  1  0.92178237  0.95624545  0.80793106  1.0
  Cd  Cd7  1  0.07822029  0.95624407  0.69206994  1.0
  H  H8  1  0.80819445  0.96225817  0.91926668  1.0
  H  H9  1  0.19180754  0.96225697  0.58073198  1.0
  H  H10  1  0.69180515  0.53774268  0.91926747  1.0
  H  H11  1  0.30819445  0.53774130  0.58073302  1.0
  H  H12  1  0.19180613  0.03773867  0.08073193  1.0
  H  H13  1  0.80819437  0.03773875  0.41926779  1.0
  H  H14  1  0.30819409  0.46225863  0.08073308  1.0
  H  H15  1  0.69180546  0.46225889  0.41926675  1.0
  H  H16  1  0.34139448  0.15773009  0.20001592  1.0
  H  H17  1  0.65860576  0.15772912  0.29998439  1.0
  H  H18  1  0.15860266  0.34226849  0.20001589  1.0
  H  H19  1  0.84139716  0.34226947  0.29998452  1.0
  H  H20  1  0.65860344  0.84226898  0.79998463  1.0
  H  H21  1  0.34139615  0.84227051  0.70001538  1.0
  H  H22  1  0.84139658  0.65773114  0.79998466  1.0
  H  H23  1  0.15860608  0.65772905  0.70001603  1.0
  H  H24  1  0.50181341  0.95435028  0.17533333  1.0
  H  H25  1  0.49818638  0.95434837  0.32466729  1.0
  H  H26  1  0.99818550  0.54564908  0.17533374  1.0
  H  H27  1  0.00181453  0.54564962  0.32466713  1.0
  H  H28  1  0.49818584  0.04564991  0.82466644  1.0
  H  H29  1  0.50181287  0.04564904  0.67533287  1.0
  H  H30  1  0.00181308  0.45435112  0.82466642  1.0
  H  H31  1  0.99818738  0.45435057  0.67533303  1.0
  H  H32  1  0.41168126  0.06657640  0.18761202  1.0
  H  H33  1  0.58831984  0.06657439  0.31238687  1.0
  H  H34  1  0.08831726  0.43342278  0.18761232  1.0
  H  H35  1  0.91168103  0.43342416  0.31238639  1.0
  H  H36  1  0.58831865  0.93342323  0.81238814  1.0
  H  H37  1  0.41168073  0.93342301  0.68761173  1.0
  H  H38  1  0.91168066  0.56657685  0.81238823  1.0
  H  H39  1  0.08831955  0.56657603  0.68761182  1.0
  H  H40  1  0.56665632  0.29901052  0.18005740  1.0
  H  H41  1  0.43334294  0.29900873  0.31994307  1.0
  H  H42  1  0.93334037  0.20098901  0.18005765  1.0
  H  H43  1  0.06666043  0.20099003  0.31994259  1.0
  H  H44  1  0.43334093  0.70098967  0.81994314  1.0
  H  H45  1  0.56665897  0.70098979  0.68005670  1.0
  H  H46  1  0.06666087  0.79901006  0.81994290  1.0
  H  H47  1  0.93334347  0.79900961  0.68005795  1.0
  H  H48  1  0.56368527  0.61157791  0.39601577  1.0
  H  H49  1  0.43631595  0.61157849  0.10398383  1.0
  H  H50  1  0.93631353  0.88842185  0.39601454  1.0
  H  H51  1  0.06368374  0.88842077  0.10398540  1.0
  H  H52  1  0.43631331  0.38842172  0.60398400  1.0
  H  H53  1  0.56368529  0.38842003  0.89601555  1.0
  H  H54  1  0.06368638  0.11157890  0.60398367  1.0
  H  H55  1  0.93631550  0.11157830  0.89601632  1.0
  H  H56  1  0.61283879  0.61084007  0.23554741  1.0
  H  H57  1  0.38716242  0.61084076  0.26445219  1.0
  H  H58  1  0.88715991  0.88915909  0.23554624  1.0
  H  H59  1  0.11283803  0.88915910  0.26445370  1.0
  H  H60  1  0.38715912  0.38915901  0.76445237  1.0
  H  H61  1  0.61283948  0.38915776  0.73554719  1.0
  H  H62  1  0.11283868  0.11084166  0.76445158  1.0
  H  H63  1  0.88716122  0.11084054  0.73554802  1.0
  H  H64  1  0.67317522  0.83995786  0.31804731  1.0
  H  H65  1  0.32682615  0.83995779  0.18195349  1.0
  H  H66  1  0.82682651  0.66004271  0.31804697  1.0
  H  H67  1  0.17317193  0.66004233  0.18195411  1.0
  H  H68  1  0.32682536  0.16004178  0.68195324  1.0
  H  H69  1  0.67317309  0.16004240  0.81804628  1.0
  H  H70  1  0.17317539  0.33995860  0.68195319  1.0
  H  H71  1  0.82682599  0.33995842  0.81804566  1.0
  H  H72  1  0.61900619  0.81230203  0.12823460  1.0
  H  H73  1  0.38099391  0.81230127  0.37176585  1.0
  H  H74  1  0.88099488  0.68769971  0.12823415  1.0
  H  H75  1  0.11900550  0.68770047  0.37176649  1.0
  H  H76  1  0.38099372  0.18769927  0.87176517  1.0
  H  H77  1  0.61900534  0.18770116  0.62823392  1.0
  H  H78  1  0.11900636  0.31229937  0.87176562  1.0
  H  H79  1  0.88099508  0.31230084  0.62823289  1.0
  H  H80  1  0.59533574  0.75837333  0.36480867  1.0
  H  H81  1  0.40466581  0.75837386  0.13519147  1.0
  H  H82  1  0.90466450  0.74162708  0.36480733  1.0
  H  H83  1  0.09533310  0.74162642  0.13519245  1.0
  H  H84  1  0.40466351  0.24162518  0.63519149  1.0
  H  H85  1  0.59533543  0.24162410  0.86480830  1.0
  H  H86  1  0.09533608  0.25837422  0.63519089  1.0
  H  H87  1  0.90466548  0.25837322  0.86480810  1.0
  H  H88  1  0.69976507  0.94618997  0.25965698  1.0
  H  H89  1  0.30023540  0.94618976  0.24034365  1.0
  H  H90  1  0.80023754  0.55380967  0.25965645  1.0
  H  H91  1  0.19976248  0.55381073  0.24034479  1.0
  H  H92  1  0.30023751  0.05380966  0.74034357  1.0
  H  H93  1  0.69976119  0.05381155  0.75965535  1.0
  H  H94  1  0.19976503  0.44618941  0.74034449  1.0
  H  H95  1  0.80023744  0.44619058  0.75965537  1.0
  H  H96  1  0.90592527  0.84178314  0.06596630  1.0
  H  H97  1  0.09407343  0.84178319  0.43403410  1.0
  H  H98  1  0.59407403  0.65821880  0.06596624  1.0
  H  H99  1  0.40592376  0.65821724  0.43403367  1.0
  H  H100  1  0.09407464  0.15821705  0.93403425  1.0
  H  H101  1  0.90592515  0.15821756  0.56596567  1.0
  H  H102  1  0.40592455  0.34178363  0.93403314  1.0
  H  H103  1  0.59407416  0.34178519  0.56596649  1.0
  H  H104  1  0.80886570  0.85131037  0.14305735  1.0
  H  H105  1  0.19113431  0.85130939  0.35694265  1.0
  H  H106  1  0.69113399  0.64869244  0.14305758  1.0
  H  H107  1  0.30886514  0.64868960  0.35694391  1.0
  H  H108  1  0.19113488  0.14869150  0.85694320  1.0
  H  H109  1  0.80886560  0.14869192  0.64305595  1.0
  H  H110  1  0.30886459  0.35130998  0.85694297  1.0
  H  H111  1  0.69113543  0.35131059  0.64305664  1.0
  H  H112  1  0.29268467  0.30780549  0.20901626  1.0
  H  H113  1  0.70731456  0.30780447  0.29098420  1.0
  H  H114  1  0.20731177  0.19219419  0.20901641  1.0
  H  H115  1  0.79268838  0.19219527  0.29098424  1.0
  H  H116  1  0.70731192  0.69219471  0.79098390  1.0
  H  H117  1  0.29268735  0.69219572  0.70901596  1.0
  H  H118  1  0.79268947  0.80780489  0.79098453  1.0
  H  H119  1  0.20731485  0.80780548  0.70901670  1.0
  H  H120  1  0.64957792  0.20219181  0.17625382  1.0
  H  H121  1  0.35042288  0.20218957  0.32374642  1.0
  H  H122  1  0.85042078  0.29780830  0.17625401  1.0
  H  H123  1  0.14957914  0.29780861  0.32374686  1.0
  H  H124  1  0.35042133  0.79780839  0.82374634  1.0
  H  H125  1  0.64957769  0.79780839  0.67625335  1.0
  H  H126  1  0.14957780  0.70219245  0.82374654  1.0
  H  H127  1  0.85042343  0.70219158  0.67625447  1.0
  H  H128  1  0.58440260  0.70735400  0.18745432  1.0
  H  H129  1  0.41559840  0.70735393  0.31254590  1.0
  H  H130  1  0.91559694  0.79264755  0.18745445  1.0
  H  H131  1  0.08440188  0.79264744  0.31254642  1.0
  H  H132  1  0.41559598  0.29264619  0.81254545  1.0
  H  H133  1  0.58440218  0.29264849  0.68745504  1.0
  H  H134  1  0.08440364  0.20735320  0.81254494  1.0
  H  H135  1  0.91559737  0.20735386  0.68745335  1.0
  H  H136  1  0.73929616  0.08748371  0.16384798  1.0
  H  H137  1  0.26070489  0.08748213  0.33615166  1.0
  H  H138  1  0.76070390  0.41251700  0.16384849  1.0
  H  H139  1  0.23929642  0.41251769  0.33615259  1.0
  H  H140  1  0.26070375  0.91251649  0.83615179  1.0
  H  H141  1  0.73929502  0.91251639  0.66384850  1.0
  H  H142  1  0.23929601  0.58748264  0.83615206  1.0
  H  H143  1  0.76070615  0.58748362  0.66384757  1.0
  H  H144  1  0.08223047  0.91745014  0.91285016  1.0
  H  H145  1  0.91777162  0.91745057  0.58714934  1.0
  H  H146  1  0.41776901  0.58254929  0.91285100  1.0
  H  H147  1  0.58222983  0.58255025  0.58714942  1.0
  H  H148  1  0.91777077  0.08254949  0.08715077  1.0
  H  H149  1  0.08223029  0.08254851  0.41284849  1.0
  H  H150  1  0.58222957  0.41745034  0.08714955  1.0
  H  H151  1  0.41776942  0.41745050  0.41285035  1.0
  H  H152  1  0.76429039  0.02409373  0.99454606  1.0
  H  H153  1  0.23570969  0.02409326  0.50545406  1.0
  H  H154  1  0.73571205  0.47590764  0.99454611  1.0
  H  H155  1  0.26428902  0.47590824  0.50545525  1.0
  H  H156  1  0.23571085  0.97590591  0.00545410  1.0
  H  H157  1  0.76428822  0.97590693  0.49454571  1.0
  H  H158  1  0.26428985  0.52409423  0.00545327  1.0
  H  H159  1  0.73571022  0.52409474  0.49454569  1.0
  H  H160  1  0.66437136  0.03087912  0.07027035  1.0
  H  H161  1  0.33562849  0.03087824  0.42973016  1.0
  H  H162  1  0.83562905  0.46912244  0.07027107  1.0
  H  H163  1  0.16436783  0.46912351  0.42973147  1.0
  H  H164  1  0.33562989  0.96912107  0.92972942  1.0
  H  H165  1  0.66437009  0.96912251  0.57027078  1.0
  H  H166  1  0.16437087  0.53087942  0.92972948  1.0
  H  H167  1  0.83562942  0.53088003  0.57026985  1.0
  H  H168  1  0.02503783  0.89808444  0.01517018  1.0
  H  H169  1  0.97496141  0.89808405  0.48482858  1.0
  H  H170  1  0.47496151  0.60191678  0.01517092  1.0
  H  H171  1  0.52503840  0.60191709  0.48482948  1.0
  H  H172  1  0.97496075  0.10191686  0.98482998  1.0
  H  H173  1  0.02503916  0.10191670  0.51516769  1.0
  H  H174  1  0.52503774  0.39808453  0.98482963  1.0
  H  H175  1  0.47496218  0.39808533  0.51516913  1.0
  C  C176  1  0.87556266  0.94972051  0.93173473  1.0
  C  C177  1  0.12443869  0.94971722  0.56826550  1.0
  C  C178  1  0.62443889  0.55028254  0.93173442  1.0
  C  C179  1  0.37556135  0.55027774  0.56826605  1.0
  C  C180  1  0.12443858  0.05027689  0.06826465  1.0
  C  C181  1  0.87556255  0.05027571  0.43173505  1.0
  C  C182  1  0.37556102  0.44972156  0.06826457  1.0
  C  C183  1  0.62443789  0.44972189  0.43173411  1.0
  C  C184  1  0.62601446  0.01387394  0.16665824  1.0
  C  C185  1  0.37398409  0.01387052  0.33333333  1.0
  C  C186  1  0.87398626  0.48612731  0.16665850  1.0
  C  C187  1  0.12601324  0.48612763  0.33333333  1.0
  C  C188  1  0.37398611  0.98612681  0.83334114  1.0
  C  C189  1  0.62601449  0.98612911  0.66666667  1.0
  C  C190  1  0.12601299  0.51387232  0.83334166  1.0
  C  C191  1  0.87398667  0.51387312  0.66666667  1.0
  C  C192  1  0.38032514  0.20872290  0.19818521  1.0
  C  C193  1  0.61967631  0.20872142  0.30181619  1.0
  C  C194  1  0.11967334  0.29127569  0.19818686  1.0
  C  C195  1  0.88032660  0.29127716  0.30181480  1.0
  C  C196  1  0.61967544  0.79127674  0.80181573  1.0
  C  C197  1  0.38032427  0.79127709  0.69818475  1.0
  C  C198  1  0.88032524  0.70872394  0.80181602  1.0
  C  C199  1  0.11967531  0.70872247  0.69818653  1.0
  C  C200  1  0.53422458  0.00881196  0.17498332  1.0
  C  C201  1  0.46577532  0.00880953  0.32501645  1.0
  C  C202  1  0.96577478  0.49118871  0.17498384  1.0
  C  C203  1  0.03422404  0.49118865  0.32501672  1.0
  C  C204  1  0.46577466  0.99118879  0.82501606  1.0
  C  C205  1  0.53422526  0.99118898  0.67498216  1.0
  C  C206  1  0.03422380  0.50881148  0.82501632  1.0
  C  C207  1  0.96577521  0.50881099  0.67498305  1.0
  C  C208  1  0.48334134  0.07268631  0.18245754  1.0
  C  C209  1  0.51666041  0.07268384  0.31754368  1.0
  C  C210  1  0.01665719  0.42731512  0.18245871  1.0
  C  C211  1  0.98334111  0.42731469  0.31754312  1.0
  C  C212  1  0.51665790  0.92731499  0.81754145  1.0
  C  C213  1  0.48334083  0.92731524  0.68245764  1.0
  C  C214  1  0.98334139  0.57268508  0.81754184  1.0
  C  C215  1  0.01665947  0.57268550  0.68245782  1.0
  C  C216  1  0.49870814  0.28111448  0.18627420  1.0
  C  C217  1  0.50129248  0.28111259  0.31372669  1.0
  C  C218  1  0.00128905  0.21888527  0.18627611  1.0
  C  C219  1  0.99871038  0.21888595  0.31372605  1.0
  C  C220  1  0.50129044  0.71888572  0.81372596  1.0
  C  C221  1  0.49870876  0.71888481  0.68627230  1.0
  C  C222  1  0.99871020  0.78111492  0.81372678  1.0
  C  C223  1  0.00129152  0.78111368  0.68627644  1.0
  C  C224  1  0.57866792  0.63405597  0.35791196  1.0
  C  C225  1  0.42133723  0.63405811  0.14208799  1.0
  C  C226  1  0.92132968  0.86594280  0.35791196  1.0
  C  C227  1  0.07866232  0.86594158  0.14208840  1.0
  C  C228  1  0.42132800  0.36594311  0.64208742  1.0
  C  C229  1  0.57866867  0.36594208  0.85791217  1.0
  C  C230  1  0.07867090  0.13405739  0.64208742  1.0
  C  C231  1  0.92133293  0.13405694  0.85791214  1.0
  C  C232  1  0.52404979  0.14291623  0.18157713  1.0
  C  C233  1  0.47594981  0.14291381  0.31842242  1.0
  C  C234  1  0.97594889  0.35708498  0.18157941  1.0
  C  C235  1  0.02405156  0.35708495  0.31842098  1.0
  C  C236  1  0.47594880  0.85708564  0.81842186  1.0
  C  C237  1  0.52405076  0.85708582  0.68157773  1.0
  C  C238  1  0.02405102  0.64291410  0.81842269  1.0
  C  C239  1  0.97594968  0.64291524  0.68157763  1.0
  C  C240  1  0.66150496  0.88600443  0.18992404  1.0
  C  C241  1  0.33849764  0.88600337  0.31007669  1.0
  C  C242  1  0.83849922  0.61399600  0.18992375  1.0
  C  C243  1  0.16150065  0.61399634  0.31007701  1.0
  C  C244  1  0.33849828  0.11399576  0.81007573  1.0
  C  C245  1  0.66149961  0.11399626  0.68992347  1.0
  C  C246  1  0.16150601  0.38600308  0.81007602  1.0
  C  C247  1  0.83849992  0.38600386  0.68992315  1.0
  C  C248  1  0.60245988  0.63132268  0.27476986  1.0
  C  C249  1  0.39754661  0.63132404  0.22523010  1.0
  C  C250  1  0.89753801  0.86867747  0.27476988  1.0
  C  C251  1  0.10245331  0.86867595  0.22523126  1.0
  C  C252  1  0.39753671  0.36867696  0.72522952  1.0
  C  C253  1  0.60245995  0.36867671  0.77477045  1.0
  C  C254  1  0.10246057  0.13132328  0.72522911  1.0
  C  C255  1  0.89754194  0.13132313  0.77477046  1.0
  C  C256  1  0.65886243  0.83364029  0.27670919  1.0
  C  C257  1  0.34114028  0.83364174  0.22329123  1.0
  C  C258  1  0.84114077  0.66635874  0.27670882  1.0
  C  C259  1  0.15885699  0.66635825  0.22329263  1.0
  C  C260  1  0.34113947  0.16635823  0.72329058  1.0
  C  C261  1  0.65885830  0.16635789  0.77670854  1.0
  C  C262  1  0.15886512  0.33364034  0.72329134  1.0
  C  C263  1  0.84114159  0.33364083  0.77670830  1.0
  C  C264  1  0.63067189  0.81789606  0.16990751  1.0
  C  C265  1  0.36933086  0.81789433  0.33009293  1.0
  C  C266  1  0.86933236  0.68210387  0.16990747  1.0
  C  C267  1  0.13066670  0.68210420  0.33009357  1.0
  C  C268  1  0.36933068  0.18210358  0.83009187  1.0
  C  C269  1  0.63066839  0.18210642  0.66990606  1.0
  C  C270  1  0.13067154  0.31789576  0.83009346  1.0
  C  C271  1  0.86933188  0.31789544  0.66990659  1.0
  C  C272  1  0.59508908  0.70652858  0.34321343  1.0
  C  C273  1  0.40491724  0.70653015  0.15678640  1.0
  C  C274  1  0.90491056  0.79347135  0.34321357  1.0
  C  C275  1  0.09508093  0.79347061  0.15678730  1.0
  C  C276  1  0.40491016  0.29346993  0.65678517  1.0
  C  C277  1  0.59508866  0.29346948  0.84321414  1.0
  C  C278  1  0.09509001  0.20652996  0.65678581  1.0
  C  C279  1  0.90491432  0.20652958  0.84321325  1.0
  C  C280  1  0.67500630  0.89358930  0.24358131  1.0
  C  C281  1  0.32499562  0.89359012  0.25641862  1.0
  C  C282  1  0.82499836  0.60641039  0.24358106  1.0
  C  C283  1  0.17500154  0.60641032  0.25642010  1.0
  C  C284  1  0.32499760  0.10640977  0.75641846  1.0
  C  C285  1  0.67500097  0.10640952  0.74358076  1.0
  C  C286  1  0.17500754  0.39358924  0.75641910  1.0
  C  C287  1  0.82499837  0.39358987  0.74358006  1.0
  C  C288  1  0.62759440  0.76593389  0.25663240  1.0
  C  C289  1  0.37241113  0.76593523  0.24336735  1.0
  C  C290  1  0.87240755  0.73406632  0.25663266  1.0
  C  C291  1  0.12758807  0.73406469  0.24336830  1.0
  C  C292  1  0.37240551  0.23406518  0.74336776  1.0
  C  C293  1  0.62759211  0.23406440  0.75663242  1.0
  C  C294  1  0.12759568  0.26593443  0.74336711  1.0
  C  C295  1  0.87241051  0.26593494  0.75663264  1.0
  C  C296  1  0.73002653  0.94222295  0.11274547  1.0
  C  C297  1  0.26997528  0.94222064  0.38725594  1.0
  C  C298  1  0.76997593  0.55778051  0.11274419  1.0
  C  C299  1  0.23002141  0.55777993  0.38725627  1.0
  C  C300  1  0.26997538  0.05777891  0.88725508  1.0
  C  C301  1  0.73002264  0.05777955  0.61274383  1.0
  C  C302  1  0.23002597  0.44222247  0.88725519  1.0
  C  C303  1  0.76997584  0.44222193  0.61274389  1.0
  C  C304  1  0.85365534  0.88394828  0.06707021  1.0
  C  C305  1  0.14634526  0.88394657  0.43292974  1.0
  C  C306  1  0.64634462  0.61605477  0.06707054  1.0
  C  C307  1  0.35365393  0.61605218  0.43292982  1.0
  C  C308  1  0.14634390  0.11605414  0.93292917  1.0
  C  C309  1  0.85365465  0.11605418  0.56707003  1.0
  C  C310  1  0.35365463  0.38394765  0.93292961  1.0
  C  C311  1  0.64634532  0.38394913  0.56707034  1.0
  C  C312  1  0.79879350  0.88896340  0.11040350  1.0
  C  C313  1  0.20120776  0.88896119  0.38959644  1.0
  C  C314  1  0.70120963  0.61103840  0.11040377  1.0
  C  C315  1  0.29878760  0.61103882  0.38959738  1.0
  C  C316  1  0.20120907  0.11103791  0.88959666  1.0
  C  C317  1  0.79879016  0.11103677  0.61040333  1.0
  C  C318  1  0.29879294  0.38896291  0.88959677  1.0
  C  C319  1  0.70120832  0.38896305  0.61040317  1.0
  C  C320  1  0.84225296  0.93282582  0.02520517  1.0
  C  C321  1  0.15774753  0.93282563  0.47479431  1.0
  C  C322  1  0.65774781  0.56717738  0.02520479  1.0
  C  C323  1  0.34225284  0.56717522  0.47479487  1.0
  C  C324  1  0.15774628  0.06717326  0.97479382  1.0
  C  C325  1  0.84225371  0.06717512  0.52520468  1.0
  C  C326  1  0.34225276  0.43282784  0.97479420  1.0
  C  C327  1  0.65774774  0.43282720  0.52520567  1.0
  C  C328  1  0.35682456  0.28241092  0.20210893  1.0
  C  C329  1  0.64317473  0.28240942  0.29789235  1.0
  C  C330  1  0.14317191  0.21758877  0.20211028  1.0
  C  C331  1  0.85682752  0.21758973  0.29789150  1.0
  C  C332  1  0.64317403  0.71758983  0.79789084  1.0
  C  C333  1  0.35682651  0.71758910  0.70210781  1.0
  C  C334  1  0.85682733  0.78241086  0.79789183  1.0
  C  C335  1  0.14317439  0.78241046  0.70211061  1.0
  C  C336  1  0.61642561  0.14820041  0.17483929  1.0
  C  C337  1  0.38357464  0.14819756  0.32515948  1.0
  C  C338  1  0.88357309  0.35180082  0.17484013  1.0
  C  C339  1  0.11642804  0.35180174  0.32515987  1.0
  C  C340  1  0.38357430  0.85180146  0.82516009  1.0
  C  C341  1  0.61642594  0.85180096  0.67483951  1.0
  C  C342  1  0.11642616  0.64819882  0.82516119  1.0
  C  C343  1  0.88357453  0.64819957  0.67483951  1.0
  C  C344  1  0.61284001  0.75854330  0.20308516  1.0
  C  C345  1  0.38716353  0.75854277  0.29691498  1.0
  C  C346  1  0.88716146  0.74145764  0.20308462  1.0
  C  C347  1  0.11283614  0.74145698  0.29691594  1.0
  C  C348  1  0.38715990  0.24145633  0.79691500  1.0
  C  C349  1  0.61283838  0.24145742  0.70308362  1.0
  C  C350  1  0.11284111  0.25854367  0.79691554  1.0
  C  C351  1  0.88716244  0.25854265  0.70308422  1.0
  C  C352  1  0.66715654  0.08409268  0.16767186  1.0
  C  C353  1  0.33284319  0.08409101  0.33232701  1.0
  C  C354  1  0.83284351  0.41590801  0.16767228  1.0
  C  C355  1  0.16715747  0.41590882  0.33232918  1.0
  C  C356  1  0.33284403  0.91590807  0.83232752  1.0
  C  C357  1  0.66715606  0.91590919  0.66767198  1.0
  C  C358  1  0.16715574  0.58409107  0.83232788  1.0
  C  C359  1  0.83284510  0.58409248  0.66767175  1.0
  C  C360  1  0.01648571  0.92340995  0.92967404  1.0
  C  C361  1  0.98351503  0.92340865  0.57032584  1.0
  C  C362  1  0.48351504  0.57659167  0.92967442  1.0
  C  C363  1  0.51648581  0.57658999  0.57032523  1.0
  C  C364  1  0.98351487  0.07658801  0.07032650  1.0
  C  C365  1  0.01648621  0.07658708  0.42967355  1.0
  C  C366  1  0.51648420  0.42341020  0.07032574  1.0
  C  C367  1  0.48351477  0.42340965  0.42967454  1.0
  C  C368  1  0.77371278  0.98565102  0.02693667  1.0
  C  C369  1  0.22628893  0.98565017  0.47306390  1.0
  C  C370  1  0.72629065  0.51435217  0.02693590  1.0
  C  C371  1  0.27370945  0.51435236  0.47306502  1.0
  C  C372  1  0.22628912  0.01434862  0.97306349  1.0
  C  C373  1  0.77370965  0.01435170  0.52693470  1.0
  C  C374  1  0.27371192  0.48565137  0.97306309  1.0
  C  C375  1  0.72628780  0.48565174  0.52693670  1.0
  C  C376  1  0.71766774  0.98977008  0.06972792  1.0
  C  C377  1  0.28233396  0.98976872  0.43027303  1.0
  C  C378  1  0.78233487  0.51023353  0.06972631  1.0
  C  C379  1  0.21766391  0.51023283  0.43027461  1.0
  C  C380  1  0.28233417  0.01023179  0.93027341  1.0
  C  C381  1  0.71766462  0.01023315  0.56972557  1.0
  C  C382  1  0.21766637  0.48977002  0.93027230  1.0
  C  C383  1  0.78233401  0.48976960  0.56972671  1.0
  C  C384  1  0.98919290  0.91297180  0.98019050  1.0
  C  C385  1  0.01080720  0.91297109  0.51980901  1.0
  C  C386  1  0.51080781  0.58702941  0.98019105  1.0
  C  C387  1  0.48919301  0.58702850  0.51980859  1.0
  C  C388  1  0.01080701  0.08702783  0.01980927  1.0
  C  C389  1  0.98919272  0.08702631  0.48018960  1.0
  C  C390  1  0.48919210  0.41297245  0.01980911  1.0
  C  C391  1  0.51080823  0.41297113  0.48019002  1.0
  N  N392  1  0.60987293  0.70444846  0.28987498  1.0
  N  N393  1  0.39013273  0.70444987  0.21012447  1.0
  N  N394  1  0.89012624  0.79555165  0.28987552  1.0
  N  N395  1  0.10986725  0.79555016  0.21012573  1.0
  N  N396  1  0.39012499  0.29555118  0.71012401  1.0
  N  N397  1  0.60987250  0.29555032  0.78987530  1.0
  N  N398  1  0.10987367  0.20444966  0.71012386  1.0
  N  N399  1  0.89013001  0.20444892  0.78987520  1.0
  N  N400  1  0.67609382  0.94809561  0.15679499  1.0
  N  N401  1  0.32390731  0.94809335  0.34320602  1.0
  N  N402  1  0.82390915  0.55190604  0.15679560  1.0
  N  N403  1  0.17609154  0.55190625  0.34320564  1.0
  N  N404  1  0.32390675  0.05190570  0.84320517  1.0
  N  N405  1  0.67608995  0.05190684  0.65679453  1.0
  N  N406  1  0.17609210  0.44809416  0.84320572  1.0
  N  N407  1  0.82390971  0.44809506  0.65679374  1.0
  N  N408  1  0.43078583  0.32658583  0.19461633  1.0
  N  N409  1  0.56921402  0.32658386  0.30538449  1.0
  N  N410  1  0.06921133  0.17341389  0.19461823  1.0
  N  N411  1  0.93078821  0.17341471  0.30538400  1.0
  N  N412  1  0.56921208  0.67341492  0.80538344  1.0
  N  N413  1  0.43078589  0.67341410  0.69461450  1.0
  N  N414  1  0.93078792  0.82658574  0.80538426  1.0
  N  N415  1  0.06921437  0.82658493  0.69461849  1.0
  N  N416  1  0.94504661  0.94631436  0.90006268  1.0
  N  N417  1  0.05495408  0.94631108  0.59993833  1.0
  N  N418  1  0.55495439  0.55368712  0.90006206  1.0
  N  N419  1  0.44504585  0.55368434  0.59993685  1.0
  N  N420  1  0.05495330  0.05368472  0.09993864  1.0
  N  N421  1  0.94504650  0.05368297  0.40006183  1.0
  N  N422  1  0.44504486  0.44631475  0.09993732  1.0
  N  N423  1  0.55495473  0.44631473  0.40006254  1.0
  N  N424  1  0.47123910  0.20808806  0.18817919  1.0
  N  N425  1  0.52876036  0.20808558  0.31182143  1.0
  N  N426  1  0.02875808  0.29191223  0.18818056  1.0
  N  N427  1  0.97124118  0.29191241  0.31182032  1.0
  N  N428  1  0.52875948  0.79191269  0.81182136  1.0
  N  N429  1  0.47124022  0.79191293  0.68817834  1.0
  N  N430  1  0.97123983  0.70808796  0.81182193  1.0
  N  N431  1  0.02876072  0.70808722  0.68818023  1.0
  N  N432  1  0.89916418  0.93016340  0.98119063  1.0
  N  N433  1  0.10083654  0.93016143  0.51880924  1.0
  N  N434  1  0.60083786  0.56983949  0.98118993  1.0
  N  N435  1  0.39916500  0.56983649  0.51880934  1.0
  N  N436  1  0.10083573  0.06983512  0.01880992  1.0
  N  N437  1  0.89916403  0.06983486  0.48118937  1.0
  N  N438  1  0.39916405  0.43016405  0.01880906  1.0
  N  N439  1  0.60083690  0.43016482  0.48119082  1.0
  N  N440  1  0.58341018  0.58820731  0.31498585  1.0
  N  N441  1  0.41659441  0.58820877  0.18501417  1.0
  N  N442  1  0.91658757  0.91179215  0.31498578  1.0
  N  N443  1  0.08340499  0.91179190  0.18501490  1.0
  N  N444  1  0.41658574  0.41179232  0.68501353  1.0
  N  N445  1  0.58341082  0.41179254  0.81498599  1.0
  N  N446  1  0.08341168  0.08820749  0.68501360  1.0
  N  N447  1  0.91658960  0.08820829  0.81498643  1.0
  Cl  Cl448  1  0.24950588  0.45753927  0.17518417  1.0
  Cl  Cl449  1  0.75049368  0.45753472  0.32481334  1.0
  Cl  Cl450  1  0.25049201  0.04245716  0.17518760  1.0
  Cl  Cl451  1  0.74950714  0.04245541  0.32481483  1.0
  Cl  Cl452  1  0.75049270  0.54246595  0.82481560  1.0
  Cl  Cl453  1  0.24950623  0.54245430  0.67518604  1.0
  Cl  Cl454  1  0.74950657  0.95753912  0.82481567  1.0
  Cl  Cl455  1  0.25049210  0.95754143  0.67518416  1.0
  Cl  Cl456  1  0.40049571  0.46519204  0.29581013  1.0
  Cl  Cl457  1  0.59950317  0.46519314  0.20419164  1.0
  Cl  Cl458  1  0.09950043  0.03480903  0.29580598  1.0
  Cl  Cl459  1  0.90049077  0.03480910  0.20419102  1.0
  Cl  Cl460  1  0.59950021  0.53481430  0.70418964  1.0
  Cl  Cl461  1  0.40049208  0.53480816  0.79580735  1.0
  Cl  Cl462  1  0.90049483  0.96518446  0.70419184  1.0
  Cl  Cl463  1  0.09950316  0.96518327  0.79580720  1.0
