# generated using pymatgen
data_Zn4H8C24S4Br4N4O13
_symmetry_space_group_name_H-M   'P 1'
_cell_length_a   19.54372630
_cell_length_b   19.55565406
_cell_length_c   33.11913206
_cell_angle_alpha   79.57601473
_cell_angle_beta   79.62061806
_cell_angle_gamma   64.20098744
_symmetry_Int_Tables_number   1
_chemical_formula_structural   Zn4H8C24S4Br4N4O13
_chemical_formula_sum   'Zn16 H32 C96 S16 Br16 N16 O52'
_cell_volume   11134.31275608
_cell_formula_units_Z   4
loop_
 _symmetry_equiv_pos_site_id
 _symmetry_equiv_pos_as_xyz
  1  'x, y, z'
loop_
 _atom_site_type_symbol
 _atom_site_label
 _atom_site_symmetry_multiplicity
 _atom_site_fract_x
 _atom_site_fract_y
 _atom_site_fract_z
 _atom_site_occupancy
  Zn  Zn0  1  0.60261952  0.94710869  0.51886050  1.0
  Zn  Zn1  1  0.52380975  0.01038761  0.44049354  1.0
  Zn  Zn2  1  0.43354267  0.94663160  0.51729822  1.0
  Zn  Zn3  1  0.44154009  0.09559486  0.52487404  1.0
  Zn  Zn4  1  0.65341831  0.30904811  0.72524807  1.0
  Zn  Zn5  1  0.80390361  0.31606857  0.73305143  1.0
  Zn  Zn6  1  0.73918426  0.22641070  0.81010944  1.0
  Zn  Zn7  1  0.80159284  0.14882506  0.73186867  1.0
  Zn  Zn8  1  0.23948059  0.72640544  0.30973522  1.0
  Zn  Zn9  1  0.30240862  0.64803268  0.23173686  1.0
  Zn  Zn10  1  0.15377291  0.80880012  0.22514019  1.0
  Zn  Zn11  1  0.30400196  0.81606133  0.23296234  1.0
  Zn  Zn12  1  0.93330386  0.44646528  0.01702501  1.0
  Zn  Zn13  1  0.94145924  0.59474429  0.02458163  1.0
  Zn  Zn14  1  0.10233501  0.44711128  0.01871842  1.0
  Zn  Zn15  1  0.02306811  0.51075202  0.93987966  1.0
  H  H16  1  0.45113743  0.68070922  0.59222774  1.0
  H  H17  1  0.44918631  0.76853939  0.56787804  1.0
  H  H18  1  0.79744555  0.57840119  0.65263164  1.0
  H  H19  1  0.80047118  0.48926168  0.67532481  1.0
  H  H20  1  0.45294395  0.22740116  0.31636857  1.0
  H  H21  1  0.47441189  0.15836372  0.35919427  1.0
  H  H22  1  0.29605770  0.51190750  0.43793355  1.0
  H  H23  1  0.27203958  0.58040605  0.39480076  1.0
  H  H24  1  0.73835362  0.95410791  0.31205303  1.0
  H  H25  1  0.66955718  0.97810051  0.35505615  1.0
  H  H26  1  0.02247237  0.79817913  0.43400798  1.0
  H  H27  1  0.09169599  0.77623947  0.39133185  1.0
  H  H28  1  0.19014285  0.25924273  0.61617854  1.0
  H  H29  1  0.26843593  0.20663052  0.58268996  1.0
  H  H30  1  0.04581926  0.99731090  0.63485014  1.0
  H  H31  1  0.96611623  0.05068168  0.66696004  1.0
  H  H32  1  0.52235245  0.29456983  0.93416339  1.0
  H  H33  1  0.59168534  0.27310759  0.89139615  1.0
  H  H34  1  0.23810632  0.45643962  0.81204719  1.0
  H  H35  1  0.16910974  0.48000699  0.85502293  1.0
  H  H36  1  0.91612603  0.84946075  0.77495157  1.0
  H  H37  1  0.88472782  0.94828216  0.76223918  1.0
  H  H38  1  0.84247874  0.88919455  0.97799220  1.0
  H  H39  1  0.87625345  0.79055796  0.99123328  1.0
  H  H40  1  0.54668982  0.49693050  0.13540614  1.0
  H  H41  1  0.46670106  0.55030987  0.16754774  1.0
  H  H42  1  0.69166673  0.75826476  0.11722146  1.0
  H  H43  1  0.76954743  0.70587990  0.08353718  1.0
  H  H44  1  0.29750046  0.07843699  0.15233977  1.0
  H  H45  1  0.30050824  0.98925055  0.17516354  1.0
  H  H46  1  0.95188174  0.17998469  0.09134642  1.0
  H  H47  1  0.94925894  0.26822714  0.06762744  1.0
  C  C48  1  0.69034285  0.93751029  0.43624317  1.0
  C  C49  1  0.43210931  0.93268935  0.43183937  1.0
  C  C50  1  0.55884807  0.82180469  0.56031314  1.0
  C  C51  1  0.30913845  0.06384772  0.56327318  1.0
  C  C52  1  0.56744944  0.06877980  0.56793681  1.0
  C  C53  1  0.44185593  0.17857657  0.44052581  1.0
  C  C54  1  0.68743996  0.43991269  0.68620481  1.0
  C  C55  1  0.81768021  0.31789086  0.81807091  1.0
  C  C56  1  0.57118068  0.30771611  0.80978525  1.0
  C  C57  1  0.81404162  0.05915600  0.81328122  1.0
  C  C58  1  0.68324123  0.18111357  0.68179365  1.0
  C  C59  1  0.92938172  0.18917411  0.69128004  1.0
  C  C60  1  0.31346270  0.55956443  0.31386143  1.0
  C  C61  1  0.18301019  0.68107642  0.18197251  1.0
  C  C62  1  0.07162401  0.80749474  0.30985896  1.0
  C  C63  1  0.18739079  0.94001107  0.18628894  1.0
  C  C64  1  0.31728486  0.81777465  0.31844744  1.0
  C  C65  1  0.42979968  0.68947854  0.19149402  1.0
  C  C66  1  0.80906386  0.56415051  0.06323052  1.0
  C  C67  1  0.06667776  0.56969455  0.06777676  1.0
  C  C68  1  0.05828096  0.32221221  0.06060211  1.0
  C  C69  1  0.18999525  0.43765695  0.93633626  1.0
  C  C70  1  0.93203431  0.43190300  0.93199506  1.0
  C  C71  1  0.93839197  0.67866207  0.94040561  1.0
  C  C72  1  0.59734066  0.09769913  0.59723311  1.0
  C  C73  1  0.65348177  0.15217770  0.65242988  1.0
  C  C74  1  0.55509035  0.17140672  0.60980074  1.0
  C  C75  1  0.69820507  0.08088291  0.63733063  1.0
  C  C76  1  0.58010769  0.19589987  0.63943513  1.0
  C  C77  1  0.66827385  0.05157465  0.61257709  1.0
  C  C78  1  0.40253979  0.90301571  0.40265685  1.0
  C  C79  1  0.34698733  0.84716003  0.34769605  1.0
  C  C80  1  0.36031481  0.85884422  0.41797056  1.0
  C  C81  1  0.39394703  0.88637542  0.33242827  1.0
  C  C82  1  0.32842792  0.83616933  0.39083746  1.0
  C  C83  1  0.41644251  0.91867385  0.35940862  1.0
  C  C84  1  0.54267035  0.70252747  0.59739368  1.0
  C  C85  1  0.70409624  0.55853913  0.64864482  1.0
  C  C86  1  0.58341466  0.74847552  0.58520216  1.0
  C  C87  1  0.66275056  0.51324070  0.66136277  1.0
  C  C88  1  0.65888337  0.62844033  0.62587336  1.0
  C  C89  1  0.58695786  0.63374640  0.62127554  1.0
  C  C90  1  0.42698828  0.26721063  0.37276720  1.0
  C  C91  1  0.32708963  0.47102079  0.38147345  1.0
  C  C92  1  0.41799665  0.25240057  0.41610230  1.0
  C  C93  1  0.33740678  0.48571426  0.33815039  1.0
  C  C94  1  0.36156299  0.39074513  0.39382947  1.0
  C  C95  1  0.39486638  0.34755672  0.36050663  1.0
  C  C96  1  0.77898304  0.92316261  0.36864464  1.0
  C  C97  1  0.98285454  0.82326483  0.37757711  1.0
  C  C98  1  0.76423071  0.91331413  0.41198784  1.0
  C  C99  1  0.99773164  0.83162117  0.33422794  1.0
  C  C100  1  0.90246048  0.85558647  0.38976163  1.0
  C  C101  1  0.85930867  0.88850578  0.35636694  1.0
  C  C102  1  0.19372805  0.15833595  0.60398642  1.0
  C  C103  1  0.04438719  0.09500623  0.64991499  1.0
  C  C104  1  0.23520904  0.08821374  0.58748193  1.0
  C  C105  1  0.00342589  0.16452037  0.66704317  1.0
  C  C106  1  0.11475464  0.09276060  0.62763226  1.0
  C  C107  1  0.12462538  0.15944251  0.62754055  1.0
  C  C108  1  0.84716784  0.34714868  0.84745404  1.0
  C  C109  1  0.90249833  0.40256510  0.90266786  1.0
  C  C110  1  0.82976898  0.33447674  0.89063821  1.0
  C  C111  1  0.91517663  0.41993411  0.85948407  1.0
  C  C112  1  0.86164045  0.35708241  0.91780507  1.0
  C  C113  1  0.89285839  0.38777986  0.83234666  1.0
  C  C114  1  0.48253426  0.32277479  0.87752826  1.0
  C  C115  1  0.27859717  0.42396617  0.86871927  1.0
  C  C116  1  0.49733235  0.33190466  0.83416793  1.0
  C  C117  1  0.26385535  0.41349627  0.91205836  1.0
  C  C118  1  0.35893196  0.38920360  0.85641623  1.0
  C  C119  1  0.40211233  0.35550458  0.88975803  1.0
  C  C120  1  0.87804697  0.91350734  0.82365274  1.0
  C  C121  1  0.87589224  0.82452414  0.92995859  1.0
  C  C122  1  0.83911382  0.98576345  0.83802841  1.0
  C  C123  1  0.91338501  0.75216560  0.91566466  1.0
  C  C124  1  0.86186001  0.88309799  0.89590906  1.0
  C  C125  1  0.88982728  0.85478641  0.85761437  1.0
  C  C126  1  0.15297585  0.65207476  0.15274155  1.0
  C  C127  1  0.09656210  0.59828149  0.09726980  1.0
  C  C128  1  0.07987172  0.69636713  0.13945967  1.0
  C  C129  1  0.16692015  0.55153756  0.11307716  1.0
  C  C130  1  0.05487253  0.67209418  0.10973771  1.0
  C  C131  1  0.19715887  0.58036933  0.13796170  1.0
  C  C132  1  0.54447518  0.59548948  0.14997746  1.0
  C  C133  1  0.69408473  0.65847589  0.10422086  1.0
  C  C134  1  0.50376164  0.66489185  0.16727541  1.0
  C  C135  1  0.73521243  0.58856158  0.08750258  1.0
  C  C136  1  0.62494334  0.65972429  0.12773350  1.0
  C  C137  1  0.61479994  0.59327023  0.12763788  1.0
  C  C138  1  0.20389905  0.05865300  0.14865222  1.0
  C  C139  1  0.04243828  0.20254020  0.09736663  1.0
  C  C140  1  0.16268598  0.01319221  0.16132928  1.0
  C  C141  1  0.08294966  0.24873275  0.08540601  1.0
  C  C142  1  0.08681207  0.13369684  0.12119886  1.0
  C  C143  1  0.15861585  0.12855818  0.12591256  1.0
  S  S144  1  0.67392554  0.70769321  0.60249269  1.0
  S  S145  1  0.57128388  0.55515619  0.64527024  1.0
  S  S146  1  0.37057147  0.33523347  0.44097877  1.0
  S  S147  1  0.38719426  0.40298325  0.31335492  1.0
  S  S148  1  0.84696991  0.86375115  0.43687766  1.0
  S  S149  1  0.91488437  0.87881295  0.30925539  1.0
  S  S150  1  0.18984947  0.02599683  0.60016023  1.0
  S  S151  1  0.05008915  0.22560221  0.65562839  1.0
  S  S152  1  0.41442133  0.38002822  0.80927446  1.0
  S  S153  1  0.34664494  0.36317360  0.93687666  1.0
  S  S154  1  0.81865066  0.98147022  0.89182719  1.0
  S  S155  1  0.93155881  0.75635291  0.86177637  1.0
  S  S156  1  0.55066922  0.72580023  0.15598722  1.0
  S  S157  1  0.68957712  0.52661371  0.09997922  1.0
  S  S158  1  0.07128357  0.05497462  0.14511033  1.0
  S  S159  1  0.17338917  0.20806816  0.10276495  1.0
  Br  Br160  1  0.46645340  0.24186876  0.58487346  1.0
  Br  Br161  1  0.80224352  0.02426717  0.64731981  1.0
  Br  Br162  1  0.51121618  0.28595804  0.66335402  1.0
  Br  Br163  1  0.72252021  0.94770375  0.60258991  1.0
  Br  Br164  1  0.34881329  0.82465362  0.47519122  1.0
  Br  Br165  1  0.43260812  0.89163121  0.27563640  1.0
  Br  Br166  1  0.25578367  0.79512229  0.41362579  1.0
  Br  Br167  1  0.46109803  0.98811105  0.33584173  1.0
  Br  Br168  1  0.75942395  0.29072349  0.91351635  1.0
  Br  Br169  1  0.95743228  0.49146995  0.83671888  1.0
  Br  Br170  1  0.85236219  0.32088452  0.97486744  1.0
  Br  Br171  1  0.93058459  0.39521710  0.77546352  1.0
  Br  Br172  1  0.01122154  0.78673296  0.16321812  1.0
  Br  Br173  1  0.21985985  0.44734978  0.10358352  1.0
  Br  Br174  1  0.96637532  0.74330989  0.08473384  1.0
  Br  Br175  1  0.30037813  0.52215157  0.14884883  1.0
  N  N176  1  0.47056125  0.72184394  0.58883318  1.0
  N  N177  1  0.77721165  0.53789696  0.65588056  1.0
  N  N178  1  0.46327511  0.21290578  0.34628422  1.0
  N  N179  1  0.28798369  0.52519668  0.40770853  1.0
  N  N180  1  0.72486034  0.96199538  0.34229564  1.0
  N  N181  1  0.03711581  0.78735399  0.40417940  1.0
  N  N182  1  0.21512822  0.21727060  0.59749339  1.0
  N  N183  1  0.02153803  0.03703602  0.65493352  1.0
  N  N184  1  0.53671993  0.28590784  0.90402453  1.0
  N  N185  1  0.22454955  0.46326592  0.84241766  1.0
  N  N186  1  0.90292824  0.90130644  0.78339491  1.0
  N  N187  1  0.85383988  0.83718054  0.97036752  1.0
  N  N188  1  0.52157377  0.53772243  0.15483045  1.0
  N  N189  1  0.71584344  0.71722378  0.09794152  1.0
  N  N190  1  0.27689111  0.03816339  0.15598686  1.0
  N  N191  1  0.97038083  0.22167340  0.08871484  1.0
  O  O192  1  0.50030969  0.99988071  0.50029296  1.0
  O  O193  1  0.68852277  0.91729942  0.47536162  1.0
  O  O194  1  0.49676154  0.93516542  0.42053501  1.0
  O  O195  1  0.49481235  0.84571677  0.54482165  1.0
  O  O196  1  0.63093531  0.97773951  0.41664477  1.0
  O  O197  1  0.60256705  0.85703186  0.55547677  1.0
  O  O198  1  0.39013551  0.95289350  0.46539623  1.0
  O  O199  1  0.34064250  0.99481107  0.55410283  1.0
  O  O200  1  0.49596222  0.08644198  0.57263739  1.0
  O  O201  1  0.33862951  0.11320898  0.55263620  1.0
  O  O202  1  0.61594428  0.02908319  0.54079617  1.0
  O  O203  1  0.47028337  0.11918608  0.42049750  1.0
  O  O204  1  0.43265404  0.17798091  0.47998290  1.0
  O  O205  1  0.74944832  0.25030742  0.75003832  1.0
  O  O206  1  0.63879892  0.41034886  0.69730627  1.0
  O  O207  1  0.79743722  0.36024615  0.78455297  1.0
  O  O208  1  0.63055039  0.27939217  0.82988724  1.0
  O  O209  1  0.75692149  0.40935235  0.69564681  1.0
  O  O210  1  0.57184282  0.31649876  0.77030915  1.0
  O  O211  1  0.81532116  0.25318944  0.82912299  1.0
  O  O212  1  0.77309023  0.11859866  0.83199955  1.0
  O  O213  1  0.72345450  0.13172844  0.70857702  1.0
  O  O214  1  0.83445590  0.05974614  0.77383360  1.0
  O  O215  1  0.66608439  0.25235293  0.67754699  1.0
  O  O216  1  0.90458356  0.25284676  0.70649565  1.0
  O  O217  1  0.89416754  0.14496209  0.69547525  1.0
  O  O218  1  0.24984097  0.75001427  0.24991068  1.0
  O  O219  1  0.27296426  0.61895799  0.33333333  1.0
  O  O220  1  0.22335321  0.63193821  0.20875627  1.0
  O  O221  1  0.07240322  0.81589485  0.27042172  1.0
  O  O222  1  0.33411873  0.56138317  0.27477639  1.0
  O  O223  1  0.13095931  0.77955093  0.33000143  1.0
  O  O224  1  0.16583430  0.75237544  0.17756059  1.0
  O  O225  1  0.13883434  0.91034760  0.19750223  1.0
  O  O226  1  0.29709940  0.85988299  0.28489684  1.0
  O  O227  1  0.25687130  0.90957186  0.19579273  1.0
  O  O228  1  0.31473914  0.75319528  0.32980134  1.0
  O  O229  1  0.39449908  0.64540683  0.19550442  1.0
  O  O230  1  0.40505581  0.75303432  0.20689898  1.0
  O  O231  1  0.00024303  0.49965242  0.00001162  1.0
  O  O232  1  0.84045719  0.49527976  0.05391213  1.0
  O  O233  1  0.99500334  0.58836749  0.07215477  1.0
  O  O234  1  0.10179948  0.35762223  0.05591612  1.0
  O  O235  1  0.83860724  0.61349844  0.05273373  1.0
  O  O236  1  0.99433315  0.34599011  0.04508152  1.0
  O  O237  1  0.11520856  0.52942136  0.04089295  1.0
  O  O238  1  0.18830952  0.41703327  0.97545511  1.0
  O  O239  1  0.99688632  0.43400880  0.92095497  1.0
  O  O240  1  0.13057207  0.47823365  0.91683297  1.0
  O  O241  1  0.88978151  0.45214390  0.96550637  1.0
  O  O242  1  0.92970000  0.67908693  0.98011810  1.0
  O  O243  1  0.96729368  0.61912882  0.92104867  1.0
