# generated using pymatgen
data_ZnH40C34N9O4
_symmetry_space_group_name_H-M   'P 1'
_cell_length_a   17.78984112
_cell_length_b   18.17963586
_cell_length_c   19.62265106
_cell_angle_alpha   89.96385292
_cell_angle_beta   88.79664670
_cell_angle_gamma   89.96416072
_symmetry_Int_Tables_number   1
_chemical_formula_structural   ZnH40C34N9O4
_chemical_formula_sum   'Zn2 H80 C68 N18 O8'
_cell_volume   6344.81510943
_cell_formula_units_Z   2
loop_
 _symmetry_equiv_pos_site_id
 _symmetry_equiv_pos_as_xyz
  1  'x, y, z'
loop_
 _atom_site_type_symbol
 _atom_site_label
 _atom_site_symmetry_multiplicity
 _atom_site_fract_x
 _atom_site_fract_y
 _atom_site_fract_z
 _atom_site_occupancy
  Zn  Zn0  1  0.49972605  0.57482737  0.50060548  1.0
  Zn  Zn1  1  0.49976013  0.42454272  0.49920616  1.0
  H  H2  1  0.05921979  0.56504123  0.39841581  1.0
  H  H3  1  0.86947197  0.68587134  0.59349033  1.0
  H  H4  1  0.90404042  0.65878218  0.67484122  1.0
  H  H5  1  0.80732727  0.64505934  0.65473282  1.0
  H  H6  1  0.04860703  0.45785849  0.59915571  1.0
  H  H7  1  0.10535169  0.33169451  0.59106270  1.0
  H  H8  1  0.07370688  0.36115036  0.67388936  1.0
  H  H9  1  0.17150097  0.36476841  0.65055420  1.0
  H  H10  1  0.33145230  0.56695328  0.39780061  1.0
  H  H11  1  0.30393965  0.54635758  0.28187606  1.0
  H  H12  1  0.21021009  0.51999846  0.30535893  1.0
  H  H13  1  0.13007551  0.68535519  0.40384814  1.0
  H  H14  1  0.28732987  0.46122145  0.32499090  1.0
  H  H15  1  0.67958717  0.43532477  0.39712118  1.0
  H  H16  1  0.71341460  0.45603292  0.28101827  1.0
  H  H17  1  0.80382492  0.48765458  0.30583217  1.0
  H  H18  1  0.72221504  0.54218943  0.32366093  1.0
  H  H19  1  0.66844424  0.56655659  0.60216025  1.0
  H  H20  1  0.69716167  0.54671046  0.71787757  1.0
  H  H21  1  0.79109911  0.52129917  0.69396427  1.0
  H  H22  1  0.71460926  0.46151150  0.67524913  1.0
  H  H23  1  0.31989604  0.43555138  0.60259463  1.0
  H  H24  1  0.09586902  0.65718915  0.32272140  1.0
  H  H25  1  0.28626670  0.45764484  0.71853863  1.0
  H  H26  1  0.19599933  0.48944449  0.69340020  1.0
  H  H27  1  0.27784522  0.54332778  0.67487706  1.0
  H  H28  1  0.49537670  0.31735344  0.75439204  1.0
  H  H29  1  0.37172886  0.34777743  0.69992174  1.0
  H  H30  1  0.43004306  0.27858218  0.66132769  1.0
  H  H31  1  0.42899926  0.36805505  0.62627275  1.0
  H  H32  1  0.47338662  0.67020565  0.25421673  1.0
  H  H33  1  0.60945292  0.67320710  0.26183971  1.0
  H  H34  1  0.59748318  0.62803697  0.34265659  1.0
  H  H35  1  0.19253398  0.64391173  0.34327155  1.0
  H  H36  1  0.56142293  0.71839692  0.33145357  1.0
  H  H37  1  0.50321751  0.32125103  0.24420222  1.0
  H  H38  1  0.62734315  0.34663986  0.29929362  1.0
  H  H39  1  0.56626794  0.27975258  0.33792593  1.0
  H  H40  1  0.57060904  0.36918135  0.37271125  1.0
  H  H41  1  0.53911719  0.66496542  0.74439243  1.0
  H  H42  1  0.40286086  0.67205806  0.74360312  1.0
  H  H43  1  0.40850433  0.62716020  0.66226974  1.0
  H  H44  1  0.44779604  0.71639017  0.67181412  1.0
  H  H45  1  0.50330421  0.37572848  0.84469603  1.0
  H  H46  1  0.95082951  0.45732738  0.40007139  1.0
  H  H47  1  0.49006230  0.61641762  0.15723100  1.0
  H  H48  1  0.49991399  0.38068776  0.15398557  1.0
  H  H49  1  0.52045287  0.61124300  0.84241519  1.0
  H  H50  1  0.58920142  0.58364620  0.94002794  1.0
  H  H51  1  0.41637808  0.40944515  0.05966499  1.0
  H  H52  1  0.57591473  0.58704590  0.06574275  1.0
  H  H53  1  0.42847835  0.40690268  0.93391529  1.0
  H  H54  1  0.38834848  0.69031010  0.53298462  1.0
  H  H55  1  0.58343104  0.30970114  0.57069876  1.0
  H  H56  1  0.61145188  0.68999729  0.46970968  1.0
  H  H57  1  0.89438810  0.33127426  0.40976594  1.0
  H  H58  1  0.41581616  0.30921900  0.42780832  1.0
  H  H59  1  0.33218531  0.79415265  0.56310397  1.0
  H  H60  1  0.27651123  0.90332563  0.53181571  1.0
  H  H61  1  0.31205086  0.86473945  0.45369717  1.0
  H  H62  1  0.36177506  0.93660501  0.49519305  1.0
  H  H63  1  0.62634900  0.20547876  0.61313418  1.0
  H  H64  1  0.69543682  0.09944104  0.59914434  1.0
  H  H65  1  0.69260854  0.13820516  0.51542051  1.0
  H  H66  1  0.63175145  0.06407964  0.53915928  1.0
  H  H67  1  0.66763881  0.79354969  0.43892941  1.0
  H  H68  1  0.92561766  0.35968682  0.32646520  1.0
  H  H69  1  0.72310262  0.90330770  0.46872983  1.0
  H  H70  1  0.68828260  0.86537215  0.54740501  1.0
  H  H71  1  0.63794280  0.93666787  0.50551808  1.0
  H  H72  1  0.37266855  0.20468311  0.38642026  1.0
  H  H73  1  0.30378048  0.09878406  0.40126712  1.0
  H  H74  1  0.30692821  0.13789814  0.48478226  1.0
  H  H75  1  0.36776882  0.06368403  0.46117915  1.0
  H  H76  1  0.52289458  0.93096622  0.39251643  1.0
  H  H77  1  0.47820412  0.06845111  0.60848447  1.0
  H  H78  1  0.47684040  0.93160491  0.60868966  1.0
  H  H79  1  0.82791873  0.36353831  0.35010659  1.0
  H  H80  1  0.52124593  0.06780395  0.39184861  1.0
  H  H81  1  0.94065256  0.56578056  0.60006762  1.0
  C  C82  1  0.50110416  0.49676779  0.36810492  1.0
  C  C83  1  0.46241937  0.44529194  0.96288569  1.0
  C  C84  1  0.49531757  0.49843519  0.07182141  1.0
  C  C85  1  0.51054980  0.49426100  0.92765304  1.0
  C  C86  1  0.43775401  0.72343192  0.51986714  1.0
  C  C87  1  0.54704583  0.27623144  0.53905378  1.0
  C  C88  1  0.56210377  0.72326073  0.48275424  1.0
  C  C89  1  0.45232186  0.27596298  0.45962176  1.0
  C  C90  1  0.43496227  0.80058711  0.52154854  1.0
  C  C91  1  0.54989422  0.19910667  0.54082007  1.0
  C  C92  1  0.56492081  0.80040600  0.48058704  1.0
  C  C93  1  0.50027846  0.49386014  0.63156832  1.0
  C  C94  1  0.44939489  0.19883034  0.45855453  1.0
  C  C95  1  0.49993759  0.84064224  0.50093751  1.0
  C  C96  1  0.49965374  0.15882531  0.49984068  1.0
  C  C97  1  0.51248396  0.96123611  0.43973257  1.0
  C  C98  1  0.48724395  0.03820337  0.56105377  1.0
  C  C99  1  0.48719502  0.96161229  0.56128007  1.0
  C  C100  1  0.51225534  0.03783272  0.43946820  1.0
  C  C101  1  0.49970359  0.07731059  0.50013006  1.0
  C  C102  1  0.49987989  0.92217126  0.50064110  1.0
  C  C103  1  0.64648196  0.50118476  0.49805086  1.0
  C  C104  1  0.51466913  0.49315853  0.85247508  1.0
  C  C105  1  0.35313380  0.50131897  0.50167918  1.0
  C  C106  1  0.15525364  0.53879225  0.44274526  1.0
  C  C107  1  0.85053193  0.47519969  0.44380678  1.0
  C  C108  1  0.84452023  0.53902001  0.55625973  1.0
  C  C109  1  0.14899690  0.47545618  0.55554481  1.0
  C  C110  1  0.23453603  0.53373742  0.44230593  1.0
  C  C111  1  0.77121891  0.47395278  0.44240000  1.0
  C  C112  1  0.76525491  0.53376847  0.55704729  1.0
  C  C113  1  0.22829905  0.47418389  0.55708570  1.0
  C  C114  1  0.26952171  0.50259387  0.50016583  1.0
  C  C115  1  0.49175640  0.49828559  0.14700763  1.0
  C  C116  1  0.73005577  0.50248405  0.49935383  1.0
  C  C117  1  0.11376228  0.50884218  0.49893514  1.0
  C  C118  1  0.88588482  0.50883083  0.50013852  1.0
  C  C119  1  0.03437052  0.51155050  0.49866390  1.0
  C  C120  1  0.96527687  0.51154165  0.50025150  1.0
  C  C121  1  0.49833157  0.42574166  0.74550382  1.0
  C  C122  1  0.49963411  0.56435130  0.25504878  1.0
  C  C123  1  0.50343202  0.42956408  0.25381025  1.0
  C  C124  1  0.50894469  0.56006779  0.74466086  1.0
  C  C125  1  0.50621666  0.42761159  0.81662818  1.0
  C  C126  1  0.49965350  0.49301529  0.70770278  1.0
  C  C127  1  0.49272643  0.56386910  0.18410459  1.0
  C  C128  1  0.49606389  0.43213962  0.18260754  1.0
  C  C129  1  0.51775874  0.55885468  0.81539347  1.0
  C  C130  1  0.13465236  0.64299479  0.36349383  1.0
  C  C131  1  0.88526324  0.37123727  0.36819671  1.0
  C  C132  1  0.86515304  0.64400475  0.63435421  1.0
  C  C133  1  0.11422943  0.37219607  0.63217353  1.0
  C  C134  1  0.26904790  0.51926366  0.32133758  1.0
  C  C135  1  0.74404569  0.48519591  0.32085245  1.0
  C  C136  1  0.73213837  0.51978835  0.67838051  1.0
  C  C137  1  0.50442687  0.49660766  0.29198602  1.0
  C  C138  1  0.25575768  0.48648886  0.67837133  1.0
  C  C139  1  0.42653854  0.33731578  0.67409429  1.0
  C  C140  1  0.57100776  0.66506888  0.30634575  1.0
  C  C141  1  0.57209167  0.33829751  0.32499859  1.0
  C  C142  1  0.43825793  0.66320243  0.69721889  1.0
  C  C143  1  0.32786431  0.88711495  0.50371677  1.0
  C  C144  1  0.65820271  0.11449145  0.55748499  1.0
  C  C145  1  0.67201152  0.88720057  0.49727256  1.0
  C  C146  1  0.34117963  0.11401518  0.44271146  1.0
  C  C147  1  0.55041482  0.54591317  0.96597037  1.0
  C  C148  1  0.45514246  0.44708235  0.03354923  1.0
  C  C149  1  0.54276991  0.54805682  0.03667427  1.0
  N  N150  1  0.49992133  0.68660414  0.50139076  1.0
  N  N151  1  0.26479347  0.44556727  0.61452771  1.0
  N  N152  1  0.49013851  0.35564023  0.71695557  1.0
  N  N153  1  0.49814339  0.63437623  0.28688363  1.0
  N  N154  1  0.50944107  0.35902521  0.28189236  1.0
  N  N155  1  0.51141700  0.63017484  0.71282084  1.0
  N  N156  1  0.36814422  0.83352388  0.54516914  1.0
  N  N157  1  0.60158722  0.16613492  0.58431686  1.0
  N  N158  1  0.63167604  0.83308036  0.45657979  1.0
  N  N159  1  0.39760484  0.16554796  0.41542262  1.0
  N  N160  1  0.49972458  0.31263221  0.49915195  1.0
  N  N161  1  0.11557389  0.56930952  0.38854085  1.0
  N  N162  1  0.89566690  0.44746916  0.39022573  1.0
  N  N163  1  0.88432070  0.57003182  0.61012129  1.0
  N  N164  1  0.10375275  0.44812515  0.60921478  1.0
  N  N165  1  0.27662691  0.55940024  0.38545861  1.0
  N  N166  1  0.73472143  0.44511344  0.38515920  1.0
  N  N167  1  0.72347482  0.55937190  0.61405424  1.0
  O  O168  1  0.52436416  0.55351603  0.39925260  1.0
  O  O169  1  0.52725859  0.43784564  0.60002521  1.0
  O  O170  1  0.47538443  0.55068800  0.60152371  1.0
  O  O171  1  0.47340565  0.44036078  0.39860801  1.0
  O  O172  1  0.61193539  0.55904373  0.51864748  1.0
  O  O173  1  0.38591261  0.44296741  0.52221553  1.0
  O  O174  1  0.38752073  0.55968276  0.48225839  1.0
  O  O175  1  0.61367587  0.44333080  0.47651835  1.0
