# generated using pymatgen
data_AlH8C13NO9
_symmetry_space_group_name_H-M   'P 1'
_cell_length_a   6.65648842
_cell_length_b   10.94223430
_cell_length_c   16.98953435
_cell_angle_alpha   85.04252769
_cell_angle_beta   81.92250796
_cell_angle_gamma   74.05541790
_symmetry_Int_Tables_number   1
_chemical_formula_structural   AlH8C13NO9
_chemical_formula_sum   'Al2 H16 C26 N2 O18'
_cell_volume   1176.56474307
_cell_formula_units_Z   2
loop_
 _symmetry_equiv_pos_site_id
 _symmetry_equiv_pos_as_xyz
  1  'x, y, z'
loop_
 _atom_site_type_symbol
 _atom_site_label
 _atom_site_symmetry_multiplicity
 _atom_site_fract_x
 _atom_site_fract_y
 _atom_site_fract_z
 _atom_site_occupancy
  Al  Al0  1  0.50689702  0.50587927  0.48042504  1.0
  Al  Al1  1  0.00404839  0.50651805  0.48512890  1.0
  H  H2  1  0.23353258  0.59827401  0.39156997  1.0
  H  H3  1  0.77472785  0.37471453  0.55359014  1.0
  H  H4  1  0.88348978  0.47542339  0.72590699  1.0
  H  H5  1  0.83690711  0.46627364  0.87451236  1.0
  H  H6  1  0.44941095  0.52935808  0.87133347  1.0
  H  H7  1  0.62764743  0.45414793  0.08824659  1.0
  H  H8  1  0.23434257  0.51880016  0.09699790  1.0
  H  H9  1  0.15947219  0.52466113  0.24444934  1.0
  H  H10  1  0.52178183  0.54623969  0.65925629  1.0
  H  H11  1  0.52112066  0.45174029  0.29942228  1.0
  H  H12  1  0.08237778  0.21231781  0.45912267  1.0
  H  H13  1  0.31564926  0.78381837  0.45958156  1.0
  H  H14  1  0.61648752  0.28610900  0.68194486  1.0
  H  H15  1  0.93124055  0.08815301  0.76260642  1.0
  H  H16  1  0.00205813  0.79186167  0.72763406  1.0
  H  H17  1  0.86348081  0.70318527  0.59492514  1.0
  C  C18  1  0.64373076  0.73729379  0.50070862  1.0
  C  C19  1  0.81236909  0.49912494  0.33778614  1.0
  C  C20  1  0.35396062  0.27567690  0.49655818  1.0
  C  C21  1  0.21168585  0.51297849  0.62700845  1.0
  C  C22  1  0.19120600  0.50735030  0.71431043  1.0
  C  C23  1  0.00690087  0.48592273  0.75828308  1.0
  C  C24  1  0.97961538  0.48136742  0.84029582  1.0
  C  C25  1  0.14064410  0.49782129  0.88093845  1.0
  C  C26  1  0.32658213  0.51689746  0.83904585  1.0
  C  C27  1  0.35368315  0.52209995  0.75560249  1.0
  C  C28  1  0.74306703  0.46962235  0.12317464  1.0
  C  C29  1  0.93317101  0.48740140  0.08454938  1.0
  C  C30  1  0.08642785  0.50660618  0.12826447  1.0
  C  C31  1  0.04323851  0.51006500  0.20994596  1.0
  C  C32  1  0.85241147  0.49292145  0.25081459  1.0
  C  C33  1  0.70177698  0.47022789  0.20627577  1.0
  C  C34  1  0.54804325  0.86842145  0.52395041  1.0
  C  C35  1  0.64024481  0.93821617  0.57193873  1.0
  C  C36  1  0.35795066  0.93211002  0.49354532  1.0
  C  C37  1  0.77919906  0.87582276  0.62755255  1.0
  C  C38  1  0.85503511  0.94397701  0.67677614  1.0
  C  C39  1  0.40237257  0.13949468  0.52162887  1.0
  C  C40  1  0.28466116  0.06852064  0.49276779  1.0
  C  C41  1  0.56853833  0.07609852  0.56978851  1.0
  C  C42  1  0.64480508  0.14123062  0.62273507  1.0
  C  C43  1  0.78916935  0.07596834  0.67386874  1.0
  N  N44  1  0.12733757  0.49788437  0.96496617  1.0
  N  N45  1  0.95346561  0.48515746  0.00073211  1.0
  O  O46  1  0.52737952  0.67866128  0.47179912  1.0
  O  O47  1  0.95116523  0.51887701  0.37600224  1.0
  O  O48  1  0.16407779  0.33036635  0.47895308  1.0
  O  O49  1  0.38015431  0.53634004  0.58854010  1.0
  O  O50  1  0.49689772  0.33364437  0.48850382  1.0
  O  O51  1  0.06514588  0.49499720  0.59249562  1.0
  O  O52  1  0.84037540  0.68216262  0.50464934  1.0
  O  O53  1  0.63240597  0.48491346  0.37200299  1.0
  O  O54  1  0.23995725  0.56583872  0.44638365  1.0
  O  O55  1  0.76572175  0.45125563  0.51893869  1.0
  O  O56  1  0.53627276  0.54023251  0.71744261  1.0
  O  O57  1  0.51844483  0.44885158  0.24085684  1.0
  O  O58  1  0.11235472  0.11780854  0.45613076  1.0
  O  O59  1  0.24172092  0.87721526  0.45770765  1.0
  O  O60  1  0.57014095  0.27076696  0.63222475  1.0
  O  O61  1  0.84903382  0.14675013  0.72497505  1.0
  O  O62  1  0.98404038  0.88331155  0.73215591  1.0
  O  O63  1  0.83836321  0.74753039  0.64548209  1.0
