# generated using pymatgen
data_Cu4H8C21N8
_symmetry_space_group_name_H-M   'P 1'
_cell_length_a   20.88679493
_cell_length_b   21.05348995
_cell_length_c   21.27324511
_cell_angle_alpha   89.72495527
_cell_angle_beta   90.05536757
_cell_angle_gamma   89.78775341
_symmetry_Int_Tables_number   1
_chemical_formula_structural   Cu4H8C21N8
_chemical_formula_sum   'Cu12 H24 C63 N24'
_cell_volume   9354.51875471
_cell_formula_units_Z   3
loop_
 _symmetry_equiv_pos_site_id
 _symmetry_equiv_pos_as_xyz
  1  'x, y, z'
loop_
 _atom_site_type_symbol
 _atom_site_label
 _atom_site_symmetry_multiplicity
 _atom_site_fract_x
 _atom_site_fract_y
 _atom_site_fract_z
 _atom_site_occupancy
  Cu  Cu0  1  0.75698637  0.75610689  0.85751110  1.0
  Cu  Cu1  1  0.86672796  0.75684536  0.75473140  1.0
  Cu  Cu2  1  0.75940424  0.86605132  0.75546802  1.0
  Cu  Cu3  1  0.75753713  0.24227185  0.13838203  1.0
  Cu  Cu4  1  0.86443699  0.24433790  0.24458078  1.0
  Cu  Cu5  1  0.75906040  0.13495770  0.24367640  1.0
  Cu  Cu6  1  0.24063636  0.75954147  0.13524937  1.0
  Cu  Cu7  1  0.13071696  0.76305359  0.23779107  1.0
  Cu  Cu8  1  0.24498550  0.86332806  0.24309395  1.0
  Cu  Cu9  1  0.23978738  0.23934276  0.86661192  1.0
  Cu  Cu10  1  0.13100136  0.23864043  0.76258472  1.0
  Cu  Cu11  1  0.24448369  0.13639761  0.75836741  1.0
  H  H12  1  0.80358922  0.64291136  0.94487471  1.0
  H  H13  1  0.95531989  0.64387017  0.80612186  1.0
  H  H14  1  0.64799715  0.95590844  0.80742102  1.0
  H  H15  1  0.64437072  0.80380248  0.94527950  1.0
  H  H16  1  0.95532147  0.80660113  0.64407622  1.0
  H  H17  1  0.81016073  0.95414011  0.64536796  1.0
  H  H18  1  0.80518629  0.35461592  0.05059032  1.0
  H  H19  1  0.95103885  0.35843095  0.19544132  1.0
  H  H20  1  0.64772199  0.04516137  0.19368520  1.0
  H  H21  1  0.64644553  0.19187801  0.05017201  1.0
  H  H22  1  0.95316139  0.19611735  0.35654968  1.0
  H  H23  1  0.80996567  0.04773007  0.35495581  1.0
  H  H24  1  0.19295610  0.64586088  0.04979673  1.0
  H  H25  1  0.04010602  0.65261391  0.18724048  1.0
  H  H26  1  0.36128434  0.94841723  0.19535310  1.0
  H  H27  1  0.35277435  0.80808827  0.04730889  1.0
  H  H28  1  0.04242218  0.81536027  0.34743846  1.0
  H  H29  1  0.20052607  0.94750343  0.35861111  1.0
  H  H30  1  0.19224025  0.35282482  0.95239114  1.0
  H  H31  1  0.04122309  0.35065503  0.81264970  1.0
  H  H32  1  0.36063582  0.04994709  0.80614299  1.0
  H  H33  1  0.35071235  0.18852677  0.95574902  1.0
  H  H34  1  0.04289421  0.18741044  0.65245253  1.0
  H  H35  1  0.20025790  0.05317508  0.64236016  1.0
  C  C36  1  0.83487135  0.65126481  0.90506313  1.0
  C  C37  1  0.89396702  0.62251830  0.89069331  1.0
  C  C38  1  0.91259340  0.65181436  0.83397925  1.0
  C  C39  1  0.65521428  0.91305605  0.83505719  1.0
  C  C40  1  0.62546496  0.89447681  0.89156923  1.0
  C  C41  1  0.65332276  0.83512817  0.90567994  1.0
  C  C42  1  0.91408221  0.83682315  0.65240895  1.0
  C  C43  1  0.89762940  0.89509790  0.62381312  1.0
  C  C44  1  0.83973685  0.91239124  0.65306435  1.0
  C  C45  1  0.83505055  0.34743007  0.09172701  1.0
  C  C46  1  0.89265822  0.37762208  0.10820299  1.0
  C  C47  1  0.90974756  0.34931918  0.16595310  1.0
  C  C48  1  0.65549000  0.08681584  0.16452850  1.0
  C  C49  1  0.62636277  0.10362489  0.10707219  1.0
  C  C50  1  0.65481112  0.16198419  0.09101890  1.0
  C  C51  1  0.91233930  0.16562961  0.34809204  1.0
  C  C52  1  0.89654589  0.10735079  0.37679640  1.0
  C  C53  1  0.83899823  0.08963533  0.34728493  1.0
  C  C54  1  0.16134623  0.65570931  0.08899014  1.0
  C  C55  1  0.10214984  0.62782478  0.10416437  1.0
  C  C56  1  0.08306938  0.65922492  0.15940880  1.0
  C  C57  1  0.35092932  0.90847365  0.16504565  1.0
  C  C58  1  0.37830210  0.89271818  0.10668096  1.0
  C  C59  1  0.34661702  0.83661113  0.08919229  1.0
  C  C60  1  0.08652625  0.84180973  0.34195492  1.0
  C  C61  1  0.10738190  0.89608208  0.37443825  1.0
  C  C62  1  0.16749063  0.90950367  0.34770573  1.0
  C  C63  1  0.16107989  0.34404290  0.91262002  1.0
  C  C64  1  0.10235154  0.37311489  0.89703312  1.0
  C  C65  1  0.08372545  0.34290801  0.84101996  1.0
  C  C66  1  0.34994443  0.08954979  0.83683924  1.0
  C  C67  1  0.37689276  0.10454205  0.89559734  1.0
  C  C68  1  0.34488673  0.16055188  0.91348293  1.0
  C  C69  1  0.08682032  0.16038936  0.65823464  1.0
  C  C70  1  0.10749692  0.10581136  0.62593090  1.0
  C  C71  1  0.16739826  0.09161178  0.65305122  1.0
  C  C72  1  0.00366843  0.00119846  0.50025095  1.0
  C  C73  1  0.99859697  0.50037414  0.00093764  1.0
  C  C74  1  0.50259076  0.99840102  0.00073519  1.0
  C  C75  1  0.92817808  0.57756924  0.92679234  1.0
  C  C76  1  0.95840191  0.54070612  0.95951065  1.0
  C  C77  1  0.92708997  0.42295108  0.07315980  1.0
  C  C78  1  0.95789991  0.46016763  0.04168640  1.0
  C  C79  1  0.06847771  0.58131317  0.07027359  1.0
  C  C80  1  0.03866325  0.54250908  0.04006147  1.0
  C  C81  1  0.06867919  0.41949657  0.93132627  1.0
  C  C82  1  0.03899561  0.45808765  0.96212243  1.0
  C  C83  1  0.58069042  0.92870208  0.92757109  1.0
  C  C84  1  0.54371429  0.95884450  0.95994711  1.0
  C  C85  1  0.42277092  0.06983394  0.93020926  1.0
  C  C86  1  0.46067649  0.03903179  0.96128569  1.0
  C  C87  1  0.58137524  0.06879740  0.07211087  1.0
  C  C88  1  0.54408255  0.03812497  0.04076835  1.0
  C  C89  1  0.42404793  0.92706160  0.07194944  1.0
  C  C90  1  0.46161444  0.95775776  0.04071398  1.0
  C  C91  1  0.93248162  0.92971278  0.57862109  1.0
  C  C92  1  0.96329772  0.96065478  0.54105192  1.0
  C  C93  1  0.07404923  0.93062259  0.42065476  1.0
  C  C94  1  0.04399648  0.96121024  0.45898517  1.0
  C  C95  1  0.07412653  0.07154043  0.57965851  1.0
  C  C96  1  0.04405598  0.04110287  0.54134093  1.0
  C  C97  1  0.93174486  0.07292506  0.42215488  1.0
  C  C98  1  0.96287926  0.04190322  0.45965253  1.0
  N  N99  1  0.86810597  0.69486980  0.81645346  1.0
  N  N100  1  0.81993576  0.69448159  0.86052584  1.0
  N  N101  1  0.69640248  0.81996147  0.86114671  1.0
  N  N102  1  0.69761043  0.86825384  0.81737587  1.0
  N  N103  1  0.82342944  0.86794568  0.69579088  1.0
  N  N104  1  0.86952289  0.82108200  0.69539963  1.0
  N  N105  1  0.86586786  0.30550032  0.18211155  1.0
  N  N106  1  0.81956439  0.30436446  0.13609699  1.0
  N  N107  1  0.69767776  0.17819789  0.13536488  1.0
  N  N108  1  0.69812520  0.13161629  0.18093019  1.0
  N  N109  1  0.82231364  0.13380769  0.30427124  1.0
  N  N110  1  0.86777127  0.18093608  0.30475592  1.0
  N  N111  1  0.12749886  0.70238749  0.17549653  1.0
  N  N112  1  0.17599290  0.70020428  0.13183822  1.0
  N  N113  1  0.30362251  0.82069017  0.13358718  1.0
  N  N114  1  0.30624777  0.86523822  0.18061752  1.0
  N  N115  1  0.18095229  0.86668233  0.30274643  1.0
  N  N116  1  0.13074925  0.82470860  0.29919709  1.0
  N  N117  1  0.12792078  0.29917629  0.82499071  1.0
  N  N118  1  0.17585613  0.29991415  0.86936878  1.0
  N  N119  1  0.30215726  0.17717519  0.86890016  1.0
  N  N120  1  0.30523442  0.13316802  0.82139662  1.0
  N  N121  1  0.18090641  0.13428252  0.69807145  1.0
  N  N122  1  0.13094726  0.17693461  0.70126073  1.0
