# generated using pymatgen
data_ZnH30C34NO6
_symmetry_space_group_name_H-M   'P 1'
_cell_length_a   10.94945885
_cell_length_b   18.57802409
_cell_length_c   19.59765156
_cell_angle_alpha   90.77080968
_cell_angle_beta   91.71961537
_cell_angle_gamma   90.52896128
_symmetry_Int_Tables_number   1
_chemical_formula_structural   ZnH30C34NO6
_chemical_formula_sum   'Zn2 H60 C68 N2 O12'
_cell_volume   3984.19964407
_cell_formula_units_Z   2
loop_
 _symmetry_equiv_pos_site_id
 _symmetry_equiv_pos_as_xyz
  1  'x, y, z'
loop_
 _atom_site_type_symbol
 _atom_site_label
 _atom_site_symmetry_multiplicity
 _atom_site_fract_x
 _atom_site_fract_y
 _atom_site_fract_z
 _atom_site_occupancy
  Zn  Zn0  1  0.49738290  0.41923855  0.49729061  1.0
  Zn  Zn1  1  0.50499834  0.57949456  0.50326464  1.0
  H  H2  1  0.26865834  0.76968757  0.68154319  1.0
  H  H3  1  0.32982896  0.82815877  0.44488927  1.0
  H  H4  1  0.39490816  0.16434743  0.40418021  1.0
  H  H5  1  0.64982390  0.83366146  0.58062541  1.0
  H  H6  1  0.38116691  0.05974884  0.41299778  1.0
  H  H7  1  0.61619648  0.93841342  0.59705482  1.0
  H  H8  1  0.37418748  0.92967507  0.41928188  1.0
  H  H9  1  0.62961424  0.06805212  0.58827481  1.0
  H  H10  1  0.29511834  0.64219366  0.71780721  1.0
  H  H11  1  0.64850861  0.32467357  0.31460856  1.0
  H  H12  1  0.20508643  0.54253519  0.64733795  1.0
  H  H13  1  0.72960938  0.20228009  0.33987881  1.0
  H  H14  1  0.74153329  0.43213919  0.37000954  1.0
  H  H15  1  0.05333597  0.69530001  0.50611702  1.0
  H  H16  1  0.99935602  0.29839742  0.47844684  1.0
  H  H17  1  0.14733151  0.79591206  0.57528673  1.0
  H  H18  1  0.90665369  0.18983792  0.42200425  1.0
  H  H19  1  0.88525812  0.59640134  0.54401674  1.0
  H  H20  1  0.11628076  0.39541779  0.44704217  1.0
  H  H21  1  0.52361704  0.61026691  0.71732684  1.0
  H  H22  1  0.47291248  0.39503692  0.28633170  1.0
  H  H23  1  0.51780874  0.61164220  0.84473635  1.0
  H  H24  1  0.47132885  0.38176100  0.71334085  1.0
  H  H25  1  0.46385846  0.38972096  0.15852650  1.0
  H  H26  1  0.46443332  0.38146772  0.84085832  1.0
  H  H27  1  0.49939486  0.62085949  0.15464170  1.0
  H  H28  1  0.80250261  0.32051899  0.55477704  1.0
  H  H29  1  0.78414433  0.25805166  0.62299315  1.0
  H  H30  1  0.74970573  0.42080330  0.63580627  1.0
  H  H31  1  0.75146527  0.35942324  0.70404255  1.0
  H  H32  1  0.97601105  0.33188975  0.67960511  1.0
  H  H33  1  0.95349462  0.42392205  0.70037200  1.0
  H  H34  1  0.97017907  0.39719396  0.61405668  1.0
  H  H35  1  0.50136390  0.62470459  0.28205216  1.0
  H  H36  1  0.30562068  0.73318833  0.35025518  1.0
  H  H37  1  0.18454384  0.74779938  0.40836007  1.0
  H  H38  1  0.25113188  0.59909245  0.35321530  1.0
  H  H39  1  0.11893956  0.62121310  0.39795112  1.0
  H  H40  1  0.04866798  0.70003913  0.29744059  1.0
  H  H41  1  0.06496715  0.60836896  0.27357442  1.0
  H  H42  1  0.17973036  0.67178398  0.25300687  1.0
  H  H43  1  0.22214901  0.33621935  0.36866806  1.0
  H  H44  1  0.23325119  0.24661094  0.39923749  1.0
  H  H45  1  0.34142811  0.29924697  0.26571820  1.0
  H  H46  1  0.59105176  0.40082137  0.94061448  1.0
  H  H47  1  0.33381182  0.20859697  0.29167445  1.0
  H  H48  1  0.09942249  0.21635599  0.28717987  1.0
  H  H49  1  0.16316208  0.23365613  0.20663766  1.0
  H  H50  1  0.11263616  0.30595595  0.25843340  1.0
  H  H51  1  0.70635403  0.66510020  0.68128444  1.0
  H  H52  1  0.64772855  0.75385694  0.67229055  1.0
  H  H53  1  0.89185752  0.70181224  0.61653360  1.0
  H  H54  1  0.84057517  0.79146689  0.61542147  1.0
  H  H55  1  0.84681148  0.79391621  0.74571318  1.0
  H  H56  1  0.99191824  0.77265076  0.71254906  1.0
  H  H57  1  0.37612780  0.59875823  0.05830296  1.0
  H  H58  1  0.89865698  0.70349996  0.74500140  1.0
  H  H59  1  0.58849393  0.40492670  0.06646221  1.0
  H  H60  1  0.37955690  0.59486608  0.93247678  1.0
  H  H61  1  0.63039949  0.17273748  0.58637614  1.0
  C  C62  1  0.49379551  0.51155027  0.36811048  1.0
  C  C63  1  0.47449298  0.44138774  0.18533330  1.0
  C  C64  1  0.49000445  0.49664210  0.85186579  1.0
  C  C65  1  0.48201662  0.50494133  0.14732502  1.0
  C  C66  1  0.47862711  0.43185042  0.81407163  1.0
  C  C67  1  0.49088056  0.57108323  0.18312488  1.0
  C  C68  1  0.48166865  0.43156883  0.74308739  1.0
  C  C69  1  0.49315791  0.57360360  0.25417690  1.0
  C  C70  1  0.49764504  0.49604890  0.70807208  1.0
  C  C71  1  0.48800734  0.50991909  0.29148190  1.0
  C  C72  1  0.54205253  0.44377050  0.96626971  1.0
  C  C73  1  0.50113178  0.49636549  0.63158014  1.0
  C  C74  1  0.42514457  0.55575986  0.03274641  1.0
  C  C75  1  0.54041455  0.44604947  0.03722970  1.0
  C  C76  1  0.42706613  0.55358827  0.96182384  1.0
  C  C77  1  0.26615611  0.49036621  0.50134878  1.0
  C  C78  1  0.73540604  0.49865489  0.49424956  1.0
  C  C79  1  0.48216805  0.50217756  0.07205581  1.0
  C  C80  1  0.48596113  0.49770992  0.92704730  1.0
  C  C81  1  0.57548311  0.27182922  0.54186286  1.0
  C  C82  1  0.40710457  0.72742796  0.47600727  1.0
  C  C83  1  0.57904470  0.19686191  0.54444345  1.0
  C  C84  1  0.87227937  0.49564178  0.49060017  1.0
  C  C85  1  0.40245000  0.80254145  0.47433564  1.0
  C  C86  1  0.51128014  0.15553017  0.49605237  1.0
  C  C87  1  0.49041768  0.84287301  0.51226061  1.0
  C  C88  1  0.44587465  0.19259599  0.44489447  1.0
  C  C89  1  0.57689417  0.80560998  0.55212120  1.0
  C  C90  1  0.44875239  0.26775659  0.44512898  1.0
  C  C91  1  0.57495867  0.73029397  0.55078358  1.0
  C  C92  1  0.43456841  0.03404688  0.45345695  1.0
  C  C93  1  0.56546828  0.96422013  0.55558943  1.0
  C  C94  1  0.42921376  0.95948827  0.45752674  1.0
  C  C95  1  0.12902910  0.49432501  0.50246339  1.0
  C  C96  1  0.57221799  0.03866789  0.55086748  1.0
  C  C97  1  0.49431980  0.92239626  0.50881424  1.0
  C  C98  1  0.50664141  0.07591583  0.49980092  1.0
  C  C99  1  0.24263241  0.65438690  0.67129176  1.0
  C  C100  1  0.72626667  0.31838620  0.35000632  1.0
  C  C101  1  0.19164299  0.59817879  0.63188189  1.0
  C  C102  1  0.77884172  0.37937079  0.38147618  1.0
  C  C103  1  0.12370835  0.61222329  0.57168618  1.0
  C  C104  1  0.87752249  0.37320157  0.42837358  1.0
  C  C105  1  0.10679926  0.68401218  0.55261388  1.0
  C  C106  1  0.93584609  0.43657035  0.46316601  1.0
  C  C107  1  0.92330712  0.30405848  0.44164698  1.0
  C  C108  1  0.15953998  0.74039905  0.59149183  1.0
  C  C109  1  0.87078507  0.24299025  0.41009417  1.0
  C  C110  1  0.22770943  0.72574279  0.65097399  1.0
  C  C111  1  0.77153419  0.24992590  0.36423532  1.0
  C  C112  1  0.93766787  0.55237985  0.52254197  1.0
  C  C113  1  0.06339968  0.43859235  0.46933831  1.0
  C  C114  1  0.75833559  0.31157333  0.60362960  1.0
  C  C115  1  0.79198368  0.37118338  0.65460160  1.0
  C  C116  1  0.93043515  0.38135926  0.66256131  1.0
  C  C117  1  0.06511637  0.55265410  0.53094590  1.0
  C  C118  1  0.24902523  0.70753006  0.38897853  1.0
  C  C119  1  0.18252798  0.64122273  0.35996621  1.0
  C  C120  1  0.11525842  0.65640200  0.29242251  1.0
  C  C121  1  0.27681012  0.28690859  0.36691843  1.0
  C  C122  1  0.28570383  0.26041311  0.29348838  1.0
  C  C123  1  0.15839396  0.25352528  0.25951566  1.0
  C  C124  1  0.70826766  0.71353381  0.64961323  1.0
  C  C125  1  0.83860570  0.74142315  0.64495818  1.0
  C  C126  1  0.89701978  0.75379350  0.71600041  1.0
  C  C127  1  0.51036064  0.56068537  0.74534007  1.0
  C  C128  1  0.47823276  0.44387425  0.25631032  1.0
  C  C129  1  0.50597344  0.56110250  0.81616078  1.0
  N  N130  1  0.51125918  0.30691993  0.49319241  1.0
  N  N131  1  0.49324209  0.69179079  0.51247626  1.0
  O  O132  1  0.51300728  0.45160369  0.39696472  1.0
  O  O133  1  0.32769884  0.68298929  0.44368502  1.0
  O  O134  1  0.39359785  0.30843493  0.39731795  1.0
  O  O135  1  0.65615746  0.68926994  0.58458146  1.0
  O  O136  1  0.53413711  0.55523800  0.60470844  1.0
  O  O137  1  0.47940348  0.57215897  0.39753175  1.0
  O  O138  1  0.47118628  0.43831958  0.60024938  1.0
  O  O139  1  0.31090548  0.42926900  0.48622732  1.0
  O  O140  1  0.68662783  0.55947954  0.48419726  1.0
  O  O141  1  0.32572347  0.54809779  0.51371515  1.0
  O  O142  1  0.68155317  0.44053241  0.50994987  1.0
  O  O143  1  0.62699142  0.31442905  0.59109135  1.0
