# generated using pymatgen
data_Zn5H12C36N18(Cl2O3)2
_symmetry_space_group_name_H-M   'P 1'
_cell_length_a   22.09087861
_cell_length_b   22.09086807
_cell_length_c   22.09085399
_cell_angle_alpha   59.99995597
_cell_angle_beta   59.99994854
_cell_angle_gamma   89.99988345
_symmetry_Int_Tables_number   1
_chemical_formula_structural   Zn5H12C36N18(Cl2O3)2
_chemical_formula_sum   'Zn10 H24 C72 N36 Cl8 O12'
_cell_volume   7622.95039071
_cell_formula_units_Z   2
loop_
 _symmetry_equiv_pos_site_id
 _symmetry_equiv_pos_as_xyz
  1  'x, y, z'
loop_
 _atom_site_type_symbol
 _atom_site_label
 _atom_site_symmetry_multiplicity
 _atom_site_fract_x
 _atom_site_fract_y
 _atom_site_fract_z
 _atom_site_occupancy
  Zn  Zn0  1  0.18371430  0.55114092  0.63257289  1.0
  Zn  Zn1  1  0.44886170  0.81628650  0.36742605  1.0
  Zn  Zn2  1  0.18371337  0.81628586  0.63257291  1.0
  Zn  Zn3  1  0.18371426  0.81628661  0.36742658  1.0
  Zn  Zn4  1  0.55114154  0.18371401  0.63257255  1.0
  Zn  Zn5  1  0.81628674  0.44885860  0.36742691  1.0
  Zn  Zn6  1  0.81628709  0.18371320  0.36742702  1.0
  Zn  Zn7  1  0.81628677  0.18371381  0.63257233  1.0
  Zn  Zn8  1  0.25000187  0.75000021  0.49999866  1.0
  Zn  Zn9  1  0.74999748  0.24999920  0.50000182  1.0
  H  H10  1  0.07488673  0.45994842  0.61492174  1.0
  H  H11  1  0.54005286  0.92511357  0.38507656  1.0
  H  H12  1  0.31019288  0.92512764  0.61492260  1.0
  H  H13  1  0.07487395  0.68980808  0.38507617  1.0
  H  H14  1  0.07488612  0.68980817  0.85024348  1.0
  H  H15  1  0.54005259  0.92512927  0.14975689  1.0
  H  H16  1  0.31019290  0.92511606  0.14975696  1.0
  H  H17  1  0.07487424  0.45994994  0.85024151  1.0
  H  H18  1  0.07488693  0.92513054  0.38506118  1.0
  H  H19  1  0.54005317  0.68980928  0.38506111  1.0
  H  H20  1  0.31019295  0.45994981  0.61493437  1.0
  H  H21  1  0.07487390  0.92511609  0.61493431  1.0
  H  H22  1  0.45994954  0.07488401  0.85024290  1.0
  H  H23  1  0.92511570  0.54004994  0.14975798  1.0
  H  H24  1  0.92512932  0.31019152  0.14975658  1.0
  H  H25  1  0.68980867  0.07487102  0.85024255  1.0
  H  H26  1  0.68980870  0.07488512  0.38506274  1.0
  H  H27  1  0.92512982  0.54005221  0.38506185  1.0
  H  H28  1  0.92511599  0.31019185  0.61493424  1.0
  H  H29  1  0.45994873  0.07487267  0.61493477  1.0
  H  H30  1  0.92512961  0.07488634  0.61492237  1.0
  H  H31  1  0.68980973  0.54005207  0.38507611  1.0
  H  H32  1  0.45994952  0.31019267  0.61492317  1.0
  H  H33  1  0.92511604  0.07487389  0.38507612  1.0
  C  C34  1  0.11353194  0.58147868  0.53204315  1.0
  C  C35  1  0.41852406  0.88646988  0.46795531  1.0
  C  C36  1  0.35442623  0.88647313  0.53204555  1.0
  C  C37  1  0.11352749  0.64557479  0.46795215  1.0
  C  C38  1  0.11353044  0.64557467  0.77294709  1.0
  C  C39  1  0.41852326  0.88647846  0.22705209  1.0
  C  C40  1  0.35442549  0.88647182  0.22705601  1.0
  C  C41  1  0.11352665  0.58147935  0.77294542  1.0
  C  C42  1  0.11353105  0.88647800  0.46794674  1.0
  C  C43  1  0.41852440  0.64557557  0.46794581  1.0
  C  C44  1  0.35442553  0.58148067  0.53204780  1.0
  C  C45  1  0.11352653  0.88647295  0.53204792  1.0
  C  C46  1  0.58148053  0.11352814  0.77294390  1.0
  C  C47  1  0.88647104  0.41851996  0.22705571  1.0
  C  C48  1  0.88647724  0.35442494  0.22705250  1.0
  C  C49  1  0.64557497  0.11352194  0.77294766  1.0
  C  C50  1  0.64557480  0.11352908  0.46794791  1.0
  C  C51  1  0.88647740  0.41852190  0.46794760  1.0
  C  C52  1  0.88647242  0.35442578  0.53204802  1.0
  C  C53  1  0.58147972  0.11352636  0.53204843  1.0
  C  C54  1  0.88647830  0.11353084  0.53204411  1.0
  C  C55  1  0.64557494  0.41852251  0.46795533  1.0
  C  C56  1  0.58147996  0.35442425  0.53204736  1.0
  C  C57  1  0.88647228  0.11352654  0.46795318  1.0
  C  C58  1  0.07535410  0.50974194  0.56560070  1.0
  C  C59  1  0.49025774  0.92464483  0.43439933  1.0
  C  C60  1  0.35904161  0.92465511  0.56560677  1.0
  C  C61  1  0.07534687  0.64096086  0.43439145  1.0
  C  C62  1  0.07535355  0.64095443  0.84930431  1.0
  C  C63  1  0.49025976  0.92465706  0.15069818  1.0
  C  C64  1  0.35904157  0.92464807  0.15069733  1.0
  C  C65  1  0.07534652  0.50973850  0.84930171  1.0
  C  C66  1  0.07535425  0.92465865  0.43438717  1.0
  C  C67  1  0.49025868  0.64095651  0.43438666  1.0
  C  C68  1  0.35904217  0.50973820  0.56561292  1.0
  C  C69  1  0.07534687  0.92464845  0.56561344  1.0
  C  C70  1  0.50973739  0.07535104  0.84930323  1.0
  C  C71  1  0.92464840  0.49026208  0.15069803  1.0
  C  C72  1  0.92465745  0.35904481  0.15069611  1.0
  C  C73  1  0.64095613  0.07534337  0.84930226  1.0
  C  C74  1  0.64095664  0.07535455  0.43438696  1.0
  C  C75  1  0.92465802  0.49026021  0.43438703  1.0
  C  C76  1  0.92464861  0.35904052  0.56561305  1.0
  C  C77  1  0.50973885  0.07534584  0.56561237  1.0
  C  C78  1  0.92465842  0.07535434  0.56559999  1.0
  C  C79  1  0.64095664  0.49025790  0.43439836  1.0
  C  C80  1  0.50973847  0.35904134  0.56560722  1.0
  C  C81  1  0.92464806  0.07534670  0.43439172  1.0
  C  C82  1  0.03792579  0.50557645  0.53234543  1.0
  C  C83  1  0.49442516  0.96207454  0.46765261  1.0
  C  C84  1  0.42973021  0.96207787  0.53234638  1.0
  C  C85  1  0.03792191  0.57026962  0.46765405  1.0
  C  C86  1  0.03792688  0.57027161  0.92415175  1.0
  C  C87  1  0.49442676  0.96207908  0.07584505  1.0
  C  C88  1  0.42972912  0.96207710  0.07584512  1.0
  C  C89  1  0.03792309  0.50557615  0.92415381  1.0
  C  C90  1  0.03792636  0.96207837  0.46764926  1.0
  C  C91  1  0.49442680  0.57027163  0.46764900  1.0
  C  C92  1  0.42972972  0.50557572  0.53234754  1.0
  C  C93  1  0.03792296  0.96207756  0.53234746  1.0
  C  C94  1  0.50557482  0.03792238  0.92415524  1.0
  C  C95  1  0.96207738  0.49442506  0.07584554  1.0
  C  C96  1  0.96207858  0.42972836  0.07584770  1.0
  C  C97  1  0.57027245  0.03792219  0.92415212  1.0
  C  C98  1  0.57027192  0.03792466  0.46764900  1.0
  C  C99  1  0.96207800  0.49442430  0.46765014  1.0
  C  C100  1  0.96207856  0.42973102  0.53234744  1.0
  C  C101  1  0.50557586  0.03792329  0.53234733  1.0
  C  C102  1  0.96207854  0.03792710  0.53234540  1.0
  C  C103  1  0.57027186  0.49442502  0.46765295  1.0
  C  C104  1  0.50557423  0.42972982  0.53234731  1.0
  C  C105  1  0.96207751  0.03792346  0.46765260  1.0
  N  N106  1  0.15533730  0.60559283  0.54973405  1.0
  N  N107  1  0.39440890  0.84466303  0.45026448  1.0
  N  N108  1  0.29492846  0.84467050  0.54973703  1.0
  N  N109  1  0.15533120  0.70507260  0.45026150  1.0
  N  N110  1  0.15533700  0.70507349  0.68933405  1.0
  N  N111  1  0.39440852  0.84467147  0.31066516  1.0
  N  N112  1  0.29492819  0.84466471  0.31066492  1.0
  N  N113  1  0.15532993  0.60559218  0.68933443  1.0
  N  N114  1  0.15533710  0.84467151  0.45025470  1.0
  N  N115  1  0.39440908  0.70507394  0.45025420  1.0
  N  N116  1  0.29492878  0.60559344  0.54974133  1.0
  N  N117  1  0.15533033  0.84466440  0.54974269  1.0
  N  N118  1  0.60559306  0.15533544  0.68933335  1.0
  N  N119  1  0.84466444  0.39440743  0.31066489  1.0
  N  N120  1  0.84467068  0.29492684  0.31066535  1.0
  N  N121  1  0.70507283  0.15532888  0.68933350  1.0
  N  N122  1  0.70507202  0.15533543  0.45025707  1.0
  N  N123  1  0.84467148  0.39440840  0.45025519  1.0
  N  N124  1  0.84466428  0.29492754  0.54974268  1.0
  N  N125  1  0.60559268  0.15533021  0.54974299  1.0
  N  N126  1  0.84467113  0.15533740  0.54973645  1.0
  N  N127  1  0.70507281  0.39440721  0.45026448  1.0
  N  N128  1  0.60559249  0.29492598  0.54973823  1.0
  N  N129  1  0.84466404  0.15532966  0.45026376  1.0
  N  N130  1  0.17956006  0.67955811  0.49999920  1.0
  N  N131  1  0.32044202  0.82044040  0.50000058  1.0
  N  N132  1  0.17955990  0.67956026  0.64088076  1.0
  N  N133  1  0.32044164  0.82044112  0.35911790  1.0
  N  N134  1  0.17955988  0.82044113  0.49999879  1.0
  N  N135  1  0.32044220  0.67955965  0.49999872  1.0
  N  N136  1  0.67955883  0.17955930  0.64088067  1.0
  N  N137  1  0.82044057  0.32044024  0.35911878  1.0
  N  N138  1  0.67955846  0.17955855  0.50000103  1.0
  N  N139  1  0.82044040  0.32044160  0.49999956  1.0
  N  N140  1  0.82044059  0.17955911  0.50000048  1.0
  N  N141  1  0.67955882  0.32043941  0.50000155  1.0
  Cl  Cl142  1  0.14359545  0.43077338  0.71282140  1.0
  Cl  Cl143  1  0.56922899  0.85640650  0.28717878  1.0
  Cl  Cl144  1  0.14358490  0.85640594  0.71282152  1.0
  Cl  Cl145  1  0.14359484  0.85641447  0.28717929  1.0
  Cl  Cl146  1  0.43077314  0.14359345  0.71282128  1.0
  Cl  Cl147  1  0.85640558  0.56922802  0.28717757  1.0
  Cl  Cl148  1  0.85641390  0.14359381  0.28717985  1.0
  Cl  Cl149  1  0.85640451  0.14358449  0.71282164  1.0
  O  O150  1  0.00000029  0.43580570  0.56419288  1.0
  O  O151  1  0.56419377  0.00000070  0.43580593  1.0
  O  O152  1  0.43580459  0.00000031  0.56419475  1.0
  O  O153  1  0.00000083  0.56419485  0.43580454  1.0
  O  O154  1  0.00000192  0.56419457  0.00000067  1.0
  O  O155  1  0.56419351  0.99999897  0.00000107  1.0
  O  O156  1  0.43580505  0.99999932  1.00000000  1.0
  O  O157  1  0.00000265  0.43580518  0.99999939  1.0
  O  O158  1  0.00000159  0.00000250  0.43580313  1.0
  O  O159  1  0.56419348  0.56419439  0.43580612  1.0
  O  O160  1  0.43580565  0.43580532  0.56419404  1.0
  O  O161  1  0.00000253  0.00000193  0.56419334  1.0
