# generated using pymatgen
data_AlH27(C15O2)3
_symmetry_space_group_name_H-M   'P 1'
_cell_length_a   3.97307632
_cell_length_b   23.56216827
_cell_length_c   23.56970967
_cell_angle_alpha   119.98534988
_cell_angle_beta   90.18649668
_cell_angle_gamma   92.63169700
_symmetry_Int_Tables_number   1
_chemical_formula_structural   AlH27(C15O2)3
_chemical_formula_sum   'Al1 H27 C45 O6'
_cell_volume   1908.24265349
_cell_formula_units_Z   1
loop_
 _symmetry_equiv_pos_site_id
 _symmetry_equiv_pos_as_xyz
  1  'x, y, z'
loop_
 _atom_site_type_symbol
 _atom_site_label
 _atom_site_symmetry_multiplicity
 _atom_site_fract_x
 _atom_site_fract_y
 _atom_site_fract_z
 _atom_site_occupancy
  Al  Al0  1  0.02784550  0.00043787  0.50013064  1.0
  H  H1  1  0.83794570  0.98581806  0.32083517  1.0
  H  H2  1  0.83280740  0.92740102  0.20063521  1.0
  H  H3  1  0.81858772  0.88183855  0.10594565  1.0
  H  H4  1  0.82612102  0.82146597  0.98700374  1.0
  H  H5  1  0.21749949  0.98292908  0.66542248  1.0
  H  H6  1  0.21826169  0.92334142  0.72635643  1.0
  H  H7  1  0.30853013  0.88481497  0.78172210  1.0
  H  H8  1  0.29915108  0.82420949  0.84001095  1.0
  H  H9  1  0.52648109  0.78848131  0.89472075  1.0
  H  H10  1  0.80623344  0.83636677  0.51600934  1.0
  H  H11  1  0.80272786  0.77491499  0.57497277  1.0
  H  H12  1  0.71654848  0.71952509  0.61417868  1.0
  H  H13  1  0.73350388  0.66142682  0.67468985  1.0
  H  H14  1  0.24505058  0.17820960  0.51493889  1.0
  H  H15  1  0.24496643  0.29839101  0.57350649  1.0
  H  H16  1  0.28323287  0.39285629  0.61611193  1.0
  H  H17  1  0.25572387  0.51126606  0.67682666  1.0
  H  H18  1  0.51564760  0.60577493  0.71243314  1.0
  H  H19  1  0.87867280  0.18593668  0.66682476  1.0
  H  H20  1  0.87122831  0.30631370  0.72783645  1.0
  H  H21  1  0.80674552  0.40047021  0.78086654  1.0
  H  H22  1  0.79717067  0.51937357  0.83965040  1.0
  H  H23  1  0.18085944  0.83377364  0.31657583  1.0
  H  H24  1  0.18788582  0.77240131  0.19629517  1.0
  H  H25  1  0.21022312  0.72303886  0.10194658  1.0
  H  H26  1  0.20986264  0.66419592  0.98305085  1.0
  H  H27  1  0.51517709  0.60648146  0.89497658  1.0
  C  C28  1  0.51377862  0.94995185  0.39929961  1.0
  C  C29  1  0.55371798  0.10140202  0.55081364  1.0
  C  C30  1  0.51626678  0.95001952  0.55056550  1.0
  C  C31  1  0.69142116  0.93943025  0.29290425  1.0
  C  C32  1  0.68695728  0.90591690  0.22491078  1.0
  C  C33  1  0.68057066  0.83431144  0.07999684  1.0
  C  C34  1  0.68309767  0.80019776  0.01194486  1.0
  C  C35  1  0.34941266  0.93771431  0.64658406  1.0
  C  C36  1  0.35241167  0.90376823  0.68069097  1.0
  C  C37  1  0.40005527  0.83546394  0.75702480  1.0
  C  C38  1  0.39934042  0.80123769  0.79087084  1.0
  C  C39  1  0.50966680  0.91368806  0.32657557  1.0
  C  C40  1  0.51079108  0.84449811  0.18774444  1.0
  C  C41  1  0.51366838  0.80812258  0.11518879  1.0
  C  C42  1  0.51785950  0.73790955  0.97510739  1.0
  C  C43  1  0.51925493  0.70158902  0.90284071  1.0
  C  C44  1  0.52289102  0.73508571  0.86768226  1.0
  C  C45  1  0.67370860  0.85442475  0.56177123  1.0
  C  C46  1  0.66897589  0.82000066  0.59537044  1.0
  C  C47  1  0.62643685  0.74373302  0.66405249  1.0
  C  C48  1  0.63181505  0.70996718  0.69831215  1.0
  C  C49  1  0.38636933  0.20697240  0.56122579  1.0
  C  C50  1  0.38861970  0.27495335  0.59472698  1.0
  C  C51  1  0.39780079  0.41962070  0.66522704  1.0
  C  C52  1  0.38533352  0.48749300  0.69953305  1.0
  C  C53  1  0.51242269  0.91359152  0.58687921  1.0
  C  C54  1  0.51072671  0.84390018  0.65601280  1.0
  C  C55  1  0.51216860  0.80772165  0.69235462  1.0
  C  C56  1  0.51686905  0.73762798  0.76264349  1.0
  C  C57  1  0.51899599  0.70152751  0.79897309  1.0
  C  C58  1  0.51678480  0.63279443  0.76577419  1.0
  C  C59  1  0.73580037  0.21114670  0.64735789  1.0
  C  C60  1  0.72999435  0.27916255  0.68141381  1.0
  C  C61  1  0.68495064  0.42379165  0.75694381  1.0
  C  C62  1  0.67615866  0.49176118  0.79103645  1.0
  C  C63  1  0.32741514  0.85332842  0.29056554  1.0
  C  C64  1  0.33270522  0.81910693  0.22256571  1.0
  C  C65  1  0.34965445  0.74551887  0.07785097  1.0
  C  C66  1  0.35102204  0.71143916  0.00982737  1.0
  C  C67  1  0.56071256  0.17419701  0.58707316  1.0
  C  C68  1  0.55668960  0.31303783  0.65616565  1.0
  C  C69  1  0.54728802  0.38550035  0.69279676  1.0
  C  C70  1  0.52551195  0.52546902  0.76329906  1.0
  C  C71  1  0.51840004  0.59772842  0.79937880  1.0
  C  C72  1  0.51677215  0.63292842  0.86802321  1.0
  O  O73  1  0.29143368  0.99152653  0.56341014  1.0
  O  O74  1  0.27404813  0.93690746  0.42769650  1.0
  O  O75  1  0.31358922  0.07138017  0.50836415  1.0
  O  O76  1  0.74522846  0.93739165  0.50849908  1.0
  O  O77  1  0.78459349  0.07332802  0.56386443  1.0
  O  O78  1  0.75864518  0.99216567  0.42885672  1.0
