# generated using pymatgen
data_AlH7C16I2N4O9
_symmetry_space_group_name_H-M   'P 1'
_cell_length_a   6.61345388
_cell_length_b   25.64828558
_cell_length_c   28.11051447
_cell_angle_alpha   89.99989636
_cell_angle_beta   90.00022692
_cell_angle_gamma   89.99944045
_symmetry_Int_Tables_number   1
_chemical_formula_structural   AlH7C16I2N4O9
_chemical_formula_sum   'Al4 H28 C64 I8 N16 O36'
_cell_volume   4768.21098494
_cell_formula_units_Z   4
loop_
 _symmetry_equiv_pos_site_id
 _symmetry_equiv_pos_as_xyz
  1  'x, y, z'
loop_
 _atom_site_type_symbol
 _atom_site_label
 _atom_site_symmetry_multiplicity
 _atom_site_fract_x
 _atom_site_fract_y
 _atom_site_fract_z
 _atom_site_occupancy
  Al  Al0  1  0.81045049  0.74885709  0.74999920  1.0
  Al  Al1  1  0.18954928  0.25114228  0.24999815  1.0
  Al  Al2  1  0.31044846  0.75114117  0.74999931  1.0
  Al  Al3  1  0.68955433  0.24885898  0.24999626  1.0
  H  H4  1  0.77217320  0.67136513  0.62347043  1.0
  H  H5  1  0.22784471  0.32863697  0.37652656  1.0
  H  H6  1  0.22784264  0.32862981  0.12346716  1.0
  H  H7  1  0.77216620  0.67136527  0.87652913  1.0
  H  H8  1  0.27215154  0.82863515  0.87652875  1.0
  H  H9  1  0.72784067  0.17136539  0.12346575  1.0
  H  H10  1  0.72784576  0.17136358  0.37653191  1.0
  H  H11  1  0.27214947  0.82863501  0.62346828  1.0
  H  H12  1  0.70130401  0.57515028  0.53624013  1.0
  H  H13  1  0.29868517  0.42485104  0.46375864  1.0
  H  H14  1  0.29867714  0.42484600  0.03623641  1.0
  H  H15  1  0.70130297  0.57514791  0.96375739  1.0
  H  H16  1  0.20130053  0.92485170  0.96376006  1.0
  H  H17  1  0.79869621  0.07514922  0.03623587  1.0
  H  H18  1  0.79869517  0.07514724  0.46376131  1.0
  H  H19  1  0.20130309  0.92485017  0.53623533  1.0
  H  H20  1  0.46252811  0.57890736  0.66826712  1.0
  H  H21  1  0.53747620  0.42109434  0.33173307  1.0
  H  H22  1  0.53748847  0.42109450  0.16826435  1.0
  H  H23  1  0.46252188  0.57890370  0.83173621  1.0
  H  H24  1  0.96250845  0.92109371  0.83173438  1.0
  H  H25  1  0.03750039  0.07890683  0.16826510  1.0
  H  H26  1  0.03748963  0.07890784  0.33173205  1.0
  H  H27  1  0.96250560  0.92109075  0.66826566  1.0
  H  H28  1  0.55231008  0.68088243  0.75000056  1.0
  H  H29  1  0.44769422  0.31911577  0.25000000  1.0
  H  H30  1  0.05229435  0.81911790  0.75000091  1.0
  H  H31  1  0.94770542  0.18088030  0.24999929  1.0
  C  C32  1  0.56360015  0.81419432  0.68658076  1.0
  C  C33  1  0.43641928  0.18580739  0.31341943  1.0
  C  C34  1  0.43641975  0.18580751  0.18657971  1.0
  C  C35  1  0.56360572  0.81419497  0.81342085  1.0
  C  C36  1  0.06357191  0.68580950  0.81342071  1.0
  C  C37  1  0.93640215  0.31418870  0.18658019  1.0
  C  C38  1  0.93639562  0.31418818  0.31341850  1.0
  C  C39  1  0.06356029  0.68580846  0.68658170  1.0
  C  C40  1  0.89461360  0.64352573  0.61825290  1.0
  C  C41  1  0.10539070  0.35647871  0.38174410  1.0
  C  C42  1  0.10539309  0.35647000  0.11825124  1.0
  C  C43  1  0.89461424  0.64352547  0.88174647  1.0
  C  C44  1  0.39460738  0.85647470  0.88174605  1.0
  C  C45  1  0.60540448  0.14352739  0.11825130  1.0
  C  C46  1  0.60539605  0.14352402  0.38174914  1.0
  C  C47  1  0.39459616  0.85647301  0.61825141  1.0
  C  C48  1  0.87666590  0.60612211  0.58235816  1.0
  C  C49  1  0.12333084  0.39388233  0.41764203  1.0
  C  C50  1  0.12333717  0.39387681  0.08235859  1.0
  C  C51  1  0.87666713  0.60611944  0.91764196  1.0
  C  C52  1  0.37666309  0.89387992  0.91764397  1.0
  C  C53  1  0.62334272  0.10612101  0.08235694  1.0
  C  C54  1  0.62333941  0.10611679  0.41764429  1.0
  C  C55  1  0.37666035  0.89387868  0.58235591  1.0
  C  C56  1  0.03350064  0.56822725  0.57605090  1.0
  C  C57  1  0.96648854  0.43177485  0.42394788  1.0
  C  C58  1  0.96648721  0.43176818  0.07604460  1.0
  C  C59  1  0.03350953  0.56822651  0.92394990  1.0
  C  C60  1  0.53350165  0.93177273  0.92394913  1.0
  C  C61  1  0.46649811  0.06822975  0.07604716  1.0
  C  C62  1  0.46648886  0.06822629  0.42395043  1.0
  C  C63  1  0.53350184  0.93177152  0.57604763  1.0
  C  C64  1  0.19846310  0.56905362  0.60853313  1.0
  C  C65  1  0.80152759  0.43095082  0.39146991  1.0
  C  C66  1  0.80153133  0.43095032  0.10852703  1.0
  C  C67  1  0.19846239  0.56905217  0.89146783  1.0
  C  C68  1  0.69845757  0.93094760  0.89146919  1.0
  C  C69  1  0.30153615  0.06905216  0.10852745  1.0
  C  C70  1  0.30153997  0.06905267  0.39146820  1.0
  C  C71  1  0.69845677  0.93094748  0.60853164  1.0
  C  C72  1  0.21869701  0.60775868  0.64352535  1.0
  C  C73  1  0.78130125  0.39224420  0.35647556  1.0
  C  C74  1  0.78129497  0.39224128  0.14351965  1.0
  C  C75  1  0.21869724  0.60775925  0.85647485  1.0
  C  C76  1  0.71868966  0.89224132  0.85647414  1.0
  C  C77  1  0.28131464  0.10775922  0.14352321  1.0
  C  C78  1  0.28130882  0.10775979  0.35647449  1.0
  C  C79  1  0.71867885  0.89224075  0.64352464  1.0
  C  C80  1  0.06211839  0.64537850  0.64801787  1.0
  C  C81  1  0.93788894  0.35462710  0.35198091  1.0
  C  C82  1  0.93788576  0.35462419  0.14801701  1.0
  C  C83  1  0.06211703  0.64537752  0.85198141  1.0
  C  C84  1  0.56210967  0.85462376  0.85198147  1.0
  C  C85  1  0.43789917  0.14537600  0.14801766  1.0
  C  C86  1  0.43789781  0.14537385  0.35198191  1.0
  C  C87  1  0.56210347  0.85462318  0.64801900  1.0
  C  C88  1  0.98081036  0.46799593  0.46374577  1.0
  C  C89  1  0.01918336  0.53200344  0.53625194  1.0
  C  C90  1  0.01918534  0.53200458  0.96374891  1.0
  C  C91  1  0.98080989  0.46799245  0.03624951  1.0
  C  C92  1  0.48081943  0.03200825  0.03624963  1.0
  C  C93  1  0.51916824  0.96799735  0.96374523  1.0
  C  C94  1  0.51917685  0.96799348  0.53624968  1.0
  C  C95  1  0.48082141  0.03200199  0.46374590  1.0
  I  I96  1  0.41048691  0.50734479  0.61415431  1.0
  I  I97  1  0.58950228  0.49265770  0.38584553  1.0
  I  I98  1  0.58950610  0.49265250  0.11414933  1.0
  I  I99  1  0.41049064  0.50734258  0.88584660  1.0
  I  I100  1  0.91045578  0.99265717  0.88584394  1.0
  I  I101  1  0.08954399  0.00734532  0.11415376  1.0
  I  I102  1  0.08952353  0.00734700  0.38584392  1.0
  I  I103  1  0.91047019  0.99265354  0.61415379  1.0
  N  N104  1  0.18788985  0.50873545  0.51891546  1.0
  N  N105  1  0.81210538  0.49126392  0.48108047  1.0
  N  N106  1  0.81210765  0.49125813  0.01891532  1.0
  N  N107  1  0.18790270  0.50873344  0.98108239  1.0
  N  N108  1  0.68788756  0.99126266  0.98108044  1.0
  N  N109  1  0.31211523  0.00874100  0.01891904  1.0
  N  N110  1  0.31211145  0.00873664  0.48107814  1.0
  N  N111  1  0.68788681  0.99125961  0.51891779  1.0
  N  N112  1  0.16728079  0.47664603  0.48304954  1.0
  N  N113  1  0.83271595  0.52335256  0.51694674  1.0
  N  N114  1  0.83271674  0.52335054  0.98304992  1.0
  N  N115  1  0.16729210  0.47664337  0.01694601  1.0
  N  N116  1  0.66728633  0.02335137  0.01694521  1.0
  N  N117  1  0.33270890  0.97664995  0.98305321  1.0
  N  N118  1  0.33271265  0.97664651  0.51694328  1.0
  N  N119  1  0.66729014  0.02334935  0.48305194  1.0
  O  O120  1  0.39057530  0.80031314  0.79814393  1.0
  O  O121  1  0.60943354  0.19968818  0.20185484  1.0
  O  O122  1  0.60943433  0.19968691  0.29814515  1.0
  O  O123  1  0.39055788  0.80031051  0.70185469  1.0
  O  O124  1  0.89056216  0.69969081  0.70185786  1.0
  O  O125  1  0.10943609  0.30031441  0.29814518  1.0
  O  O126  1  0.10943833  0.30031177  0.20185345  1.0
  O  O127  1  0.89057353  0.69968526  0.79814176  1.0
  O  O128  1  0.73268780  0.79718520  0.70086840  1.0
  O  O129  1  0.26731651  0.20281456  0.29913109  1.0
  O  O130  1  0.26731571  0.20281465  0.20086430  1.0
  O  O131  1  0.73269313  0.79718238  0.79913447  1.0
  O  O132  1  0.23269484  0.70281516  0.79913574  1.0
  O  O133  1  0.76731249  0.29718772  0.20086090  1.0
  O  O134  1  0.76731178  0.29718684  0.29913445  1.0
  O  O135  1  0.23268496  0.70281058  0.70086646  1.0
  O  O136  1  0.55870980  0.71862140  0.75000017  1.0
  O  O137  1  0.44127636  0.28137797  0.25000003  1.0
  O  O138  1  0.05873965  0.78137931  0.75000024  1.0
  O  O139  1  0.94127675  0.21862006  0.25000032  1.0
  O  O140  1  0.70919942  0.60859616  0.55488260  1.0
  O  O141  1  0.29079732  0.39140516  0.44511582  1.0
  O  O142  1  0.29079262  0.39140048  0.05487928  1.0
  O  O143  1  0.70920110  0.60859499  0.94511594  1.0
  O  O144  1  0.20919415  0.89140582  0.94511724  1.0
  O  O145  1  0.79081016  0.10859550  0.05487940  1.0
  O  O146  1  0.79080730  0.10859317  0.44511950  1.0
  O  O147  1  0.20919398  0.89140425  0.55487928  1.0
  O  O148  1  0.37389300  0.60897885  0.67501364  1.0
  O  O149  1  0.62612340  0.39102598  0.32498549  1.0
  O  O150  1  0.62611462  0.39102222  0.17501349  1.0
  O  O151  1  0.37389422  0.60897520  0.82498457  1.0
  O  O152  1  0.87388368  0.89102318  0.82498280  1.0
  O  O153  1  0.12612062  0.10897892  0.17501562  1.0
  O  O154  1  0.12612034  0.10897799  0.32498228  1.0
  O  O155  1  0.87387641  0.89101982  0.67501471  1.0
