# generated using pymatgen
data_AlH8C12NClO5
_symmetry_space_group_name_H-M   'P 1'
_cell_length_a   6.63279608
_cell_length_b   11.10528359
_cell_length_c   17.02495837
_cell_angle_alpha   84.35872918
_cell_angle_beta   82.48968245
_cell_angle_gamma   72.80613275
_symmetry_Int_Tables_number   1
_chemical_formula_structural   AlH8C12NClO5
_chemical_formula_sum   'Al2 H16 C24 N2 Cl2 O10'
_cell_volume   1185.36346382
_cell_formula_units_Z   2
loop_
 _symmetry_equiv_pos_site_id
 _symmetry_equiv_pos_as_xyz
  1  'x, y, z'
loop_
 _atom_site_type_symbol
 _atom_site_label
 _atom_site_symmetry_multiplicity
 _atom_site_fract_x
 _atom_site_fract_y
 _atom_site_fract_z
 _atom_site_occupancy
  Al  Al0  1  0.49999007  0.50001489  0.50000550  1.0
  Al  Al1  1  0.99999895  0.49999502  0.50000602  1.0
  H  H2  1  0.23710795  0.59035496  0.40982945  1.0
  H  H3  1  0.76289648  0.40965314  0.59018138  1.0
  H  H4  1  0.84918636  0.59219532  0.73538412  1.0
  H  H5  1  0.78500515  0.59265192  0.88390251  1.0
  H  H6  1  0.43239756  0.36857312  0.89817148  1.0
  H  H7  1  0.56756696  0.63137957  0.10183072  1.0
  H  H8  1  0.21498177  0.40734848  0.11611197  1.0
  H  H9  1  0.15079859  0.40782776  0.26462931  1.0
  H  H10  1  0.30094728  0.87965948  0.44341228  1.0
  H  H11  1  0.69906364  0.12035688  0.55657900  1.0
  H  H12  1  0.07960930  0.06049051  0.38699610  1.0
  H  H13  1  0.15751107  0.20214016  0.37245119  1.0
  H  H14  1  0.98619455  0.17973220  0.45668539  1.0
  H  H15  1  0.01381549  0.82027637  0.54328635  1.0
  H  H16  1  0.84253577  0.79787103  0.62752733  1.0
  H  H17  1  0.92045805  0.93951908  0.61297497  1.0
  C  C18  1  0.63199038  0.72798750  0.50493457  1.0
  C  C19  1  0.79932279  0.50485680  0.35594600  1.0
  C  C20  1  0.36802790  0.27202012  0.49506382  1.0
  C  C21  1  0.20068394  0.49514963  0.64405893  1.0
  C  C22  1  0.17712669  0.48577953  0.73278721  1.0
  C  C23  1  0.97643604  0.54529779  0.77209492  1.0
  C  C24  1  0.93968136  0.54522529  0.85399462  1.0
  C  C25  1  0.10663203  0.48154671  0.89953147  1.0
  C  C26  1  0.30609015  0.41935157  0.86198253  1.0
  C  C27  1  0.34209364  0.42171496  0.77934654  1.0
  C  C28  1  0.69388516  0.58061332  0.13802202  1.0
  C  C29  1  0.89335188  0.51843795  0.10047456  1.0
  C  C30  1  0.06030660  0.45477911  0.14601373  1.0
  C  C31  1  0.02354054  0.45471429  0.22790952  1.0
  C  C32  1  0.82284784  0.51421183  0.26721603  1.0
  C  C33  1  0.65786024  0.57825644  0.22065996  1.0
  C  C34  1  0.43297873  0.13156027  0.49436302  1.0
  C  C35  1  0.56702996  0.86845436  0.50562376  1.0
  C  C36  1  0.31441789  0.06630271  0.46116502  1.0
  C  C37  1  0.68561486  0.93371235  0.53881050  1.0
  C  C38  1  0.38624745  0.93457320  0.46840481  1.0
  C  C39  1  0.61377575  0.06544908  0.53157966  1.0
  C  C40  1  0.12414230  0.13024816  0.41721622  1.0
  C  C41  1  0.87588786  0.86976599  0.58275831  1.0
  N  N42  1  0.09114131  0.47266176  0.98337460  1.0
  N  N43  1  0.90885148  0.52731719  0.01663303  1.0
  Cl  Cl44  1  0.59256304  0.33686991  0.73979479  1.0
  Cl  Cl45  1  0.40736278  0.66304985  0.26020345  1.0
  O  O46  1  0.48515969  0.67442988  0.50886008  1.0
  O  O47  1  0.96591216  0.49196613  0.38935987  1.0
  O  O48  1  0.16928353  0.32773518  0.50253090  1.0
  O  O49  1  0.38275080  0.49116980  0.60865492  1.0
  O  O50  1  0.51483995  0.32559423  0.49115137  1.0
  O  O51  1  0.03411078  0.50802261  0.61063865  1.0
  O  O52  1  0.83072856  0.67226020  0.49746667  1.0
  O  O53  1  0.61727603  0.50884855  0.39136011  1.0
  O  O54  1  0.23404850  0.55649524  0.46457674  1.0
  O  O55  1  0.76596779  0.44350724  0.53543318  1.0
