# generated using pymatgen
data_Zn2H17C26(N4O)2
_symmetry_space_group_name_H-M   'P 1'
_cell_length_a   14.78340514
_cell_length_b   14.86872321
_cell_length_c   14.96216545
_cell_angle_alpha   112.85903398
_cell_angle_beta   100.92292421
_cell_angle_gamma   113.61741464
_symmetry_Int_Tables_number   1
_chemical_formula_structural   Zn2H17C26(N4O)2
_chemical_formula_sum   'Zn4 H34 C52 N16 O4'
_cell_volume   2534.12769409
_cell_formula_units_Z   2
loop_
 _symmetry_equiv_pos_site_id
 _symmetry_equiv_pos_as_xyz
  1  'x, y, z'
loop_
 _atom_site_type_symbol
 _atom_site_label
 _atom_site_symmetry_multiplicity
 _atom_site_fract_x
 _atom_site_fract_y
 _atom_site_fract_z
 _atom_site_occupancy
  Zn  Zn106  1  0.99319729  0.14938350  0.14516917  1.0
  Zn  Zn107  1  0.15426819  0.14816217  0.99036949  1.0
  Zn  Zn108  1  0.99711363  0.86455447  0.86496059  1.0
  Zn  Zn109  1  0.86138852  0.86522269  0.01239864  1.0
  H  H52  1  0.30636661  0.74527421  0.83755109  1.0
  H  H53  1  0.27581540  0.77544584  0.09470797  1.0
  H  H54  1  0.52259975  0.36019985  0.64860110  1.0
  H  H55  1  0.36194675  0.21558938  0.47751420  1.0
  H  H56  1  0.29276431  0.62439062  0.11093905  1.0
  H  H57  1  0.45511078  0.45254247  0.36700167  1.0
  H  H58  1  0.03012943  0.55029712  0.21075897  1.0
  H  H59  1  0.44831721  0.69402309  0.72504295  1.0
  H  H60  1  0.61583068  0.59565974  0.53669271  1.0
  H  H61  1  0.01391980  0.70074391  0.19585929  1.0
  H  H62  1  0.76044432  0.81382207  0.34075842  1.0
  H  H63  1  0.77946845  0.81828902  0.50841318  1.0
  H  H64  1  0.93489377  0.18622719  0.67621324  1.0
  H  H65  1  0.91655432  0.18166171  0.50812894  1.0
  H  H66  1  0.81080541  0.62626556  0.64440950  1.0
  H  H67  1  0.99710180  0.84153282  0.18521364  1.0
  H  H68  1  0.02136539  0.19303229  0.83278412  1.0
  H  H69  1  0.95287906  0.18186821  0.36146724  1.0
  H  H70  1  0.66269051  0.80999197  0.83046531  1.0
  H  H71  1  0.15404883  0.78930487  0.75543282  1.0
  H  H72  1  0.82133915  0.82270179  0.66750036  1.0
  H  H73  1  0.76791036  0.81055200  0.18621616  1.0
  H  H74  1  0.81713697  0.17971794  0.00615844  1.0
  H  H75  1  0.27143008  0.68426706  0.69795362  1.0
  H  H76  1  0.35419699  0.15916896  0.92345201  1.0
  H  H77  1  0.63317501  0.60937153  0.84211068  1.0
  H  H78  1  0.17841777  0.83399869  0.98846696  1.0
  H  H79  1  0.22759595  0.42586325  0.02585727  1.0
  H  H80  1  0.15776117  0.18506042  0.34646493  1.0
  H  H81  1  0.48212370  0.75422566  0.86440465  1.0
  H  H82  1  0.65176499  0.14929605  0.87565755  1.0
  H  H83  1  0.47946899  0.13918195  0.84680393  1.0
  H  H84  1  0.03668841  0.47667306  0.37271647  1.0
  H  H85  1  0.52546549  0.31195395  0.18767501  1.0
  C  C0  1  0.09748507  0.38819005  0.17531317  1.0
  C  C1  1  0.85154746  0.99666850  0.31536162  1.0
  C  C2  1  0.30261085  0.24249732  0.30683405  1.0
  C  C3  1  0.05319114  0.39007756  0.25394681  1.0
  C  C4  1  0.37985200  0.26050516  0.16547817  1.0
  C  C5  1  0.89912817  0.00683315  0.70737278  1.0
  C  C6  1  0.69654568  0.99017616  0.89228942  1.0
  C  C7  1  0.29203000  0.97064103  0.82578544  1.0
  C  C8  1  0.49462099  0.87707080  0.81083161  1.0
  C  C9  1  0.39600986  0.87157311  0.79501005  1.0
  C  C10  1  0.29777687  0.22123313  0.20469874  1.0
  C  C11  1  0.59258316  0.97746287  0.84759084  1.0
  C  C12  1  0.38574977  0.96589466  0.81372607  1.0
  C  C13  1  0.58055153  0.06928870  0.85357759  1.0
  C  C14  1  0.48176862  0.06356272  0.83714445  1.0
  C  C15  1  0.33678584  0.75161736  0.77721090  1.0
  C  C16  1  0.44817422  0.75752537  0.79444045  1.0
  C  C17  1  0.50749498  0.38078255  0.58693522  1.0
  C  C18  1  0.22123967  0.72626239  0.12017153  1.0
  C  C19  1  0.41700816  0.29929892  0.49045461  1.0
  C  C20  1  0.23063946  0.64028089  0.12909393  1.0
  C  C21  1  0.39774477  0.32260383  0.40873306  1.0
  C  C22  1  0.15944667  0.57102166  0.15747999  1.0
  C  C23  1  0.78330367  0.63868104  0.70822938  1.0
  C  C24  1  0.03353982  0.84602008  0.12929206  1.0
  C  C25  1  0.47106633  0.43084775  0.42758441  1.0
  C  C26  1  0.67953088  0.57634257  0.70258903  1.0
  C  C27  1  0.08545951  0.59984064  0.18648302  1.0
  C  C28  1  0.56124221  0.51136564  0.52297059  1.0
  C  C29  1  0.07667220  0.68598295  0.17830895  1.0
  C  C30  1  0.58168498  0.48775946  0.60445888  1.0
  C  C31  1  0.14014771  0.74754556  0.13957492  1.0
  C  C32  1  0.10963062  0.81634624  0.10787474  1.0
  C  C33  1  0.79863669  0.89627527  0.41406256  1.0
  C  C34  1  0.80914580  0.89882496  0.50937708  1.0
  C  C35  1  0.86403324  0.00315307  0.60718237  1.0
  C  C36  1  0.84242894  0.99793551  0.41128504  1.0
  C  C37  1  0.89668171  0.10378668  0.60291521  1.0
  C  C38  1  0.88633744  0.10123613  0.50747771  1.0
  C  C39  1  0.97985761  0.10256843  0.80680884  1.0
  C  C40  1  0.91020129  0.09054127  0.30450746  1.0
  C  C41  1  0.71539009  0.90210623  0.88323951  1.0
  C  C42  1  0.18932166  0.88146301  0.80011033  1.0
  C  C43  1  0.87854289  0.91381512  0.72222780  1.0
  C  C44  1  0.81595988  0.90154025  0.21530624  1.0
  C  C45  1  0.79487701  0.09082984  0.97188837  1.0
  C  C46  1  0.29067733  0.06999144  0.88433943  1.0
  C  C47  1  0.69287240  0.62834209  0.80887771  1.0
  C  C48  1  0.12692631  0.84353392  0.02989494  1.0
  C  C49  1  0.18465384  0.40259512  0.07216461  1.0
  C  C50  1  0.19332868  0.18842434  0.28972933  1.0
  C  C51  1  0.15242285  0.46481776  0.14248862  1.0
  N  N86  1  0.09663152  0.28937179  0.12413287  1.0
  N  N87  1  0.90976848  0.05407523  0.20682547  1.0
  N  N88  1  0.00610778  0.06804607  0.87343281  1.0
  N  N89  1  0.81569374  0.94736091  0.95322883  1.0
  N  N90  1  0.13251862  0.92512410  0.84045235  1.0
  N  N91  1  0.94377758  0.95190903  0.82122987  1.0
  N  N92  1  0.85098560  0.93678534  0.15144556  1.0
  N  N93  1  0.19300909  0.16033179  0.13458626  1.0
  N  N94  1  0.86458066  0.06349424  0.00792891  1.0
  N  N95  1  0.19603358  0.04253591  0.89388882  1.0
  N  N96  1  0.79627283  0.71563598  0.87231276  1.0
  N  N97  1  0.06365549  0.88290269  0.00574932  1.0
  N  N98  1  0.15066790  0.29890767  0.06316981  1.0
  N  N99  1  0.12952486  0.14126935  0.18657289  1.0
  N  N100  1  0.85254631  0.72109119  0.80946053  1.0
  N  N101  1  0.00634489  0.88422891  0.06695593  1.0
  O  O102  1  0.00577756  0.30374179  0.26135922  1.0
  O  O103  1  0.06815701  0.49076583  0.32399609  1.0
  O  O104  1  0.36131158  0.27038425  0.08670176  1.0
  O  O105  1  0.47864223  0.28590923  0.22169343  1.0
