# generated using pymatgen
data_Zn4H40C99I12N16O15
_symmetry_space_group_name_H-M   'P 1'
_cell_length_a   19.22987701
_cell_length_b   19.34561229
_cell_length_c   20.09032231
_cell_angle_alpha   107.82660608
_cell_angle_beta   103.58725394
_cell_angle_gamma   114.31957501
_symmetry_Int_Tables_number   1
_chemical_formula_structural   Zn4H40C99I12N16O15
_chemical_formula_sum   'Zn4 H40 C99 I12 N16 O15'
_cell_volume   5895.61691789
_cell_formula_units_Z   1
loop_
 _symmetry_equiv_pos_site_id
 _symmetry_equiv_pos_as_xyz
  1  'x, y, z'
loop_
 _atom_site_type_symbol
 _atom_site_label
 _atom_site_symmetry_multiplicity
 _atom_site_fract_x
 _atom_site_fract_y
 _atom_site_fract_z
 _atom_site_occupancy
  Zn  Zn0  1  0.61526043  0.62041556  0.50069096  1.0
  Zn  Zn1  1  0.37764049  0.39240234  0.50079575  1.0
  Zn  Zn2  1  0.50192504  0.61354432  0.63041840  1.0
  Zn  Zn3  1  0.49892264  0.40831156  0.40627783  1.0
  H  H4  1  0.32012136  0.19873085  0.47715650  1.0
  H  H5  1  0.62735316  0.59888818  0.75310823  1.0
  H  H6  1  0.64034098  0.37130858  0.48488929  1.0
  H  H7  1  0.49948921  0.33897827  0.57539856  1.0
  H  H8  1  0.77227135  0.64435457  0.62644895  1.0
  H  H9  1  0.39283493  0.42241463  0.26926079  1.0
  H  H10  1  0.24088947  0.42050992  0.39846341  1.0
  H  H11  1  0.54159842  0.37035902  0.25429722  1.0
  H  H12  1  0.35795650  0.62077646  0.69480763  1.0
  H  H13  1  0.02004392  0.68215580  0.56945628  1.0
  H  H14  1  0.51771537  0.85236695  0.56063264  1.0
  H  H15  1  0.54966781  0.00006323  0.62202982  1.0
  H  H16  1  0.25613748  0.72855477  0.25620362  1.0
  H  H17  1  0.66886963  0.61225941  0.21280429  1.0
  H  H18  1  0.65730406  0.34145007  0.07965613  1.0
  H  H19  1  0.76562244  0.49294924  0.91169409  1.0
  H  H20  1  0.64076645  0.37575521  0.20184810  1.0
  H  H21  1  0.68199740  0.49618411  0.99004295  1.0
  H  H22  1  0.68513265  0.57815686  0.09113823  1.0
  H  H23  1  0.51283298  0.27586957  0.79716517  1.0
  H  H24  1  0.29900347  0.46626530  0.19538952  1.0
  H  H25  1  0.19074250  0.39955162  0.06337592  1.0
  H  H26  1  0.03558056  0.15403641  0.02062953  1.0
  H  H27  1  0.85659888  0.13132981  0.87977411  1.0
  H  H28  1  0.01101539  0.23543155  0.12221704  1.0
  H  H29  1  0.83245495  0.85624045  0.62292235  1.0
  H  H30  1  0.13984513  0.30266420  0.50204854  1.0
  H  H31  1  0.38550582  0.74402423  0.58487827  1.0
  H  H32  1  0.07998229  0.32763620  0.65173115  1.0
  H  H33  1  0.88490667  0.47682735  0.77122770  1.0
  H  H34  1  0.71385672  0.41017671  0.62502241  1.0
  H  H35  1  0.51964047  0.17793142  0.63066786  1.0
  H  H36  1  0.59159588  0.19047982  0.55374730  1.0
  H  H37  1  0.43029013  0.34585394  0.67321069  1.0
  H  H38  1  0.60240565  0.23900201  0.86126348  1.0
  H  H39  1  0.15955194  0.28412933  0.30364908  1.0
  H  H40  1  0.09070857  0.09376999  0.96032271  1.0
  H  H41  1  0.92037376  0.85230824  0.85094356  1.0
  H  H42  1  0.69367407  0.87004215  0.85185175  1.0
  H  H43  1  0.69430183  0.71137287  0.41871606  1.0
  C  C44  1  0.72616958  0.79045240  0.64951826  1.0
  C  C45  1  0.35767103  0.21575653  0.44558865  1.0
  C  C46  1  0.58935120  0.53856488  0.70116674  1.0
  C  C47  1  0.66049508  0.43809070  0.51370965  1.0
  C  C48  1  0.52152702  0.40506482  0.61099525  1.0
  C  C49  1  0.72746515  0.57766672  0.58604186  1.0
  C  C50  1  0.43238911  0.22323528  0.37739028  1.0
  C  C51  1  0.67151177  0.79182321  0.73503359  1.0
  C  C52  1  0.74133313  0.84253295  0.72442882  1.0
  C  C53  1  0.39112831  0.17221270  0.40850861  1.0
  C  C54  1  0.57981396  0.45864177  0.68819995  1.0
  C  C55  1  0.73941306  0.50843158  0.56973375  1.0
  C  C56  1  0.64690746  0.57962656  0.34449489  1.0
  C  C57  1  0.26334784  0.42124953  0.56695655  1.0
  C  C58  1  0.43828207  0.67583541  0.52821619  1.0
  C  C59  1  0.36616420  0.42444502  0.31131032  1.0
  C  C60  1  0.28743508  0.42123639  0.37634782  1.0
  C  C61  1  0.47664783  0.65647579  0.43236023  1.0
  C  C62  1  0.57373502  0.43855458  0.29031952  1.0
  C  C63  1  0.33554867  0.55685062  0.65301937  1.0
  C  C64  1  0.62768205  0.50619184  0.28057726  1.0
  C  C65  1  0.25466910  0.48476329  0.61549510  1.0
  C  C66  1  0.43490973  0.69244294  0.46425938  1.0
  C  C67  1  0.28733637  0.41394198  0.30436266  1.0
  C  C68  1  0.16349841  0.54061222  0.58807354  1.0
  C  C69  1  0.18162828  0.49074291  0.61923602  1.0
  C  C70  1  0.13301216  0.45388978  0.65520794  1.0
  C  C71  1  0.06888578  0.47000460  0.66319954  1.0
  C  C72  1  0.05285898  0.52244498  0.63255553  1.0
  C  C73  1  0.10696611  0.56556020  0.60155795  1.0
  C  C74  1  0.02269960  0.44385316  0.70703079  1.0
  C  C75  1  0.95200922  0.44835687  0.70307026  1.0
  C  C76  1  0.92250892  0.48039266  0.65329265  1.0
  C  C77  1  0.97965584  0.52713604  0.62771933  1.0
  C  C78  1  0.96131339  0.57468111  0.59188500  1.0
  C  C79  1  0.02674095  0.63293021  0.58034633  1.0
  C  C80  1  0.09809054  0.63102331  0.58757452  1.0
  C  C81  1  0.84192292  0.47167428  0.63222377  1.0
  C  C82  1  0.82169137  0.51580537  0.59328299  1.0
  C  C83  1  0.88200497  0.56634337  0.57328501  1.0
  C  C84  1  0.35187734  0.73731585  0.38596896  1.0
  C  C85  1  0.41590178  0.75469675  0.45129284  1.0
  C  C86  1  0.46848251  0.83867542  0.50951376  1.0
  C  C87  1  0.46121720  0.90587465  0.50379582  1.0
  C  C88  1  0.40082380  0.88947223  0.43496447  1.0
  C  C89  1  0.34561818  0.80412000  0.37523836  1.0
  C  C90  1  0.51028444  0.98881715  0.56626810  1.0
  C  C91  1  0.50541752  0.05556287  0.56010868  1.0
  C  C92  1  0.45407551  0.04289199  0.48710309  1.0
  C  C93  1  0.39633326  0.95820740  0.42628119  1.0
  C  C94  1  0.33614903  0.94339463  0.35694103  1.0
  C  C95  1  0.29007069  0.85817282  0.29456921  1.0
  C  C96  1  0.29210912  0.79191716  0.30485152  1.0
  C  C97  1  0.45946382  0.11236345  0.47399335  1.0
  C  C98  1  0.39271159  0.09797403  0.41203792  1.0
  C  C99  1  0.32928665  0.01417355  0.35764139  1.0
  C  C100  1  0.64920579  0.49452500  0.21451378  1.0
  C  C101  1  0.66488424  0.55244903  0.18332842  1.0
  C  C102  1  0.67502426  0.53328580  0.11535650  1.0
  C  C103  1  0.66977870  0.45581753  0.07465134  1.0
  C  C104  1  0.65892589  0.40009284  0.10849985  1.0
  C  C105  1  0.64886668  0.41959103  0.17667631  1.0
  C  C106  1  0.70338142  0.45481551  0.86441443  1.0
  C  C107  1  0.68671221  0.47643940  0.80492617  1.0
  C  C108  1  0.54527225  0.35665044  0.74288412  1.0
  C  C109  1  0.56328820  0.33209007  0.80023255  1.0
  C  C110  1  0.64022742  0.38434114  0.86466637  1.0
  C  C111  1  0.67022858  0.44043589  0.99973641  1.0
  C  C112  1  0.64968836  0.37146232  0.93482072  1.0
  C  C113  1  0.60606267  0.43170724  0.74485364  1.0
  C  C114  1  0.81283267  0.92816050  0.78072504  1.0
  C  C115  1  0.80367228  0.99979505  0.80206518  1.0
  C  C116  1  0.86749990  0.07894135  0.86255648  1.0
  C  C117  1  0.94449328  0.09053642  0.90414650  1.0
  C  C118  1  0.95709847  0.02128367  0.87930758  1.0
  C  C119  1  0.89145970  0.94063463  0.81925083  1.0
  C  C120  1  0.17481473  0.37811502  0.10494458  1.0
  C  C121  1  0.23568986  0.41503919  0.17892447  1.0
  C  C122  1  0.13493227  0.32220607  0.21168397  1.0
  C  C123  1  0.07401211  0.28618605  0.13723923  1.0
  C  C124  1  0.09396276  0.30925170  0.08171672  1.0
  C  C125  1  0.00658840  0.16710300  0.97604844  1.0
  C  C126  1  0.03507075  0.25118231  0.00037537  1.0
  C  C127  1  0.21884050  0.38549886  0.23286283  1.0
  C  C128  1  0.77171307  0.79754836  0.60192224  1.0
  C  C129  1  0.20633585  0.33334507  0.51041599  1.0
  C  C130  1  0.42079356  0.71177921  0.59222418  1.0
  C  C131  1  0.14136623  0.38538720  0.66944112  1.0
  C  C132  1  0.91489821  0.43884586  0.75961679  1.0
  C  C133  1  0.77147550  0.40712850  0.63838867  1.0
  C  C134  1  0.54322293  0.13450136  0.63321986  1.0
  C  C135  1  0.53939436  0.19552891  0.52174013  1.0
  C  C136  1  0.45614320  0.30719499  0.68625505  1.0
  C  C137  1  0.62601836  0.28445965  0.92269071  1.0
  C  C138  1  0.10888248  0.28124753  0.26028139  1.0
  C  C139  1  0.03927511  0.03111517  0.91177602  1.0
  C  C140  1  0.90354304  0.86579993  0.80150175  1.0
  C  C141  1  0.65122427  0.80557276  0.80175160  1.0
  C  C142  1  0.69807267  0.67077998  0.36863219  1.0
  I  I143  1  0.49936229  0.65885237  0.33704421  1.0
  I  I144  1  0.20433920  0.55550233  0.50124148  1.0
  I  I145  1  0.07999648  0.41752445  0.79229289  1.0
  I  I146  1  0.85063940  0.61804378  0.50026383  1.0
  I  I147  1  0.19981652  0.74164962  0.59981876  1.0
  I  I148  1  0.26367857  0.60927606  0.30594159  1.0
  I  I149  1  0.21865725  0.99956090  0.28729818  1.0
  I  I150  1  0.23403396  0.82734816  0.17736881  1.0
  I  I151  1  0.78871586  0.57875122  0.80678497  1.0
  I  I152  1  0.69082089  0.99014147  0.74436184  1.0
  I  I153  1  0.00632297  0.30424798  0.92843379  1.0
  I  I154  1  0.49973646  0.20497770  0.31406695  1.0
  N  N155  1  0.65188915  0.71574027  0.61856248  1.0
  N  N156  1  0.37813470  0.28708625  0.43741420  1.0
  N  N157  1  0.53879683  0.53123254  0.63723336  1.0
  N  N158  1  0.60697292  0.46455592  0.49765746  1.0
  N  N159  1  0.49691221  0.44907539  0.58143432  1.0
  N  N160  1  0.64795914  0.55048784  0.54198237  1.0
  N  N161  1  0.42543156  0.29244786  0.39551787  1.0
  N  N162  1  0.61954996  0.71642218  0.66968016  1.0
  N  N163  1  0.60642647  0.55452538  0.38803280  1.0
  N  N164  1  0.34434463  0.45579711  0.57607204  1.0
  N  N165  1  0.47729535  0.63166659  0.53183745  1.0
  N  N166  1  0.40751135  0.43415182  0.38069009  1.0
  N  N167  1  0.35933176  0.43261765  0.42084996  1.0
  N  N168  1  0.50318741  0.62161714  0.47464605  1.0
  N  N169  1  0.56174360  0.46843949  0.35378309  1.0
  N  N170  1  0.38796753  0.53807924  0.62768309  1.0
  O  O171  1  0.74278389  0.73704819  0.53724484  1.0
  O  O172  1  0.23043409  0.29262096  0.47118485  1.0
  O  O173  1  0.44767556  0.71102385  0.65427463  1.0
  O  O174  1  0.20677478  0.38525603  0.68752963  1.0
  O  O175  1  0.92287854  0.40122044  0.79720678  1.0
  O  O176  1  0.77221124  0.34990168  0.65298446  1.0
  O  O177  1  0.59227699  0.14927000  0.69442394  1.0
  O  O178  1  0.55461552  0.26509661  0.52535745  1.0
  O  O179  1  0.41151032  0.22933825  0.65750963  1.0
  O  O180  1  0.63149764  0.25933098  0.97201273  1.0
  O  O181  1  0.03600336  0.24285428  0.25231351  1.0
  O  O182  1  0.05274804  0.97354600  0.88625041  1.0
  O  O183  1  0.88766569  0.81713069  0.73666117  1.0
  O  O184  1  0.59157949  0.74960245  0.80360662  1.0
  O  O185  1  0.74219911  0.70332962  0.33863742  1.0
