# generated using pymatgen
data_MgH9C17(NO)3
_symmetry_space_group_name_H-M   'P 1'
_cell_length_a   6.86732117
_cell_length_b   42.01720283
_cell_length_c   42.01654054
_cell_angle_alpha   119.70549943
_cell_angle_beta   93.12390179
_cell_angle_gamma   93.12420746
_symmetry_Int_Tables_number   1
_chemical_formula_structural   MgH9C17(NO)3
_chemical_formula_sum   'Mg6 H54 C102 N18 O18'
_cell_volume   10468.25937341
_cell_formula_units_Z   6
loop_
 _symmetry_equiv_pos_site_id
 _symmetry_equiv_pos_as_xyz
  1  'x, y, z'
loop_
 _atom_site_type_symbol
 _atom_site_label
 _atom_site_symmetry_multiplicity
 _atom_site_fract_x
 _atom_site_fract_y
 _atom_site_fract_z
 _atom_site_occupancy
  Mg  Mg0  1  0.10752840  0.63925460  0.32748362  1.0
  Mg  Mg1  1  0.37404282  0.36032508  0.67143532  1.0
  Mg  Mg2  1  0.78002817  0.67250864  0.31177792  1.0
  Mg  Mg3  1  0.70256296  0.32856034  0.68888643  1.0
  Mg  Mg4  1  0.46824733  0.68821070  0.36073200  1.0
  Mg  Mg5  1  0.01373229  0.31110917  0.63966738  1.0
  H  H6  1  0.04518007  0.37318777  0.79257979  1.0
  H  H7  1  0.29022452  0.39968253  0.84759372  1.0
  H  H8  1  0.74468759  0.39475919  0.77881206  1.0
  H  H9  1  0.99674960  0.44605726  0.87675984  1.0
  H  H10  1  0.24437981  0.47620833  0.93212079  1.0
  H  H11  1  0.26029731  0.51726750  0.06492373  1.0
  H  H12  1  0.50000305  0.55064258  0.12135591  1.0
  H  H13  1  0.20066625  0.60191374  0.15254103  1.0
  H  H14  1  0.44132371  0.62984847  0.20830112  1.0
  H  H15  1  0.74132921  0.60596907  0.22014814  1.0
  H  H16  1  0.06493295  0.58684739  0.08078981  1.0
  H  H17  1  0.15140803  0.58032361  0.02130601  1.0
  H  H18  1  0.91117263  0.54813418  0.96562505  1.0
  H  H19  1  0.58597892  0.52168774  0.96931283  1.0
  H  H20  1  0.93012983  0.46749000  0.02663191  1.0
  H  H21  1  0.60503578  0.44099788  0.03039147  1.0
  H  H22  1  0.35866380  0.41132420  0.97556350  1.0
  H  H23  1  0.43768961  0.40770786  0.91691008  1.0
  H  H24  1  0.25256503  0.20741008  0.58059273  1.0
  H  H25  1  0.44271640  0.15240270  0.55209777  1.0
  H  H26  1  0.96591331  0.22120163  0.61595496  1.0
  H  H27  1  0.12001452  0.12324535  0.56929612  1.0
  H  H28  1  0.31240773  0.06790248  0.54409661  1.0
  H  H29  1  0.19535034  0.93508041  0.45234153  1.0
  H  H30  1  0.37866234  0.87865176  0.42928036  1.0
  H  H31  1  0.04824840  0.84744260  0.44936646  1.0
  H  H32  1  0.23302870  0.79167091  0.42154235  1.0
  H  H33  1  0.52127082  0.77985387  0.38582271  1.0
  H  H34  1  0.98410732  0.91920503  0.50604145  1.0
  H  H35  1  0.13011138  0.97867593  0.55900355  1.0
  H  H36  1  0.94562051  0.03436657  0.58251366  1.0
  H  H37  1  0.61669218  0.03068987  0.55238495  1.0
  H  H38  1  0.90339830  0.97338438  0.44087261  1.0
  H  H39  1  0.57466715  0.96962373  0.41061075  1.0
  H  H40  1  0.38310231  0.02444734  0.43575844  1.0
  H  H41  1  0.52080041  0.08310086  0.49079067  1.0
  H  H42  1  0.67189402  0.41940325  0.62683189  1.0
  H  H43  1  0.89045269  0.44790880  0.60030672  1.0
  H  H44  1  0.34987232  0.38407089  0.60524272  1.0
  H  H45  1  0.55085743  0.43069624  0.55394763  1.0
  H  H46  1  0.76838458  0.45591478  0.52379351  1.0
  H  H47  1  0.74306139  0.54766132  0.48273653  1.0
  H  H48  1  0.94937291  0.57070582  0.44935150  1.0
  H  H49  1  0.59878169  0.55064189  0.39809308  1.0
  H  H50  1  0.81160485  0.57844808  0.37016019  1.0
  H  H51  1  0.13549060  0.61417589  0.39400717  1.0
  H  H52  1  0.47814957  0.49395204  0.41315468  1.0
  H  H53  1  0.57113828  0.44098137  0.41967043  1.0
  H  H54  1  0.36307486  0.41750173  0.45186437  1.0
  H  H55  1  0.06425405  0.44761395  0.47829366  1.0
  H  H56  1  0.46266435  0.55913493  0.53249384  1.0
  H  H57  1  0.16410093  0.58937980  0.55900544  1.0
  H  H58  1  0.94751565  0.56422050  0.58867716  1.0
  H  H59  1  0.03017743  0.50919519  0.59228955  1.0
  C  C60  1  0.10055105  0.35145224  0.72366556  1.0
  C  C61  1  0.25415766  0.36893198  0.75466940  1.0
  C  C62  1  0.19939224  0.37829006  0.79007902  1.0
  C  C63  1  0.33361722  0.39286145  0.82057530  1.0
  C  C64  1  0.53290051  0.39838663  0.81608950  1.0
  C  C65  1  0.59058448  0.39012285  0.78165918  1.0
  C  C66  1  0.45541659  0.37540421  0.75023829  1.0
  C  C67  1  0.77857414  0.43378717  0.90472175  1.0
  C  C68  1  0.96393199  0.44813764  0.90278838  1.0
  C  C69  1  0.10015083  0.46499499  0.93340715  1.0
  C  C70  1  0.05510270  0.46807496  0.96694791  1.0
  C  C71  1  0.45365639  0.52393696  0.02983330  1.0
  C  C72  1  0.40470814  0.52852075  0.06376325  1.0
  C  C73  1  0.53647821  0.54717701  0.09495292  1.0
  C  C74  1  0.72169373  0.56168903  0.09316118  1.0
  C  C75  1  0.95596999  0.60250430  0.18336775  1.0
  C  C76  1  0.15526724  0.60886389  0.17946751  1.0
  C  C77  1  0.28711547  0.62418251  0.21034624  1.0
  C  C78  1  0.23003297  0.63335150  0.24556037  1.0
  C  C79  1  0.38222762  0.65067602  0.27683410  1.0
  C  C80  1  0.02855048  0.62638855  0.24950069  1.0
  C  C81  1  0.89548760  0.61115916  0.21773658  1.0
  C  C82  1  0.77641037  0.55819157  0.05912381  1.0
  C  C83  1  0.96123120  0.57289157  0.05631548  1.0
  C  C84  1  0.00790912  0.56929275  0.02321837  1.0
  C  C85  1  0.87207911  0.55095984  0.99165526  1.0
  C  C86  1  0.69139410  0.53620756  0.99348228  1.0
  C  C87  1  0.63899910  0.53947942  0.02706820  1.0
  C  C88  1  0.87020103  0.45240375  0.96970207  1.0
  C  C89  1  0.82170822  0.45414098  0.00285189  1.0
  C  C90  1  0.64114084  0.43936145  0.00469764  1.0
  C  C91  1  0.50174492  0.42246157  0.97360214  1.0
  C  C92  1  0.54433857  0.42046322  0.94097822  1.0
  C  C93  1  0.72864635  0.43534459  0.93818094  1.0
  C  C94  1  0.37692860  0.27632995  0.62778187  1.0
  C  C95  1  0.49944727  0.24532329  0.61426113  1.0
  C  C96  1  0.40926885  0.20991567  0.58820716  1.0
  C  C97  1  0.51306761  0.17942445  0.57230519  1.0
  C  C98  1  0.71682307  0.18392116  0.58232437  1.0
  C  C99  1  0.80896158  0.21835477  0.60847551  1.0
  C  C100  1  0.70513126  0.24975974  0.62516297  1.0
  C  C101  1  0.87391599  0.09529914  0.52906900  1.0
  C  C102  1  0.06121718  0.09721801  0.54534131  1.0
  C  C103  1  0.16691063  0.06661313  0.53158426  1.0
  C  C104  1  0.08830427  0.03306770  0.50113517  1.0
  C  C105  1  0.42382256  0.97016841  0.49411217  1.0
  C  C106  1  0.34091641  0.93624234  0.46475898  1.0
  C  C107  1  0.44153580  0.90505865  0.45221718  1.0
  C  C108  1  0.62848969  0.90683831  0.46853631  1.0
  C  C109  1  0.77269173  0.81663620  0.41912724  1.0
  C  C110  1  0.97588670  0.82052522  0.42938435  1.0
  C  C111  1  0.07676850  0.78962962  0.41383304  1.0
  C  C112  1  0.98446995  0.75442214  0.38779597  1.0
  C  C113  1  0.10546125  0.72315671  0.37384861  1.0
  C  C114  1  0.77904633  0.75049184  0.37689426  1.0
  C  C115  1  0.67783222  0.78226424  0.39342105  1.0
  C  C116  1  0.71718790  0.94086817  0.49908540  1.0
  C  C117  1  0.90486842  0.94368075  0.51658641  1.0
  C  C118  1  0.98464096  0.97676463  0.54607412  1.0
  C  C119  1  0.88044333  0.00833398  0.55932007  1.0
  C  C120  1  0.69789857  0.00651470  0.54274591  1.0
  C  C121  1  0.61187307  0.97293036  0.51243819  1.0
  C  C122  1  0.90055823  0.03032095  0.48272599  1.0
  C  C123  1  0.81880130  0.99717147  0.45131636  1.0
  C  C124  1  0.63643617  0.99532356  0.43466369  1.0
  C  C125  1  0.52819943  0.02642117  0.44884823  1.0
  C  C126  1  0.60343654  0.05904102  0.47946934  1.0
  C  C127  1  0.79053810  0.06184479  0.49716385  1.0
  C  C128  1  0.74914207  0.37222521  0.64856502  1.0
  C  C129  1  0.88517947  0.38574651  0.63107386  1.0
  C  C130  1  0.82100719  0.41180036  0.62171773  1.0
  C  C131  1  0.94060320  0.42770066  0.60712003  1.0
  C  C132  1  0.13432849  0.41769074  0.60159522  1.0
  C  C133  1  0.20039836  0.39154442  0.60988116  1.0
  C  C134  1  0.07994390  0.37484597  0.62459549  1.0
  C  C135  1  0.34496105  0.47092208  0.56620396  1.0
  C  C136  1  0.51604778  0.45465217  0.55187299  1.0
  C  C137  1  0.63538816  0.46841727  0.53501825  1.0
  C  C138  1  0.58714852  0.49885082  0.53190422  1.0
  C  C139  1  0.92978575  0.50590436  0.47606009  1.0
  C  C140  1  0.87621904  0.53525378  0.47148722  1.0
  C  C141  1  0.98936074  0.54777540  0.45282628  1.0
  C  C142  1  0.16007680  0.53146882  0.43830710  1.0
  C  C143  1  0.35354967  0.58087613  0.39750487  1.0
  C  C144  1  0.54653031  0.57064416  0.39117380  1.0
  C  C145  1  0.66313369  0.58618858  0.37585330  1.0
  C  C146  1  0.59687413  0.61221243  0.36665341  1.0
  C  C147  1  0.73164950  0.62614381  0.34931567  1.0
  C  C148  1  0.40231830  0.62308842  0.37358639  1.0
  C  C149  1  0.28445088  0.60656475  0.38881735  1.0
  C  C150  1  0.21831975  0.50094007  0.44181121  1.0
  C  C151  1  0.38847529  0.48342916  0.42711474  1.0
  C  C152  1  0.43870218  0.45393661  0.43071062  1.0
  C  C153  1  0.32119690  0.44070297  0.44903913  1.0
  C  C154  1  0.15512583  0.45726822  0.46377745  1.0
  C  C155  1  0.09956438  0.48758616  0.46051167  1.0
  C  C156  1  0.41786923  0.51726226  0.54755528  1.0
  C  C157  1  0.36763943  0.54868222  0.54582794  1.0
  C  C158  1  0.20192067  0.56532205  0.56063730  1.0
  C  C159  1  0.07952722  0.55113833  0.57755777  1.0
  C  C160  1  0.12413732  0.52051018  0.57954415  1.0
  C  C161  1  0.29350810  0.50281817  0.56464218  1.0
  N  N162  1  0.68652288  0.41182993  0.84449132  1.0
  N  N163  1  0.63153553  0.41870658  0.87556980  1.0
  N  N164  1  0.18461878  0.48532069  0.99863804  1.0
  N  N165  1  0.32595621  0.50599292  0.99797417  1.0
  N  N166  1  0.86457486  0.57861609  0.12299596  1.0
  N  N167  1  0.80521941  0.58757727  0.15430122  1.0
  N  N168  1  0.84203953  0.15552198  0.56736016  1.0
  N  N169  1  0.75600066  0.12444365  0.54315141  1.0
  N  N170  1  0.18602128  0.00136768  0.48669253  1.0
  N  N171  1  0.32804237  0.00203201  0.50802560  1.0
  N  N172  1  0.74157769  0.87700766  0.45562100  1.0
  N  N173  1  0.65097343  0.84569978  0.43326778  1.0
  N  N174  1  0.27458041  0.43264873  0.58815414  1.0
  N  N175  1  0.21285306  0.45685144  0.58127136  1.0
  N  N176  1  0.69934723  0.51330396  0.51466020  1.0
  N  N177  1  0.82003991  0.49197883  0.49399415  1.0
  N  N178  1  0.28599285  0.54438817  0.42138644  1.0
  N  N179  1  0.21766625  0.56672429  0.41241511  1.0
  O  O180  1  0.55645436  0.65917133  0.27280451  1.0
  O  O181  1  0.33538811  0.65705977  0.30880164  1.0
  O  O182  1  0.95921929  0.63372484  0.28148167  1.0
  O  O183  1  0.92644720  0.34341964  0.72815653  1.0
  O  O184  1  0.14620130  0.34419217  0.69137336  1.0
  O  O185  1  0.52337568  0.36790917  0.71810968  1.0
  O  O186  1  0.28368054  0.72718767  0.38638607  1.0
  O  O187  1  0.02671693  0.69119493  0.34824100  1.0
  O  O188  1  0.67767379  0.71851100  0.35224908  1.0
  O  O189  1  0.19834537  0.27184239  0.61524956  1.0
  O  O190  1  0.45483340  0.30861952  0.65282020  1.0
  O  O191  1  0.80519467  0.28189607  0.64979525  1.0
  O  O192  1  0.89735941  0.61360868  0.34081007  1.0
  O  O193  1  0.67843440  0.65172872  0.34293160  1.0
  O  O194  1  0.32552740  0.64773089  0.36625072  1.0
  O  O195  1  0.58310940  0.38475951  0.65661157  1.0
  O  O196  1  0.80199979  0.34717946  0.65580929  1.0
  O  O197  1  0.15543467  0.35020487  0.63208305  1.0
