# generated using pymatgen
data_ZnH13C18Br2N7O4
_symmetry_space_group_name_H-M   'P 1'
_cell_length_a   11.09744833
_cell_length_b   16.12247140
_cell_length_c   17.27745022
_cell_angle_alpha   96.03683264
_cell_angle_beta   90.07573596
_cell_angle_gamma   92.21596470
_symmetry_Int_Tables_number   1
_chemical_formula_structural   ZnH13C18Br2N7O4
_chemical_formula_sum   'Zn2 H26 C36 Br4 N14 O8'
_cell_volume   3071.76531348
_cell_formula_units_Z   2
loop_
 _symmetry_equiv_pos_site_id
 _symmetry_equiv_pos_as_xyz
  1  'x, y, z'
loop_
 _atom_site_type_symbol
 _atom_site_label
 _atom_site_symmetry_multiplicity
 _atom_site_fract_x
 _atom_site_fract_y
 _atom_site_fract_z
 _atom_site_occupancy
  Zn  Zn0  1  0.49846307  0.40846744  0.49810333  1.0
  Zn  Zn1  1  0.50521166  0.59321000  0.50493893  1.0
  H  H2  1  0.39471751  0.71462051  0.42108527  1.0
  H  H3  1  0.38226714  0.87060217  0.42481677  1.0
  H  H4  1  0.31420495  0.11086596  0.41564268  1.0
  H  H5  1  0.62910071  0.11848579  0.56263021  1.0
  H  H6  1  0.51212504  0.61779303  0.26587758  1.0
  H  H7  1  0.51446764  0.61612395  0.12025770  1.0
  H  H8  1  0.52563907  0.66006803  0.90442990  1.0
  H  H9  1  0.48443869  0.39306212  0.88955702  1.0
  H  H10  1  0.77160688  0.57330355  0.39196974  1.0
  H  H11  1  0.21963490  0.57627280  0.37793190  1.0
  H  H12  1  0.69224569  0.66795147  0.58841430  1.0
  H  H13  1  0.69655049  0.75476917  0.65540210  1.0
  H  H14  1  0.68375777  0.96431471  0.60649634  1.0
  H  H15  1  0.76069218  0.87642195  0.62073220  1.0
  H  H16  1  0.29898505  0.33772637  0.43401399  1.0
  H  H17  1  0.24256360  0.24251186  0.38990442  1.0
  H  H18  1  0.67714419  0.34134434  0.56321894  1.0
  H  H19  1  0.71901767  0.25202341  0.59930621  1.0
  H  H20  1  0.50892281  0.33355860  0.30550398  1.0
  H  H21  1  0.54189846  0.28401797  0.21462616  1.0
  H  H22  1  0.48515674  0.33602202  0.03252538  1.0
  H  H23  1  0.44168116  0.28516872  0.11023919  1.0
  H  H24  1  0.49601061  0.66976964  0.69785882  1.0
  H  H25  1  0.50355854  0.72420104  0.79047396  1.0
  H  H26  1  0.48826252  0.36229104  0.68051303  1.0
  H  H27  1  0.48076135  0.31731039  0.76797134  1.0
  C  C28  1  0.50913540  0.48972686  0.35043387  1.0
  C  C29  1  0.26596703  0.50901318  0.49937897  1.0
  C  C30  1  0.49564376  0.51514333  0.65416467  1.0
  C  C31  1  0.74085191  0.49885131  0.51197427  1.0
  C  C32  1  0.45123624  0.75739035  0.45987273  1.0
  C  C33  1  0.44426120  0.84239283  0.46217142  1.0
  C  C34  1  0.52173636  0.89379305  0.51352102  1.0
  C  C35  1  0.60259505  0.85657072  0.56105494  1.0
  C  C36  1  0.60265417  0.76723470  0.55566282  1.0
  C  C37  1  0.38618759  0.14613217  0.44878750  1.0
  C  C38  1  0.47060890  0.10458939  0.48843091  1.0
  C  C39  1  0.56187469  0.14996633  0.53193024  1.0
  C  C40  1  0.56604032  0.23706661  0.53437739  1.0
  C  C41  1  0.39403864  0.23403615  0.45412872  1.0
  C  C42  1  0.50601451  0.48415107  0.26428223  1.0
  C  C43  1  0.50926391  0.55929799  0.22806816  1.0
  C  C44  1  0.51088294  0.55878070  0.14841623  1.0
  C  C45  1  0.50578388  0.48163143  0.10089309  1.0
  C  C46  1  0.50081598  0.40582796  0.13511436  1.0
  C  C47  1  0.50305839  0.40646829  0.21774833  1.0
  C  C48  1  0.51457535  0.60060788  0.86822490  1.0
  C  C49  1  0.50563003  0.52718659  0.90447057  1.0
  C  C50  1  0.49201402  0.44968040  0.86030089  1.0
  C  C51  1  0.48752943  0.44450423  0.77885980  1.0
  C  C52  1  0.49776977  0.51927485  0.73975636  1.0
  C  C53  1  0.51036524  0.59800601  0.78679474  1.0
  C  C54  1  0.87644887  0.50380242  0.51175027  1.0
  C  C55  1  0.93508621  0.53867913  0.44848294  1.0
  C  C56  1  0.94363338  0.47518705  0.57026405  1.0
  C  C57  1  0.86955812  0.57271075  0.38953328  1.0
  C  C58  1  0.92823858  0.60771292  0.32977438  1.0
  C  C59  1  0.13056521  0.50722597  0.50448058  1.0
  C  C60  1  0.07160313  0.47632861  0.56673248  1.0
  C  C61  1  0.06390756  0.54017036  0.44480031  1.0
  C  C62  1  0.12176807  0.57474296  0.38170987  1.0
  C  C63  1  0.05607815  0.60834995  0.32563922  1.0
  Br  Br64  1  0.16266445  0.43855700  0.64830945  1.0
  Br  Br65  1  0.86213428  0.43884646  0.65821570  1.0
  Br  Br66  1  0.83426966  0.65375132  0.25460289  1.0
  Br  Br67  1  0.14113012  0.65515377  0.24452998  1.0
  N  N68  1  0.52773432  0.72029038  0.50653034  1.0
  N  N69  1  0.53173922  0.98079385  0.51978463  1.0
  N  N70  1  0.45502419  0.01634681  0.48120139  1.0
  N  N71  1  0.48366911  0.27908307  0.49571260  1.0
  N  N72  1  0.50103200  0.47218877  0.01962226  1.0
  N  N73  1  0.51204244  0.53903731  0.98675519  1.0
  N  N74  1  0.68569774  0.73127097  0.59881442  1.0
  N  N75  1  0.68008359  0.90215313  0.61248490  1.0
  N  N76  1  0.31262590  0.27610609  0.41635166  1.0
  N  N77  1  0.65128812  0.28368168  0.57840292  1.0
  N  N78  1  0.49758954  0.32974680  0.24655483  1.0
  N  N79  1  0.49779191  0.32936569  0.08998091  1.0
  N  N80  1  0.52282159  0.67266764  0.75461642  1.0
  N  N81  1  0.46877542  0.36722146  0.73831737  1.0
  O  O82  1  0.50771497  0.42143546  0.38286774  1.0
  O  O83  1  0.51382035  0.56228612  0.38850238  1.0
  O  O84  1  0.31866534  0.58019995  0.50281719  1.0
  O  O85  1  0.31556082  0.43878080  0.49050802  1.0
  O  O86  1  0.49042065  0.58313529  0.62173034  1.0
  O  O87  1  0.50002509  0.44340871  0.61379303  1.0
  O  O88  1  0.68991498  0.42698866  0.49924297  1.0
  O  O89  1  0.68845866  0.56773087  0.52091975  1.0
