# generated using pymatgen
data_Zn2H21C38S3N2O11
_symmetry_space_group_name_H-M   'P 1'
_cell_length_a   12.74401658
_cell_length_b   13.85148194
_cell_length_c   28.06858515
_cell_angle_alpha   89.79923939
_cell_angle_beta   89.77637788
_cell_angle_gamma   89.90704301
_symmetry_Int_Tables_number   1
_chemical_formula_structural   Zn2H21C38S3N2O11
_chemical_formula_sum   'Zn4 H42 C76 S6 N4 O22'
_cell_volume   4954.69076048
_cell_formula_units_Z   2
loop_
 _symmetry_equiv_pos_site_id
 _symmetry_equiv_pos_as_xyz
  1  'x, y, z'
loop_
 _atom_site_type_symbol
 _atom_site_label
 _atom_site_symmetry_multiplicity
 _atom_site_fract_x
 _atom_site_fract_y
 _atom_site_fract_z
 _atom_site_occupancy
  Zn  Zn0  1  0.50137077  0.39973974  0.49896474  1.0
  Zn  Zn1  1  0.49792903  0.60039213  0.49881407  1.0
  Zn  Zn2  1  0.50162226  0.60066848  0.04416797  1.0
  Zn  Zn3  1  0.49907993  0.40003225  0.04435358  1.0
  H  H4  1  0.38445506  0.24729532  0.55221439  1.0
  H  H5  1  0.31036566  0.08817055  0.58588541  1.0
  H  H6  1  0.61329016  0.25134511  0.44835754  1.0
  H  H7  1  0.61537476  0.75328852  0.44696084  1.0
  H  H8  1  0.69011177  0.91188061  0.41381920  1.0
  H  H9  1  0.38586069  0.74862629  0.55048190  1.0
  H  H10  1  0.50002864  0.65764252  0.65128030  1.0
  H  H11  1  0.50064266  0.74737415  0.72872631  1.0
  H  H12  1  0.49886884  0.35011473  0.64835085  1.0
  H  H13  1  0.49986375  0.34212373  0.89181819  1.0
  H  H14  1  0.49924884  0.25243961  0.81440492  1.0
  H  H15  1  0.50047969  0.64967787  0.89479665  1.0
  H  H16  1  0.38504173  0.75370286  0.99121081  1.0
  H  H17  1  0.31176770  0.91312492  0.95769751  1.0
  H  H18  1  0.61376183  0.74835485  0.09429305  1.0
  H  H19  1  0.61680181  0.24649741  0.09585751  1.0
  H  H20  1  0.69130719  0.08742650  0.12870470  1.0
  H  H21  1  0.38791297  0.25223204  0.99284513  1.0
  H  H22  1  0.30032867  0.83497998  0.58933912  1.0
  H  H23  1  0.69899728  0.16527651  0.40987283  1.0
  H  H24  1  0.50322419  0.75168990  0.85388998  1.0
  H  H25  1  0.50125295  0.24815918  0.68922828  1.0
  H  H26  1  0.30217488  0.16633925  0.95427604  1.0
  H  H27  1  0.69975722  0.83394187  0.13245718  1.0
  H  H28  1  0.57075209  0.69961510  0.36001924  1.0
  H  H29  1  0.50022977  0.73193462  0.30743675  1.0
  H  H30  1  0.43278993  0.69911632  0.36111104  1.0
  H  H31  1  0.57073566  0.29983578  0.18290211  1.0
  H  H32  1  0.49998459  0.26776899  0.23567134  1.0
  H  H33  1  0.43280182  0.30095527  0.18219213  1.0
  H  H34  1  0.19521166  0.29967167  0.53153754  1.0
  H  H35  1  0.07969468  0.26774070  0.49948672  1.0
  H  H36  1  0.19795858  0.30047049  0.46890227  1.0
  H  H37  1  0.80220501  0.69953084  0.53112748  1.0
  H  H38  1  0.92031334  0.73199685  0.50042271  1.0
  H  H39  1  0.80438418  0.70052942  0.46850089  1.0
  H  H40  1  0.19549561  0.70150825  0.01240490  1.0
  H  H41  1  0.07981558  0.73366967  0.04476208  1.0
  H  H42  1  0.19809182  0.70099189  0.07502642  1.0
  H  H43  1  0.80369042  0.30177874  0.01372231  1.0
  H  H44  1  0.92168538  0.26961935  0.04430243  1.0
  H  H45  1  0.80543799  0.30144759  0.07636120  1.0
  C  C46  1  0.49814057  0.50337096  0.59256991  1.0
  C  C47  1  0.29394526  0.50295088  0.49968784  1.0
  C  C48  1  0.50167905  0.49695642  0.40527520  1.0
  C  C49  1  0.70547695  0.49750408  0.49869013  1.0
  C  C50  1  0.49920011  0.49634450  0.95058362  1.0
  C  C51  1  0.29466254  0.49826804  0.04418606  1.0
  C  C52  1  0.50188822  0.50277538  0.13788370  1.0
  C  C53  1  0.70613485  0.50415785  0.04458172  1.0
  C  C54  1  0.43478375  0.20317452  0.52946178  1.0
  C  C55  1  0.43146452  0.10180501  0.53100997  1.0
  C  C56  1  0.36310549  0.04948019  0.56193986  1.0
  C  C57  1  0.56465821  0.20425513  0.47055584  1.0
  C  C58  1  0.56887158  0.10337031  0.46879796  1.0
  C  C59  1  0.63804604  0.04994832  0.43751002  1.0
  C  C60  1  0.56512103  0.79720459  0.46981713  1.0
  C  C61  1  0.56889226  0.89853391  0.46858527  1.0
  C  C62  1  0.63746029  0.95072633  0.43773598  1.0
  C  C63  1  0.43496942  0.79583723  0.52856415  1.0
  C  C64  1  0.43132718  0.89674661  0.53070116  1.0
  C  C65  1  0.36238327  0.95022889  0.56208877  1.0
  C  C66  1  0.50048341  0.05109156  0.49975923  1.0
  C  C67  1  0.49991673  0.94914685  0.49987698  1.0
  C  C68  1  0.50161205  0.58018471  0.32300498  1.0
  C  C69  1  0.50169470  0.41954778  0.22014369  1.0
  C  C70  1  0.50179785  0.49956537  0.35283792  1.0
  C  C71  1  0.50192712  0.50017443  0.19031999  1.0
  C  C72  1  0.50201276  0.44953163  0.26838580  1.0
  C  C73  1  0.50198063  0.55017938  0.27476918  1.0
  C  C74  1  0.49906874  0.58988376  0.67115699  1.0
  C  C75  1  0.49928577  0.59048109  0.72119766  1.0
  C  C76  1  0.50004093  0.67841050  0.74759248  1.0
  C  C77  1  0.49856775  0.41492512  0.67042896  1.0
  C  C78  1  0.49877157  0.41174179  0.72025676  1.0
  C  C79  1  0.49892658  0.32216847  0.74676275  1.0
  C  C80  1  0.49923615  0.40991729  0.87196916  1.0
  C  C81  1  0.49904026  0.40934304  0.82193414  1.0
  C  C82  1  0.49897172  0.32140155  0.79554027  1.0
  C  C83  1  0.49975128  0.58486860  0.87272353  1.0
  C  C84  1  0.49969022  0.58807220  0.82289262  1.0
  C  C85  1  0.50026106  0.67764216  0.79637718  1.0
  C  C86  1  0.49848668  0.50311372  0.64598840  1.0
  C  C87  1  0.49896605  0.50027606  0.74630477  1.0
  C  C88  1  0.49933804  0.49665750  0.89715998  1.0
  C  C89  1  0.49915044  0.49955810  0.79683308  1.0
  C  C90  1  0.11332160  0.41940347  0.49995238  1.0
  C  C91  1  0.88621459  0.58045126  0.49987228  1.0
  C  C92  1  0.17860393  0.49996818  0.50004208  1.0
  C  C93  1  0.82084197  0.49995274  0.49931775  1.0
  C  C94  1  0.99250354  0.55023486  0.50018440  1.0
  C  C95  1  0.00696684  0.44954050  0.49996535  1.0
  C  C96  1  0.43556269  0.79752469  0.01376750  1.0
  C  C97  1  0.43273386  0.89890995  0.01216940  1.0
  C  C98  1  0.36462464  0.95156669  0.98143873  1.0
  C  C99  1  0.56527704  0.79573493  0.07228220  1.0
  C  C100  1  0.56984988  0.89659140  0.07400562  1.0
  C  C101  1  0.63903001  0.94964427  0.10511339  1.0
  C  C102  1  0.56666597  0.20283123  0.07308393  1.0
  C  C103  1  0.57032736  0.10147828  0.07426658  1.0
  C  C104  1  0.63862782  0.04887807  0.10492975  1.0
  C  C105  1  0.43686485  0.20483005  0.01463550  1.0
  C  C106  1  0.43312548  0.10394751  0.01247422  1.0
  C  C107  1  0.36414551  0.05081331  0.98129156  1.0
  C  C108  1  0.50179728  0.94925504  0.04321372  1.0
  C  C109  1  0.50146627  0.05119943  0.04311035  1.0
  C  C110  1  0.11383116  0.58197063  0.04437366  1.0
  C  C111  1  0.88709893  0.42114630  0.04454268  1.0
  C  C112  1  0.17930308  0.50132248  0.04431450  1.0
  C  C113  1  0.82150639  0.50168825  0.04460890  1.0
  C  C114  1  0.99332476  0.45127339  0.04443355  1.0
  C  C115  1  0.00754391  0.55194831  0.04445468  1.0
  C  C116  1  0.50117556  0.68351062  0.33848456  1.0
  C  C117  1  0.50113069  0.31623396  0.20464053  1.0
  C  C118  1  0.14789785  0.31604481  0.49987577  1.0
  C  C119  1  0.85193789  0.68389622  0.50004664  1.0
  C  C120  1  0.14814430  0.68530693  0.04422465  1.0
  C  C121  1  0.85313988  0.31772433  0.04465729  1.0
  S  S122  1  0.50185557  0.38997006  0.32246128  1.0
  S  S123  1  0.50188904  0.60975674  0.22069910  1.0
  S  S124  1  0.11129131  0.60965406  0.50023836  1.0
  S  S125  1  0.88809656  0.39021918  0.49946612  1.0
  S  S126  1  0.11222907  0.39171983  0.04440002  1.0
  S  S127  1  0.88849550  0.61137355  0.04443725  1.0
  N  N128  1  0.49931562  0.25136201  0.50011436  1.0
  N  N129  1  0.50011638  0.74885662  0.49883843  1.0
  N  N130  1  0.49979176  0.74899122  0.04295066  1.0
  N  N131  1  0.50187624  0.25152121  0.04423903  1.0
  O  O132  1  0.49997122  0.42153372  0.57190300  1.0
  O  O133  1  0.49611649  0.58531586  0.57182913  1.0
  O  O134  1  0.33672997  0.58641421  0.49993816  1.0
  O  O135  1  0.34221345  0.42208861  0.49905870  1.0
  O  O136  1  0.49936613  0.57821011  0.42664485  1.0
  O  O137  1  0.50371346  0.41389353  0.42526038  1.0
  O  O138  1  0.66212610  0.41424703  0.49810683  1.0
  O  O139  1  0.65775530  0.57858802  0.49883721  1.0
  O  O140  1  0.50105680  0.57813507  0.97127338  1.0
  O  O141  1  0.49721763  0.41437608  0.97131961  1.0
  O  O142  1  0.33776190  0.41481348  0.04383419  1.0
  O  O143  1  0.34260807  0.57914894  0.04445667  1.0
  O  O144  1  0.50006826  0.42148427  0.11654547  1.0
  O  O145  1  0.50353482  0.58581849  0.11787861  1.0
  O  O146  1  0.66249054  0.58741498  0.04497493  1.0
  O  O147  1  0.65867392  0.42308679  0.04407099  1.0
  O  O148  1  0.29529745  0.90483004  0.59251496  1.0
  O  O149  1  0.70510189  0.09542002  0.40709737  1.0
  O  O150  1  0.50084945  0.76417443  0.81972502  1.0
  O  O151  1  0.49885526  0.23565446  0.72339939  1.0
  O  O152  1  0.29713538  0.09650864  0.95110269  1.0
  O  O153  1  0.70591025  0.90377857  0.13529192  1.0
