# generated using pymatgen
data_Al2H17C26O10F
_symmetry_space_group_name_H-M   'P 1'
_cell_length_a   6.72322563
_cell_length_b   11.13029278
_cell_length_c   17.67125004
_cell_angle_alpha   102.47058022
_cell_angle_beta   98.66935662
_cell_angle_gamma   106.94722254
_symmetry_Int_Tables_number   1
_chemical_formula_structural   Al2H17C26O10F
_chemical_formula_sum   'Al2 H17 C26 O10 F1'
_cell_volume   1202.34110508
_cell_formula_units_Z   1
loop_
 _symmetry_equiv_pos_site_id
 _symmetry_equiv_pos_as_xyz
  1  'x, y, z'
loop_
 _atom_site_type_symbol
 _atom_site_label
 _atom_site_symmetry_multiplicity
 _atom_site_fract_x
 _atom_site_fract_y
 _atom_site_fract_z
 _atom_site_occupancy
  Al  Al0  1  0.99917704  0.49814078  0.50056328  1.0
  Al  Al1  1  0.49782396  0.49573727  0.50019380  1.0
  H  H2  1  0.35153939  0.65906703  0.55611982  1.0
  H  H3  1  0.65681304  0.38090132  0.40663622  1.0
  H  H4  1  0.36836118  0.10453489  0.49120241  1.0
  H  H5  1  0.74942437  0.12814820  0.51000900  1.0
  H  H6  1  0.24053280  0.87094453  0.49445072  1.0
  H  H7  1  0.18435548  0.58372812  0.73911380  1.0
  H  H8  1  0.27105673  0.58109591  0.88089793  1.0
  H  H9  1  0.59660665  0.43661986  0.87171046  1.0
  H  H10  1  0.40659023  0.56717275  0.13067511  1.0
  H  H11  1  0.81272693  0.40816097  0.25799572  1.0
  H  H12  1  0.73083138  0.41403837  0.11697669  1.0
  H  H13  1  0.40182524  0.49959527  0.69758178  1.0
  H  H14  1  0.40604594  0.34038777  0.66842991  1.0
  H  H15  1  0.34094278  0.39519673  0.76100299  1.0
  H  H16  1  0.65869058  0.61340891  0.24281059  1.0
  H  H17  1  0.58725782  0.65707916  0.33564398  1.0
  H  H18  1  0.60247043  0.50131741  0.30137447  1.0
  C  C19  1  0.81304805  0.51433033  0.64077622  1.0
  C  C20  1  0.85938091  0.72783431  0.50630557  1.0
  C  C21  1  0.18220187  0.47725802  0.35816539  1.0
  C  C22  1  0.13740795  0.26928241  0.49694605  1.0
  C  C23  1  0.92640215  0.86761418  0.50485621  1.0
  C  C24  1  0.06648326  0.13017972  0.49969559  1.0
  C  C25  1  0.79205858  0.94351876  0.50951984  1.0
  C  C26  1  0.20593087  0.05798988  0.49596915  1.0
  C  C27  1  0.85794278  0.07221857  0.50653144  1.0
  C  C28  1  0.13517708  0.92870853  0.49805507  1.0
  C  C29  1  0.84565074  0.51244335  0.72581089  1.0
  C  C30  1  0.05740236  0.55226945  0.76940807  1.0
  C  C31  1  0.10573523  0.55079340  0.84812460  1.0
  C  C32  1  0.93830014  0.50814659  0.88591235  1.0
  C  C33  1  0.72568991  0.46963827  0.84230777  1.0
  C  C34  1  0.67466844  0.47069246  0.76283320  1.0
  C  C35  1  0.98268657  0.50272559  0.96570323  1.0
  C  C36  1  0.02201431  0.49717596  0.03441394  1.0
  C  C37  1  0.06454473  0.49104412  0.11409134  1.0
  C  C38  1  0.27622158  0.53133076  0.15892570  1.0
  C  C39  1  0.32476894  0.52841387  0.23811430  1.0
  C  C40  1  0.15234539  0.48275962  0.27373947  1.0
  C  C41  1  0.94153996  0.44228228  0.22902461  1.0
  C  C42  1  0.89553493  0.44548080  0.15059362  1.0
  C  C43  1  0.44327612  0.42412787  0.72070026  1.0
  C  C44  1  0.55564856  0.57777994  0.28143562  1.0
  O  O45  1  0.96901561  0.51406715  0.60759430  1.0
  O  O46  1  0.66397586  0.67180611  0.50455448  1.0
  O  O47  1  0.35898667  0.47006016  0.39144265  1.0
  O  O48  1  0.99568516  0.32381602  0.49399127  1.0
  O  O49  1  0.02585155  0.47858479  0.39121138  1.0
  O  O50  1  0.33312225  0.32181282  0.49759913  1.0
  O  O51  1  0.63439930  0.51761794  0.60680846  1.0
  O  O52  1  0.00486368  0.67556281  0.50879938  1.0
  O  O53  1  0.29598484  0.56445884  0.53703481  1.0
  O  O54  1  0.70274893  0.43277448  0.46164206  1.0
  F  F55  1  0.58904414  0.89348383  0.51815579  1.0
