# generated using pymatgen
data_AlH4C9NClO5F
_symmetry_space_group_name_H-M   'P 1'
_cell_length_a   6.70663163
_cell_length_b   8.91379688
_cell_length_c   16.86880624
_cell_angle_alpha   100.89218021
_cell_angle_beta   95.54668699
_cell_angle_gamma   105.77874142
_symmetry_Int_Tables_number   1
_chemical_formula_structural   AlH4C9NClO5F
_chemical_formula_sum   'Al2 H8 C18 N2 Cl2 O10 F2'
_cell_volume   941.19476710
_cell_formula_units_Z   2
loop_
 _symmetry_equiv_pos_site_id
 _symmetry_equiv_pos_as_xyz
  1  'x, y, z'
loop_
 _atom_site_type_symbol
 _atom_site_label
 _atom_site_symmetry_multiplicity
 _atom_site_fract_x
 _atom_site_fract_y
 _atom_site_fract_z
 _atom_site_occupancy
  Al  Al0  1  0.99999884  0.49997374  0.49999088  1.0
  Al  Al1  1  0.49999304  0.49997805  0.49999306  1.0
  H  H2  1  0.16724612  0.32554991  0.42006773  1.0
  H  H3  1  0.83269645  0.67426902  0.57999956  1.0
  H  H4  1  0.62486757  0.47524869  0.72965092  1.0
  H  H5  1  0.69449956  0.47576480  0.87831930  1.0
  H  H6  1  0.07296882  0.50954874  0.90204388  1.0
  H  H7  1  0.92707380  0.49058465  0.09797080  1.0
  H  H8  1  0.30545060  0.52418754  0.12166679  1.0
  H  H9  1  0.37507749  0.52470630  0.27033684  1.0
  C  C10  1  0.64933097  0.21531979  0.48722574  1.0
  C  C11  1  0.70899056  0.49945276  0.35641047  1.0
  C  C12  1  0.35070985  0.78463062  0.51276503  1.0
  C  C13  1  0.29097333  0.50054132  0.64357874  1.0
  C  C14  1  0.31485830  0.49483408  0.73186332  1.0
  C  C15  1  0.50648938  0.48322593  0.76865691  1.0
  C  C16  1  0.54526191  0.48340836  0.85069419  1.0
  C  C17  1  0.38868241  0.49433620  0.89946974  1.0
  C  C18  1  0.19480532  0.50243351  0.86445525  1.0
  C  C19  1  0.16140183  0.50327786  0.78203869  1.0
  C  C20  1  0.80522064  0.49766196  0.13555217  1.0
  C  C21  1  0.61132114  0.50570189  0.10053284  1.0
  C  C22  1  0.45471376  0.51659049  0.14930651  1.0
  C  C23  1  0.49348187  0.51676869  0.23134042  1.0
  C  C24  1  0.68511957  0.50520322  0.26813626  1.0
  C  C25  1  0.83861058  0.49682229  0.21797487  1.0
  C  C26  1  0.58106716  0.03803489  0.48291627  1.0
  C  C27  1  0.41893679  0.96191690  0.51707108  1.0
  N  N28  1  0.40935194  0.49761611  0.98404729  1.0
  N  N29  1  0.59065106  0.50241202  0.01595243  1.0
  Cl  Cl30  1  0.72915542  0.93782606  0.42945059  1.0
  Cl  Cl31  1  0.27081724  0.06212113  0.57052677  1.0
  O  O32  1  0.84556477  0.28222580  0.49793946  1.0
  O  O33  1  0.55427996  0.51422913  0.39220430  1.0
  O  O34  1  0.49415599  0.71871563  0.52185579  1.0
  O  O35  1  0.12474518  0.52237862  0.61123356  1.0
  O  O36  1  0.15451704  0.71769170  0.50203798  1.0
  O  O37  1  0.44567867  0.48574227  0.60778305  1.0
  O  O38  1  0.50595241  0.28126506  0.47814900  1.0
  O  O39  1  0.87520410  0.47760034  0.38875668  1.0
  O  O40  1  0.21349694  0.42665561  0.45985495  1.0
  O  O41  1  0.78648480  0.57327579  0.54012508  1.0
  F  F42  1  0.97176064  0.51286441  0.75142879  1.0
  F  F43  1  0.02830162  0.48732779  0.24859781  1.0
