# generated using pymatgen
data_Cu4H8C13N8
_symmetry_space_group_name_H-M   'P 1'
_cell_length_a   14.91695739
_cell_length_b   14.91608264
_cell_length_c   14.91870534
_cell_angle_alpha   89.99639199
_cell_angle_beta   89.98869383
_cell_angle_gamma   89.99822991
_symmetry_Int_Tables_number   1
_chemical_formula_structural   Cu4H8C13N8
_chemical_formula_sum   'Cu12 H24 C39 N24'
_cell_volume   3319.45019400
_cell_formula_units_Z   3
loop_
 _symmetry_equiv_pos_site_id
 _symmetry_equiv_pos_as_xyz
  1  'x, y, z'
loop_
 _atom_site_type_symbol
 _atom_site_label
 _atom_site_symmetry_multiplicity
 _atom_site_fract_x
 _atom_site_fract_y
 _atom_site_fract_z
 _atom_site_occupancy
  Cu  Cu0  1  0.74887633  0.89893260  0.74867784  1.0
  Cu  Cu1  1  0.74866951  0.74751863  0.89884501  1.0
  Cu  Cu2  1  0.90218586  0.75105794  0.75067207  1.0
  Cu  Cu3  1  0.25108911  0.10032957  0.74938887  1.0
  Cu  Cu4  1  0.25003163  0.24916094  0.90201382  1.0
  Cu  Cu5  1  0.10185604  0.25255403  0.74866961  1.0
  Cu  Cu6  1  0.74896301  0.10052986  0.25071271  1.0
  Cu  Cu7  1  0.75059255  0.24900255  0.09778535  1.0
  Cu  Cu8  1  0.89804491  0.25284905  0.25199467  1.0
  Cu  Cu9  1  0.25070950  0.89994723  0.25094125  1.0
  Cu  Cu10  1  0.25194813  0.74744450  0.10186292  1.0
  Cu  Cu11  1  0.09836332  0.75098759  0.24992068  1.0
  H  H12  1  0.59097402  0.02283199  0.81884246  1.0
  H  H13  1  0.59222178  0.81807971  0.02434603  1.0
  H  H14  1  0.02718720  0.82273112  0.59429152  1.0
  H  H15  1  0.81785582  0.02358786  0.59044134  1.0
  H  H16  1  0.81700338  0.58747550  0.02118675  1.0
  H  H17  1  0.02887916  0.59665188  0.82329078  1.0
  H  H18  1  0.40885150  0.97541935  0.81887286  1.0
  H  H19  1  0.40707337  0.17817002  0.02635046  1.0
  H  H20  1  0.97635415  0.18248619  0.59192681  1.0
  H  H21  1  0.18050331  0.97630908  0.59177836  1.0
  H  H22  1  0.17733172  0.40327464  0.02893939  1.0
  H  H23  1  0.97972641  0.41298450  0.81686736  1.0
  H  H24  1  0.59072541  0.97601481  0.18145109  1.0
  H  H25  1  0.59412678  0.17758845  0.97285196  1.0
  H  H26  1  0.02304841  0.18303290  0.40916031  1.0
  H  H27  1  0.81979732  0.97599755  0.40789220  1.0
  H  H28  1  0.82362689  0.40313048  0.97117071  1.0
  H  H29  1  0.02032845  0.41324690  0.18404729  1.0
  H  H30  1  0.40829466  0.02402950  0.18010383  1.0
  H  H31  1  0.40884160  0.81727100  0.97664559  1.0
  H  H32  1  0.97375024  0.82188026  0.40689716  1.0
  H  H33  1  0.18097161  0.02487793  0.40868444  1.0
  H  H34  1  0.18380434  0.58740634  0.97954505  1.0
  H  H35  1  0.97181299  0.59640851  0.17735904  1.0
  C  C36  1  0.60176444  0.96440161  0.86078038  1.0
  C  C37  1  0.56133304  0.94098800  0.94217593  1.0
  C  C38  1  0.60236556  0.85991757  0.96571540  1.0
  C  C39  1  0.96778815  0.86360423  0.60392363  1.0
  C  C40  1  0.94282224  0.94375559  0.56196464  1.0
  C  C41  1  0.86095571  0.96615312  0.60201344  1.0
  C  C42  1  0.86062590  0.60035879  0.96442003  1.0
  C  C43  1  0.94327099  0.56165415  0.94256754  1.0
  C  C44  1  0.96870162  0.60488315  0.86329176  1.0
  C  C45  1  0.39770362  0.03332947  0.86144294  1.0
  C  C46  1  0.43835247  0.05624603  0.94283819  1.0
  C  C47  1  0.39690325  0.13680849  0.96737399  1.0
  C  C48  1  0.03463157  0.14022293  0.60234320  1.0
  C  C49  1  0.05776470  0.05894519  0.56147814  1.0
  C  C50  1  0.13883906  0.03500887  0.60227290  1.0
  C  C51  1  0.13740242  0.39519719  0.96869349  1.0
  C  C52  1  0.05815133  0.43849839  0.94323862  1.0
  C  C53  1  0.03644477  0.39997964  0.86049674  1.0
  C  C54  1  0.60226692  0.03362481  0.13857151  1.0
  C  C55  1  0.56202812  0.05627930  0.05691596  1.0
  C  C56  1  0.60389651  0.13652268  0.03208484  1.0
  C  C57  1  0.96497259  0.14057045  0.39842785  1.0
  C  C58  1  0.94206866  0.05900129  0.43885614  1.0
  C  C59  1  0.86120279  0.03492330  0.39774519  1.0
  C  C60  1  0.86331695  0.39515714  0.03158875  1.0
  C  C61  1  0.94241149  0.43856401  0.05734334  1.0
  C  C62  1  0.96381377  0.40012191  0.14019283  1.0
  C  C63  1  0.39787326  0.96519155  0.13866141  1.0
  C  C64  1  0.43882873  0.94115289  0.05773405  1.0
  C  C65  1  0.39822431  0.85970334  0.03476292  1.0
  C  C66  1  0.03266289  0.86332779  0.39671642  1.0
  C  C67  1  0.05709438  0.94387640  0.43824884  1.0
  C  C68  1  0.13846727  0.96692250  0.39756911  1.0
  C  C69  1  0.14016355  0.60017327  0.03633284  1.0
  C  C70  1  0.05749359  0.56150769  0.05812430  1.0
  C  C71  1  0.03202829  0.60469830  0.13740471  1.0
  C  C72  1  0.00036260  0.50004415  0.00033435  1.0
  C  C73  1  0.50013786  0.99861725  0.99992996  1.0
  C  C74  1  0.99991979  0.00147274  0.50014311  1.0
  N  N75  1  0.66294140  0.83654741  0.90246999  1.0
  N  N76  1  0.66261624  0.90144352  0.83732662  1.0
  N  N77  1  0.83858553  0.90344543  0.66356297  1.0
  N  N78  1  0.90495825  0.83982912  0.66473369  1.0
  N  N79  1  0.90534942  0.66512008  0.83941502  1.0
  N  N80  1  0.83823695  0.66235414  0.90219898  1.0
  N  N81  1  0.33582136  0.16029118  0.90472306  1.0
  N  N82  1  0.33631099  0.09608369  0.83892769  1.0
  N  N83  1  0.16247595  0.09788304  0.66313162  1.0
  N  N84  1  0.09779799  0.16324604  0.66313854  1.0
  N  N85  1  0.09869506  0.33801511  0.83805290  1.0
  N  N86  1  0.16137510  0.33513084  0.90524408  1.0
  N  N87  1  0.66484604  0.16009549  0.09484481  1.0
  N  N88  1  0.66386010  0.09624651  0.16099888  1.0
  N  N89  1  0.83745129  0.09800409  0.33712881  1.0
  N  N90  1  0.90186661  0.16362776  0.33758384  1.0
  N  N91  1  0.90153079  0.33810340  0.16243458  1.0
  N  N92  1  0.83915503  0.33509290  0.09497069  1.0
  N  N93  1  0.33741380  0.83670103  0.09791922  1.0
  N  N94  1  0.33714018  0.90223090  0.16241106  1.0
  N  N95  1  0.16105991  0.90427445  0.33608804  1.0
  N  N96  1  0.09533248  0.83998146  0.33557389  1.0
  N  N97  1  0.09540120  0.66485031  0.16137932  1.0
  N  N98  1  0.16255477  0.66209530  0.09863268  1.0
