# generated using pymatgen
data_ZnH5C12NO7
_symmetry_space_group_name_H-M   'P 1'
_cell_length_a   8.07772981
_cell_length_b   9.25584993
_cell_length_c   17.05601240
_cell_angle_alpha   89.91983110
_cell_angle_beta   84.78702148
_cell_angle_gamma   89.98740179
_symmetry_Int_Tables_number   1
_chemical_formula_structural   ZnH5C12NO7
_chemical_formula_sum   'Zn2 H10 C24 N2 O14'
_cell_volume   1269.93843616
_cell_formula_units_Z   2
loop_
 _symmetry_equiv_pos_site_id
 _symmetry_equiv_pos_as_xyz
  1  'x, y, z'
loop_
 _atom_site_type_symbol
 _atom_site_label
 _atom_site_symmetry_multiplicity
 _atom_site_fract_x
 _atom_site_fract_y
 _atom_site_fract_z
 _atom_site_occupancy
  Zn  Zn0  1  0.66080241  0.49686862  0.50543786  1.0
  Zn  Zn1  1  0.33865787  0.49710895  0.49430162  1.0
  H  H2  1  0.76095025  0.22089515  0.12497184  1.0
  H  H3  1  0.84557208  0.34310692  0.00970391  1.0
  H  H4  1  0.24067845  0.21710664  0.87589891  1.0
  H  H5  1  0.59714856  0.55804152  0.89867815  1.0
  H  H6  1  0.40118797  0.55860806  0.10010990  1.0
  H  H7  1  0.39798704  0.61019254  0.24281368  1.0
  H  H8  1  0.59808549  0.60843408  0.75591213  1.0
  H  H9  1  0.08784358  0.07390950  0.72227117  1.0
  H  H10  1  0.91210057  0.07992222  0.27997848  1.0
  H  H11  1  0.15496875  0.34142987  0.99045617  1.0
  C  C12  1  0.50115665  0.77531384  0.50055701  1.0
  C  C13  1  0.51684999  0.52523484  0.78341436  1.0
  C  C14  1  0.47975412  0.49657197  0.13651155  1.0
  C  C15  1  0.51883637  0.49499062  0.86273926  1.0
  C  C16  1  0.57802490  0.38345972  0.10224005  1.0
  C  C17  1  0.42195226  0.38152180  0.89764511  1.0
  C  C18  1  0.68470545  0.31008018  0.14930155  1.0
  C  C19  1  0.31578767  0.30664838  0.85107317  1.0
  C  C20  1  0.69231085  0.34516748  0.22890881  1.0
  C  C21  1  0.30729785  0.34059347  0.77129999  1.0
  C  C22  1  0.57341995  0.35229124  0.01814589  1.0
  C  C23  1  0.50116461  0.21841643  0.49957178  1.0
  C  C24  1  0.42704419  0.35152870  0.98186936  1.0
  C  C25  1  0.18675950  0.25809623  0.72674088  1.0
  C  C26  1  0.81409757  0.26432311  0.27373957  1.0
  C  C27  1  0.26213210  0.31979318  0.02587256  1.0
  C  C28  1  0.73854436  0.32084157  0.97431791  1.0
  C  C29  1  0.50140506  0.93131266  0.50042018  1.0
  C  C30  1  0.50139214  0.06243648  0.50008051  1.0
  C  C31  1  0.55999918  0.48343822  0.34984314  1.0
  C  C32  1  0.43694314  0.48009757  0.64974045  1.0
  C  C33  1  0.58548487  0.45302723  0.26305048  1.0
  C  C34  1  0.41238105  0.44925408  0.73659212  1.0
  C  C35  1  0.48053253  0.52759204  0.21574084  1.0
  N  N36  1  0.06825630  0.48492904  0.49328083  1.0
  N  N37  1  0.93142037  0.48486998  0.50587070  1.0
  O  O38  1  0.63071578  0.71364099  0.52224863  1.0
  O  O39  1  0.17369186  0.11777155  0.75168960  1.0
  O  O40  1  0.89813242  0.31449526  0.32290374  1.0
  O  O41  1  0.82524454  0.12293268  0.25077888  1.0
  O  O42  1  0.23879043  0.26757822  0.09190627  1.0
  O  O43  1  0.76222954  0.26840462  0.90841468  1.0
  O  O44  1  0.36026510  0.27967924  0.51313569  1.0
  O  O45  1  0.37136420  0.71422110  0.47886570  1.0
  O  O46  1  0.64196869  0.27984202  0.48561150  1.0
  O  O47  1  0.67901621  0.52901930  0.38661773  1.0
  O  O48  1  0.31775610  0.52655844  0.61328058  1.0
  O  O49  1  0.41100631  0.46088295  0.37928425  1.0
  O  O50  1  0.58562300  0.45744185  0.62001315  1.0
  O  O51  1  0.10513156  0.30627444  0.67602387  1.0
