# generated using pymatgen
data_Ti3H27C39NO12
_symmetry_space_group_name_H-M   'P 1'
_cell_length_a   11.94333039
_cell_length_b   25.00118073
_cell_length_c   25.00115378
_cell_angle_alpha   120.00003349
_cell_angle_beta   89.99999528
_cell_angle_gamma   89.99998141
_symmetry_Int_Tables_number   1
_chemical_formula_structural   Ti3H27C39NO12
_chemical_formula_sum   'Ti12 H108 C156 N4 O48'
_cell_volume   6465.11869405
_cell_formula_units_Z   4
loop_
 _symmetry_equiv_pos_site_id
 _symmetry_equiv_pos_as_xyz
  1  'x, y, z'
loop_
 _atom_site_type_symbol
 _atom_site_label
 _atom_site_symmetry_multiplicity
 _atom_site_fract_x
 _atom_site_fract_y
 _atom_site_fract_z
 _atom_site_occupancy
  Ti  Ti0  1  0.39414390  0.91807096  0.91807014  1.0
  Ti  Ti1  1  0.39414427  0.08192972  0.00000056  1.0
  Ti  Ti2  1  0.39414394  0.99999943  0.08192850  1.0
  Ti  Ti3  1  0.89414097  0.08193028  0.08193105  1.0
  Ti  Ti4  1  0.89414395  0.91806920  0.99999947  1.0
  Ti  Ti5  1  0.89414344  0.00000088  0.91806902  1.0
  Ti  Ti6  1  0.10585580  0.91807099  0.91807016  1.0
  Ti  Ti7  1  0.10585501  0.99999992  0.08192875  1.0
  Ti  Ti8  1  0.10585784  0.08192975  0.00000098  1.0
  Ti  Ti9  1  0.60585538  0.08192985  0.08193084  1.0
  Ti  Ti10  1  0.60585701  0.00000045  0.91806841  1.0
  Ti  Ti11  1  0.60585669  0.91806877  0.99999926  1.0
  H  H12  1  0.34394076  0.60720561  0.76025701  1.0
  H  H13  1  0.34393837  0.23974373  0.84694900  1.0
  H  H14  1  0.34393927  0.15305168  0.39279549  1.0
  H  H15  1  0.84393995  0.39279472  0.23974332  1.0
  H  H16  1  0.84393899  0.76025659  0.15305133  1.0
  H  H17  1  0.84393893  0.84694818  0.60720421  1.0
  H  H18  1  0.15605880  0.76025791  0.60720584  1.0
  H  H19  1  0.15605796  0.84694893  0.23974316  1.0
  H  H20  1  0.15605896  0.39279335  0.15305065  1.0
  H  H21  1  0.65605989  0.23974246  0.39279412  1.0
  H  H22  1  0.65605821  0.15305097  0.76025737  1.0
  H  H23  1  0.65605889  0.60720656  0.84694988  1.0
  H  H24  1  0.65606103  0.39279473  0.23974333  1.0
  H  H25  1  0.65606091  0.76025661  0.15305134  1.0
  H  H26  1  0.65606084  0.84694821  0.60720423  1.0
  H  H27  1  0.15606017  0.60720562  0.76025702  1.0
  H  H28  1  0.15606196  0.23974283  0.84694855  1.0
  H  H29  1  0.15606035  0.15305170  0.39279550  1.0
  H  H30  1  0.84394048  0.23974243  0.39279410  1.0
  H  H31  1  0.84394216  0.15305094  0.76025735  1.0
  H  H32  1  0.84394116  0.60720699  0.84695009  1.0
  H  H33  1  0.34394107  0.76025789  0.60720583  1.0
  H  H34  1  0.34394274  0.84694891  0.23974314  1.0
  H  H35  1  0.34394123  0.39279425  0.15305110  1.0
  H  H36  1  0.34739453  0.72178209  0.81571340  1.0
  H  H37  1  0.34739303  0.18428613  0.90606776  1.0
  H  H38  1  0.34739228  0.09393234  0.27821931  1.0
  H  H39  1  0.84739464  0.27821823  0.18428613  1.0
  H  H40  1  0.84739447  0.81571420  0.09393257  1.0
  H  H41  1  0.84739187  0.90606706  0.72178056  1.0
  H  H42  1  0.15260328  0.81571656  0.72178239  1.0
  H  H43  1  0.15260497  0.90606677  0.18428443  1.0
  H  H44  1  0.15260352  0.27821732  0.09393306  1.0
  H  H45  1  0.65260360  0.18428335  0.27821774  1.0
  H  H46  1  0.65260358  0.09393360  0.81571633  1.0
  H  H47  1  0.65260420  0.72178257  0.90606666  1.0
  H  H48  1  0.65260559  0.27821826  0.18428655  1.0
  H  H49  1  0.65260625  0.81571421  0.09393298  1.0
  H  H50  1  0.65260784  0.90606708  0.72178057  1.0
  H  H51  1  0.15260631  0.72178211  0.81571341  1.0
  H  H52  1  0.15260649  0.18428615  0.90606818  1.0
  H  H53  1  0.15260825  0.09393235  0.27821892  1.0
  H  H54  1  0.84739600  0.18428333  0.27821773  1.0
  H  H55  1  0.84739598  0.09393357  0.81571631  1.0
  H  H56  1  0.84739576  0.72178302  0.90606688  1.0
  H  H57  1  0.34739652  0.81571607  0.72178214  1.0
  H  H58  1  0.34739570  0.90606675  0.18428442  1.0
  H  H59  1  0.34739509  0.27821777  0.09393408  1.0
  H  H60  1  0.39287359  0.40693586  0.63412363  1.0
  H  H61  1  0.39287359  0.36587674  0.77281270  1.0
  H  H62  1  0.39287198  0.22718701  0.59306446  1.0
  H  H63  1  0.89287346  0.59306445  0.36587669  1.0
  H  H64  1  0.89287346  0.63412311  0.22718739  1.0
  H  H65  1  0.89287339  0.77281238  0.40693500  1.0
  H  H66  1  0.10712443  0.63412471  0.40693431  1.0
  H  H67  1  0.10712355  0.77281059  0.36587602  1.0
  H  H68  1  0.10712363  0.59306536  0.22718956  1.0
  H  H69  1  0.60712457  0.36587521  0.59306583  1.0
  H  H70  1  0.60712294  0.22718933  0.63412452  1.0
  H  H71  1  0.60712370  0.40693455  0.77281057  1.0
  H  H72  1  0.60712653  0.59306448  0.36587671  1.0
  H  H73  1  0.60712653  0.63412314  0.22718781  1.0
  H  H74  1  0.60712730  0.77281241  0.40693502  1.0
  H  H75  1  0.10712666  0.40693589  0.63412365  1.0
  H  H76  1  0.10712582  0.36587678  0.77281313  1.0
  H  H77  1  0.10712756  0.22718750  0.59306471  1.0
  H  H78  1  0.89287568  0.36587517  0.59306580  1.0
  H  H79  1  0.89287824  0.22718929  0.63412449  1.0
  H  H80  1  0.89287566  0.40693452  0.77281015  1.0
  H  H81  1  0.39287639  0.63412467  0.40693428  1.0
  H  H82  1  0.39287634  0.77281056  0.36587560  1.0
  H  H83  1  0.39287558  0.59306533  0.22718954  1.0
  H  H84  1  0.39605105  0.52014940  0.68955891  1.0
  H  H85  1  0.39605111  0.31044177  0.83059084  1.0
  H  H86  1  0.39605119  0.16940845  0.47985104  1.0
  H  H87  1  0.89605101  0.47985137  0.31044164  1.0
  H  H88  1  0.89605095  0.68955854  0.16940948  1.0
  H  H89  1  0.89605003  0.83059094  0.52014842  1.0
  H  H90  1  0.10394941  0.68955934  0.52014731  1.0
  H  H91  1  0.10394938  0.83058950  0.31044139  1.0
  H  H92  1  0.10394951  0.47985229  0.16941102  1.0
  H  H93  1  0.60394877  0.31044104  0.47985266  1.0
  H  H94  1  0.60394880  0.16941087  0.68955897  1.0
  H  H95  1  0.60394950  0.52014762  0.83058951  1.0
  H  H96  1  0.60394907  0.47985094  0.31044143  1.0
  H  H97  1  0.60394984  0.68955857  0.16940950  1.0
  H  H98  1  0.60395060  0.83059097  0.52014844  1.0
  H  H99  1  0.10394995  0.52014944  0.68955854  1.0
  H  H100  1  0.10394917  0.31044180  0.83059126  1.0
  H  H101  1  0.10394841  0.16940894  0.47985129  1.0
  H  H102  1  0.89605071  0.31044101  0.47985264  1.0
  H  H103  1  0.89605241  0.16940992  0.68955849  1.0
  H  H104  1  0.89605061  0.52014759  0.83058909  1.0
  H  H105  1  0.39605135  0.68955930  0.52014768  1.0
  H  H106  1  0.39605048  0.83058947  0.31044137  1.0
  H  H107  1  0.39605145  0.47985226  0.16941100  1.0
  H  H108  1  0.25000036  0.86151238  0.95568618  1.0
  H  H109  1  0.24999981  0.04431395  0.90582558  1.0
  H  H110  1  0.24999986  0.09417472  0.13848856  1.0
  H  H111  1  0.74999976  0.13848843  0.04431400  1.0
  H  H112  1  0.75000031  0.95568593  0.09417493  1.0
  H  H113  1  0.75000026  0.90582515  0.86151115  1.0
  H  H114  1  0.24999984  0.95568606  0.86150959  1.0
  H  H115  1  0.24999993  0.90582418  0.04431439  1.0
  H  H116  1  0.25000019  0.13848990  0.09417564  1.0
  H  H117  1  0.75000028  0.04431428  0.13849075  1.0
  H  H118  1  0.75000019  0.09417616  0.95568595  1.0
  H  H119  1  0.74999993  0.86150998  0.90582367  1.0
  C  C120  1  0.41360055  0.63177602  0.79098378  1.0
  C  C121  1  0.41360069  0.20901628  0.84079203  1.0
  C  C122  1  0.41360075  0.15920822  0.36822504  1.0
  C  C123  1  0.91360144  0.36822474  0.20901637  1.0
  C  C124  1  0.91360129  0.79098402  0.15920828  1.0
  C  C125  1  0.91360040  0.84079116  0.63177482  1.0
  C  C126  1  0.08639731  0.79098444  0.63177510  1.0
  C  C127  1  0.08639817  0.84079189  0.20901551  1.0
  C  C128  1  0.08639750  0.36822434  0.15920808  1.0
  C  C129  1  0.58639675  0.20901455  0.36822417  1.0
  C  C130  1  0.58639674  0.15920896  0.79098469  1.0
  C  C131  1  0.58639657  0.63177603  0.84079188  1.0
  C  C132  1  0.58639873  0.36822478  0.20901639  1.0
  C  C133  1  0.58639859  0.79098406  0.15920831  1.0
  C  C134  1  0.58639937  0.84079165  0.63177507  1.0
  C  C135  1  0.08639952  0.63177606  0.79098380  1.0
  C  C136  1  0.08639966  0.20901632  0.84079206  1.0
  C  C137  1  0.08639888  0.15920780  0.36822483  1.0
  C  C138  1  0.91360364  0.20901498  0.36822438  1.0
  C  C139  1  0.91360363  0.15920845  0.79098443  1.0
  C  C140  1  0.91360346  0.63177600  0.84079146  1.0
  C  C141  1  0.41360336  0.79098441  0.63177508  1.0
  C  C142  1  0.41360171  0.84079184  0.20901548  1.0
  C  C143  1  0.41360271  0.36822431  0.15920886  1.0
  C  C144  1  0.41402838  0.69593418  0.82244772  1.0
  C  C145  1  0.41402520  0.17755312  0.87348700  1.0
  C  C146  1  0.41402611  0.12651369  0.30406676  1.0
  C  C147  1  0.91402513  0.30406613  0.17755300  1.0
  C  C148  1  0.91402412  0.82244671  0.12651188  1.0
  C  C149  1  0.91402321  0.87348708  0.69593379  1.0
  C  C150  1  0.08597112  0.82244860  0.69593336  1.0
  C  C151  1  0.08597030  0.87348498  0.17755068  1.0
  C  C152  1  0.08597218  0.30406572  0.12651397  1.0
  C  C153  1  0.58597394  0.17755086  0.30406575  1.0
  C  C154  1  0.58597224  0.12651448  0.82244883  1.0
  C  C155  1  0.58597455  0.69593512  0.87348703  1.0
  C  C156  1  0.58597425  0.30406524  0.17755296  1.0
  C  C157  1  0.58597575  0.82244629  0.12651168  1.0
  C  C158  1  0.58597652  0.87348713  0.69593382  1.0
  C  C159  1  0.08597164  0.69593421  0.82244774  1.0
  C  C160  1  0.08597516  0.17755270  0.87348720  1.0
  C  C161  1  0.08597439  0.12651372  0.30406678  1.0
  C  C162  1  0.91402649  0.17755128  0.30406555  1.0
  C  C163  1  0.91402814  0.12651445  0.82244881  1.0
  C  C164  1  0.91402543  0.69593555  0.87348684  1.0
  C  C165  1  0.41402869  0.82244901  0.69593396  1.0
  C  C166  1  0.41402955  0.87348493  0.17755105  1.0
  C  C167  1  0.41402724  0.30406568  0.12651474  1.0
  C  C168  1  0.43984373  0.43183375  0.67708758  1.0
  C  C169  1  0.43984459  0.32291282  0.75474656  1.0
  C  C170  1  0.43984380  0.24525258  0.56816602  1.0
  C  C171  1  0.93984446  0.56816656  0.32291274  1.0
  C  C172  1  0.93984443  0.67708703  0.24525353  1.0
  C  C173  1  0.93984355  0.75474726  0.43183407  1.0
  C  C174  1  0.06015427  0.67708864  0.43183334  1.0
  C  C175  1  0.06015341  0.75474544  0.32291220  1.0
  C  C176  1  0.06015348  0.56816660  0.24525436  1.0
  C  C177  1  0.56015360  0.32291082  0.56816657  1.0
  C  C178  1  0.56015278  0.24525448  0.67708794  1.0
  C  C179  1  0.56015355  0.43183286  0.75474555  1.0
  C  C180  1  0.56015555  0.56816659  0.32291276  1.0
  C  C181  1  0.56015552  0.67708707  0.24525356  1.0
  C  C182  1  0.56015716  0.75474730  0.43183369  1.0
  C  C183  1  0.06015650  0.43183379  0.67708721  1.0
  C  C184  1  0.06015569  0.32291285  0.75474658  1.0
  C  C185  1  0.06015574  0.24525262  0.56816605  1.0
  C  C186  1  0.93984585  0.32291124  0.56816677  1.0
  C  C187  1  0.93984670  0.24525398  0.67708768  1.0
  C  C188  1  0.93984663  0.43183328  0.75474535  1.0
  C  C189  1  0.43984652  0.67708860  0.43183331  1.0
  C  C190  1  0.43984650  0.75474586  0.32291240  1.0
  C  C191  1  0.43984657  0.56816655  0.24525433  1.0
  C  C192  1  0.44123527  0.49597389  0.70902169  1.0
  C  C193  1  0.44123366  0.29097948  0.78695365  1.0
  C  C194  1  0.44123371  0.21304668  0.50402687  1.0
  C  C195  1  0.94123438  0.50402594  0.29097839  1.0
  C  C196  1  0.94123431  0.70902081  0.21304706  1.0
  C  C197  1  0.94123426  0.78695269  0.49597298  1.0
  C  C198  1  0.05876435  0.70902111  0.49597257  1.0
  C  C199  1  0.05876435  0.78695173  0.29097838  1.0
  C  C200  1  0.05876445  0.50402691  0.21304769  1.0
  C  C201  1  0.55876539  0.29097927  0.50402780  1.0
  C  C202  1  0.55876373  0.21304773  0.70902153  1.0
  C  C203  1  0.55876446  0.49597301  0.78695245  1.0
  C  C204  1  0.55876568  0.50402599  0.29097842  1.0
  C  C205  1  0.55876646  0.70902086  0.21304709  1.0
  C  C206  1  0.55876640  0.78695273  0.49597261  1.0
  C  C207  1  0.05876490  0.49597394  0.70902172  1.0
  C  C208  1  0.05876580  0.29097906  0.78695305  1.0
  C  C209  1  0.05876585  0.21304627  0.50402667  1.0
  C  C210  1  0.94123409  0.29097923  0.50402777  1.0
  C  C211  1  0.94123745  0.21304769  0.70902110  1.0
  C  C212  1  0.94123567  0.49597296  0.78695202  1.0
  C  C213  1  0.44123556  0.70902107  0.49597214  1.0
  C  C214  1  0.44123555  0.78695168  0.29097835  1.0
  C  C215  1  0.44123566  0.50402733  0.21304789  1.0
  C  C216  1  0.49999865  0.39865061  0.69932540  1.0
  C  C217  1  0.49999701  0.30067521  0.69932619  1.0
  C  C218  1  0.49999702  0.30067421  0.60134981  1.0
  C  C219  1  0.99999768  0.60134875  0.30067484  1.0
  C  C220  1  0.99999765  0.69932462  0.30067389  1.0
  C  C221  1  0.99999764  0.69932607  0.39865009  1.0
  C  C222  1  0.50000231  0.60134927  0.30067511  1.0
  C  C223  1  0.50000311  0.69932468  0.30067393  1.0
  C  C224  1  0.50000226  0.69932567  0.39864990  1.0
  C  C225  1  0.00000156  0.39865102  0.69932519  1.0
  C  C226  1  0.00000330  0.30067573  0.69932646  1.0
  C  C227  1  0.00000248  0.30067427  0.60135025  1.0
  C  C228  1  0.49999944  0.52995238  0.76497595  1.0
  C  C229  1  0.49999954  0.23502439  0.76497660  1.0
  C  C230  1  0.49999956  0.23502280  0.47004741  1.0
  C  C231  1  0.99999941  0.47004790  0.23502435  1.0
  C  C232  1  0.00000015  0.76497590  0.23502371  1.0
  C  C233  1  0.99999928  0.76497749  0.52995249  1.0
  C  C234  1  0.50000068  0.47004842  0.23502462  1.0
  C  C235  1  0.50000058  0.76497595  0.23502374  1.0
  C  C236  1  0.50000056  0.76497708  0.52995230  1.0
  C  C237  1  0.00000067  0.52995233  0.76497592  1.0
  C  C238  1  0.00000078  0.23502433  0.76497656  1.0
  C  C239  1  0.99999996  0.23502275  0.47004738  1.0
  C  C240  1  0.50000025  0.59808622  0.79904371  1.0
  C  C241  1  0.49999871  0.20095728  0.79904347  1.0
  C  C242  1  0.50000042  0.20095701  0.40191486  1.0
  C  C243  1  0.99999944  0.40191407  0.20095700  1.0
  C  C244  1  0.99999846  0.79904255  0.20095621  1.0
  C  C245  1  0.99999843  0.79904329  0.59808505  1.0
  C  C246  1  0.50000071  0.40191366  0.20095680  1.0
  C  C247  1  0.50000225  0.79904215  0.20095602  1.0
  C  C248  1  0.50000138  0.79904334  0.59808509  1.0
  C  C249  1  0.99999981  0.59808662  0.79904390  1.0
  C  C250  1  0.00000249  0.20095687  0.79904327  1.0
  C  C251  1  0.99999998  0.20095695  0.40191482  1.0
  C  C252  1  0.49999685  0.72869705  0.86434679  1.0
  C  C253  1  0.49999873  0.13565239  0.86434927  1.0
  C  C254  1  0.49999710  0.13565013  0.27130391  1.0
  C  C255  1  0.99999949  0.27130323  0.13565231  1.0
  C  C256  1  0.00000263  0.86434790  0.13565144  1.0
  C  C257  1  0.99999923  0.86434876  0.72869610  1.0
  C  C258  1  0.49999992  0.27130329  0.13565315  1.0
  C  C259  1  0.49999721  0.86434795  0.13565187  1.0
  C  C260  1  0.50000050  0.86434882  0.72869614  1.0
  C  C261  1  0.00000311  0.72869699  0.86434675  1.0
  C  C262  1  0.00000084  0.13565291  0.86434954  1.0
  C  C263  1  0.00000340  0.13565019  0.27130355  1.0
  C  C264  1  0.50001022  0.79745439  0.89873030  1.0
  C  C265  1  0.50000208  0.10127307  0.89872721  1.0
  C  C266  1  0.50000800  0.10127489  0.20254665  1.0
  C  C267  1  0.99999616  0.20254543  0.10127497  1.0
  C  C268  1  0.99998923  0.89872122  0.10126690  1.0
  C  C269  1  0.99999252  0.89873048  0.79745340  1.0
  C  C270  1  0.50000330  0.20254595  0.10127564  1.0
  C  C271  1  0.50001143  0.89872128  0.10126694  1.0
  C  C272  1  0.50000719  0.89873054  0.79745384  1.0
  C  C273  1  0.99998969  0.79745434  0.89872986  1.0
  C  C274  1  0.99999830  0.10127255  0.89872694  1.0
  C  C275  1  0.99999250  0.10127483  0.20254621  1.0
  N  N276  1  0.49999616  0.33333333  0.66666667  1.0
  N  N277  1  0.99999682  0.66666667  0.33333333  1.0
  N  N278  1  0.50000312  0.66666667  0.33333333  1.0
  N  N279  1  0.00000330  0.33333333  0.66666667  1.0
  O  O280  1  0.43011011  0.82468833  0.88210828  1.0
  O  O281  1  0.43011370  0.11788985  0.94257717  1.0
  O  O282  1  0.43010959  0.05742096  0.17531271  1.0
  O  O283  1  0.93011617  0.17531428  0.11788959  1.0
  O  O284  1  0.93012263  0.88211138  0.05742641  1.0
  O  O285  1  0.93011668  0.94257565  0.82468536  1.0
  O  O286  1  0.06988679  0.88211109  0.82468607  1.0
  O  O287  1  0.06989102  0.94257617  0.11788866  1.0
  O  O288  1  0.06988626  0.17531295  0.05742453  1.0
  O  O289  1  0.56988047  0.11788652  0.17531491  1.0
  O  O290  1  0.56988378  0.05742651  0.88211206  1.0
  O  O291  1  0.56987932  0.82468512  0.94257188  1.0
  O  O292  1  0.56988164  0.17531432  0.11789042  1.0
  O  O293  1  0.56987805  0.88211235  0.05742730  1.0
  O  O294  1  0.56988299  0.94257569  0.82468539  1.0
  O  O295  1  0.06988981  0.82468792  0.88210808  1.0
  O  O296  1  0.06988670  0.11788988  0.94257719  1.0
  O  O297  1  0.06989014  0.05742100  0.17531273  1.0
  O  O298  1  0.93011919  0.11788694  0.17531471  1.0
  O  O299  1  0.93011664  0.05742647  0.88211203  1.0
  O  O300  1  0.93012055  0.82468509  0.94257146  1.0
  O  O301  1  0.43011295  0.88211105  0.82468645  1.0
  O  O302  1  0.43010796  0.94257660  0.11788927  1.0
  O  O303  1  0.43011409  0.17531337  0.05742474  1.0
  O  O304  1  0.25000035  0.88404920  0.93355654  1.0
  O  O305  1  0.25000063  0.06644254  0.95049234  1.0
  O  O306  1  0.25000071  0.04950792  0.11595034  1.0
  O  O307  1  0.74999893  0.11595068  0.06644317  1.0
  O  O308  1  0.75000032  0.93355688  0.04950754  1.0
  O  O309  1  0.74999941  0.95049288  0.88404943  1.0
  O  O310  1  0.24999985  0.93355706  0.88404753  1.0
  O  O311  1  0.24999991  0.95049099  0.06644223  1.0
  O  O312  1  0.25000104  0.11595164  0.04950924  1.0
  O  O313  1  0.74999943  0.06644282  0.11595138  1.0
  O  O314  1  0.74999937  0.04950890  0.93355669  1.0
  O  O315  1  0.74999992  0.88404870  0.95049110  1.0
  O  O316  1  0.57425278  0.93232989  0.93232888  1.0
  O  O317  1  0.57425400  0.06767074  0.00000033  1.0
  O  O318  1  0.57425284  0.99999986  0.06767057  1.0
  O  O319  1  0.07425527  0.06766993  0.06767081  1.0
  O  O320  1  0.07425538  0.93232964  0.99999924  1.0
  O  O321  1  0.07425487  0.00000006  0.93232917  1.0
  O  O322  1  0.92574687  0.93232986  0.93232886  1.0
  O  O323  1  0.92574692  0.99999982  0.06767054  1.0
  O  O324  1  0.92574557  0.06767024  0.00000007  1.0
  O  O325  1  0.42574517  0.06766989  0.06767078  1.0
  O  O326  1  0.42574561  0.00000001  0.93232914  1.0
  O  O327  1  0.42574444  0.93233006  0.99999944  1.0
