# generated using pymatgen
data_AlH7C12O5
_symmetry_space_group_name_H-M   'P 1'
_cell_length_a   6.68991051
_cell_length_b   17.28481290
_cell_length_c   19.44180758
_cell_angle_alpha   108.12124806
_cell_angle_beta   89.99889282
_cell_angle_gamma   90.00002319
_symmetry_Int_Tables_number   1
_chemical_formula_structural   AlH7C12O5
_chemical_formula_sum   'Al4 H28 C48 O20'
_cell_volume   2136.62480469
_cell_formula_units_Z   4
loop_
 _symmetry_equiv_pos_site_id
 _symmetry_equiv_pos_as_xyz
  1  'x, y, z'
loop_
 _atom_site_type_symbol
 _atom_site_label
 _atom_site_symmetry_multiplicity
 _atom_site_fract_x
 _atom_site_fract_y
 _atom_site_fract_z
 _atom_site_occupancy
  Al  Al0  1  0.89535421  0.50044270  0.50013633  1.0
  Al  Al1  1  0.39535499  0.49955805  0.49986871  1.0
  Al  Al2  1  0.36901838  0.00028095  0.00080363  1.0
  Al  Al3  1  0.86901746  0.99972094  0.99920444  1.0
  H  H4  1  0.42501908  0.18834380  0.19040949  1.0
  H  H5  1  0.92503172  0.81162482  0.80960522  1.0
  H  H6  1  0.96584846  0.20076822  0.20096498  1.0
  H  H7  1  0.46585664  0.79927566  0.79901472  1.0
  H  H8  1  0.44054092  0.30126122  0.30492574  1.0
  H  H9  1  0.94052225  0.69873236  0.69506899  1.0
  H  H10  1  0.98017004  0.30268632  0.30120874  1.0
  H  H11  1  0.48016176  0.69730635  0.69880926  1.0
  H  H12  1  0.42884637  0.41315238  0.67945729  1.0
  H  H13  1  0.92885923  0.58684432  0.32054139  1.0
  H  H14  1  0.85679963  0.31620408  0.59393706  1.0
  H  H15  1  0.35680390  0.68379363  0.40607221  1.0
  H  H16  1  0.69339471  0.20889339  0.63560058  1.0
  H  H17  1  0.19338681  0.79109860  0.36440522  1.0
  H  H18  1  0.68667475  0.12499012  0.71786356  1.0
  H  H19  1  0.18665518  0.87499947  0.28213853  1.0
  H  H20  1  0.83786458  0.08659173  0.82030679  1.0
  H  H21  1  0.33784458  0.91339354  0.17969290  1.0
  H  H22  1  0.40870353  0.18430708  0.90658637  1.0
  H  H23  1  0.90869362  0.81568388  0.09340711  1.0
  H  H24  1  0.57348664  0.29076471  0.86414881  1.0
  H  H25  1  0.07348300  0.70922718  0.13584171  1.0
  H  H26  1  0.58082545  0.37432946  0.78166519  1.0
  H  H27  1  0.08082750  0.62566428  0.21832741  1.0
  H  H28  1  0.64666804  0.39284859  0.47869633  1.0
  H  H29  1  0.14666679  0.60715106  0.52129066  1.0
  H  H30  1  0.61916499  0.10702997  0.01905953  1.0
  H  H31  1  0.11916462  0.89297207  0.98094941  1.0
  C  C32  1  0.64562526  0.58150490  0.41844232  1.0
  C  C33  1  0.14561089  0.41849368  0.58156357  1.0
  C  C34  1  0.64411169  0.61310316  0.61140167  1.0
  C  C35  1  0.14413189  0.38689678  0.38860479  1.0
  C  C36  1  0.28335800  0.21391021  0.21542405  1.0
  C  C37  1  0.78336764  0.78607619  0.78458170  1.0
  C  C38  1  0.11479373  0.18005137  0.18061310  1.0
  C  C39  1  0.61481230  0.81996209  0.81938518  1.0
  C  C40  1  0.29261072  0.28071624  0.28272808  1.0
  C  C41  1  0.79260245  0.71927713  0.71727275  1.0
  C  C42  1  0.13243072  0.31958787  0.31993024  1.0
  C  C43  1  0.63241793  0.68041198  0.68007582  1.0
  C  C44  1  0.30270659  0.37327957  0.67988362  1.0
  C  C45  1  0.80272359  0.62672139  0.32012093  1.0
  C  C46  1  0.14297713  0.36902630  0.63232384  1.0
  C  C47  1  0.64298690  0.63097346  0.36768209  1.0
  C  C48  1  0.97990689  0.31791228  0.63116090  1.0
  C  C49  1  0.47990920  0.68208488  0.36884310  1.0
  C  C50  1  0.97520144  0.26840687  0.67616788  1.0
  C  C51  1  0.47520048  0.73159169  0.32383511  1.0
  C  C52  1  0.13541079  0.27396031  0.72623356  1.0
  C  C53  1  0.63541104  0.72603421  0.27376541  1.0
  C  C54  1  0.29962598  0.32785929  0.72849215  1.0
  C  C55  1  0.79963223  0.67213789  0.27150809  1.0
  C  C56  1  0.81485473  0.21260674  0.67394832  1.0
  C  C57  1  0.31484633  0.78739045  0.32605551  1.0
  C  C58  1  0.81112242  0.16628713  0.71939178  1.0
  C  C59  1  0.31111965  0.83370833  0.28061371  1.0
  C  C60  1  0.96724342  0.17181919  0.77127628  1.0
  C  C61  1  0.46723452  0.82817690  0.22872786  1.0
  C  C62  1  0.13126436  0.22584498  0.77364283  1.0
  C  C63  1  0.63125989  0.77414649  0.22635563  1.0
  C  C64  1  0.29124643  0.23147667  0.82381155  1.0
  C  C65  1  0.79123726  0.76851507  0.17618281  1.0
  C  C66  1  0.45191750  0.28707673  0.82584661  1.0
  C  C67  1  0.95191727  0.71291675  0.17414799  1.0
  C  C68  1  0.45598614  0.33322368  0.78024638  1.0
  C  C69  1  0.95598477  0.66676976  0.21974816  1.0
  C  C70  1  0.96383545  0.12658933  0.82002067  1.0
  C  C71  1  0.46382028  0.87339894  0.17997914  1.0
  C  C72  1  0.12285347  0.13119575  0.86794650  1.0
  C  C73  1  0.62283648  0.86879577  0.13205368  1.0
  C  C74  1  0.28599089  0.18230846  0.86914549  1.0
  C  C75  1  0.78597846  0.81768156  0.13085054  1.0
  C  C76  1  0.61900814  0.88740297  0.88825996  1.0
  C  C77  1  0.11900308  0.11260266  0.11174253  1.0
  C  C78  1  0.61925641  0.91805726  0.08114776  1.0
  C  C79  1  0.11926304  0.08194135  0.91885791  1.0
  O  O80  1  0.47468940  0.58603032  0.58400308  1.0
  O  O81  1  0.97470054  0.41396894  0.41600532  1.0
  O  O82  1  0.81600516  0.56191868  0.43716081  1.0
  O  O83  1  0.31598741  0.43808064  0.56284248  1.0
  O  O84  1  0.81490772  0.58782832  0.58446588  1.0
  O  O85  1  0.31492339  0.41217333  0.41553745  1.0
  O  O86  1  0.97643572  0.43611670  0.56022728  1.0
  O  O87  1  0.47644605  0.56388467  0.43978057  1.0
  O  O88  1  0.64551620  0.45166316  0.49277390  1.0
  O  O89  1  0.14551816  0.54833698  0.50723146  1.0
  O  O90  1  0.78787657  0.93493254  0.05885547  1.0
  O  O91  1  0.28787310  0.06509306  0.94117535  1.0
  O  O92  1  0.44891913  0.91309407  0.91609871  1.0
  O  O93  1  0.94891407  0.08692361  0.08389556  1.0
  O  O94  1  0.44856110  0.93835051  0.06327722  1.0
  O  O95  1  0.94856506  0.06163319  0.93671410  1.0
  O  O96  1  0.28901732  0.08602169  0.08520602  1.0
  O  O97  1  0.78902087  0.91396095  0.91481421  1.0
  O  O98  1  0.61924205  0.04842084  0.00754102  1.0
  O  O99  1  0.11924152  0.95158163  0.99246576  1.0
