# generated using pymatgen
data_ZnH12(C4N)4
_symmetry_space_group_name_H-M   'P 1'
_cell_length_a   14.37542887
_cell_length_b   14.77515096
_cell_length_c   16.90438619
_cell_angle_alpha   106.90694867
_cell_angle_beta   106.13002087
_cell_angle_gamma   107.19044845
_symmetry_Int_Tables_number   1
_chemical_formula_structural   ZnH12(C4N)4
_chemical_formula_sum   'Zn4 H48 C64 N16'
_cell_volume   3010.72860096
_cell_formula_units_Z   4
loop_
 _symmetry_equiv_pos_site_id
 _symmetry_equiv_pos_as_xyz
  1  'x, y, z'
loop_
 _atom_site_type_symbol
 _atom_site_label
 _atom_site_symmetry_multiplicity
 _atom_site_fract_x
 _atom_site_fract_y
 _atom_site_fract_z
 _atom_site_occupancy
  Zn  Zn0  1  0.46683448  0.86524654  0.87246483  1.0
  Zn  Zn1  1  0.48027983  0.11845321  0.11736533  1.0
  Zn  Zn2  1  0.67312272  0.13140745  0.03593489  1.0
  Zn  Zn3  1  0.32211993  0.87360896  0.99375525  1.0
  H  H4  1  0.79578189  0.86832674  0.00574516  1.0
  H  H5  1  0.44673177  0.41004075  0.11853629  1.0
  H  H6  1  0.26876713  0.47951442  0.05414347  1.0
  H  H7  1  0.40755670  0.56153688  0.10949623  1.0
  H  H8  1  0.58883000  0.82002454  0.57580715  1.0
  H  H9  1  0.67612774  0.14861728  0.70573675  1.0
  H  H10  1  0.55542093  0.74137487  0.41330237  1.0
  H  H11  1  0.67718480  0.16813952  0.56627949  1.0
  H  H12  1  0.53395531  0.75864692  0.26920336  1.0
  H  H13  1  0.62840546  0.08768157  0.40302945  1.0
  H  H14  1  0.75791703  0.50722880  0.42483857  1.0
  H  H15  1  0.32888602  0.15990262  0.97742513  1.0
  H  H16  1  0.85801654  0.30888651  0.20863455  1.0
  H  H17  1  0.96596928  0.48713706  0.28641629  1.0
  H  H18  1  0.11008525  0.64686246  0.41047712  1.0
  H  H19  1  0.97773760  0.79678165  0.70753997  1.0
  H  H20  1  0.08591908  0.16349843  0.06326260  1.0
  H  H21  1  0.19204556  0.17391280  0.95875886  1.0
  H  H22  1  0.80951723  0.96168873  0.73424325  1.0
  H  H23  1  0.84022829  0.85617946  0.68549262  1.0
  H  H24  1  0.75287724  0.88172017  0.83305640  1.0
  H  H25  1  0.23843834  0.61000897  0.95450590  1.0
  H  H26  1  0.72619576  0.13562071  0.84305012  1.0
  H  H27  1  0.79738881  0.78262436  0.79447424  1.0
  H  H28  1  0.49189239  0.66034807  0.85988765  1.0
  H  H29  1  0.41789702  0.78404236  0.13357436  1.0
  H  H30  1  0.33152436  0.88263555  0.70298625  1.0
  H  H31  1  0.44199689  0.77661210  0.61535574  1.0
  H  H32  1  0.53647507  0.73381196  0.66541684  1.0
  H  H33  1  0.43687881  0.74099973  0.70634571  1.0
  H  H34  1  0.39786460  0.45290933  0.77921481  1.0
  H  H35  1  0.53142469  0.31461737  0.78828390  1.0
  H  H36  1  0.41188237  0.20489060  0.75065391  1.0
  H  H37  1  0.09286848  0.88641348  0.98303842  1.0
  H  H38  1  0.41447993  0.30005209  0.70535699  1.0
  H  H39  1  0.79640058  0.69241045  0.64111009  1.0
  H  H40  1  0.73522970  0.65522099  0.52291563  1.0
  H  H41  1  0.76200287  0.56481013  0.56474242  1.0
  H  H42  1  0.18349793  0.77290736  0.56687240  1.0
  H  H43  1  0.61455258  0.36746936  0.29169766  1.0
  H  H44  1  0.00749225  0.26915237  0.10809985  1.0
  H  H45  1  0.95192081  0.21550069  0.98857983  1.0
  H  H46  1  0.88174200  0.26390929  0.04935549  1.0
  H  H47  1  0.30944378  0.20905854  0.13247507  1.0
  H  H48  1  0.11864073  0.85831285  0.84119064  1.0
  H  H49  1  0.60322782  0.25805428  0.91363536  1.0
  H  H50  1  0.30769122  0.32889921  0.06327071  1.0
  H  H51  1  0.65098295  0.10282173  0.27252626  1.0
  C  C52  1  0.81088953  0.94929359  0.02059901  1.0
  C  C53  1  0.56146112  0.88940116  0.74506440  1.0
  C  C54  1  0.18478653  0.86884206  0.82061895  1.0
  C  C55  1  0.58706976  0.02777360  0.22644132  1.0
  C  C56  1  0.54266596  0.22450488  0.93581553  1.0
  C  C57  1  0.18477128  0.85190913  0.73419331  1.0
  C  C58  1  0.44882231  0.23871993  0.93069918  1.0
  C  C59  1  0.62288258  0.97454028  0.73357004  1.0
  C  C60  1  0.16298020  0.06047168  0.04594727  1.0
  C  C61  1  0.35915728  0.45726439  0.96695179  1.0
  C  C62  1  0.36837396  0.49274180  0.90041852  1.0
  C  C63  1  0.55089490  0.93601165  0.23930268  1.0
  C  C64  1  0.39431293  0.43203203  0.83559842  1.0
  C  C65  1  0.41669187  0.34672361  0.83949368  1.0
  C  C66  1  0.41385398  0.31656075  0.91159421  1.0
  C  C67  1  0.78587155  0.30889201  0.21720676  1.0
  C  C68  1  0.38115090  0.37293974  0.97185606  1.0
  C  C69  1  0.37268616  0.39017619  0.06243659  1.0
  C  C70  1  0.34777698  0.48587551  0.05662746  1.0
  C  C71  1  0.62972326  0.98176641  0.65074491  1.0
  C  C72  1  0.57826017  0.92512473  0.32529642  1.0
  C  C73  1  0.57173375  0.81748786  0.41111392  1.0
  C  C74  1  0.77090814  0.38436917  0.27929896  1.0
  C  C75  1  0.55933804  0.82715515  0.33045517  1.0
  C  C76  1  0.61474303  0.01177559  0.40491918  1.0
  C  C77  1  0.62734430  0.00429662  0.48829128  1.0
  C  C78  1  0.60288131  0.90462995  0.49200010  1.0
  C  C79  1  0.30085941  0.63906910  0.93244399  1.0
  C  C80  1  0.60635465  0.89631510  0.57415555  1.0
  C  C81  1  0.65737808  0.08082892  0.64633059  1.0
  C  C82  1  0.65722571  0.09183316  0.56836839  1.0
  C  C83  1  0.85174164  0.48453788  0.34851388  1.0
  C  C84  1  0.09272001  0.79203912  0.64806283  1.0
  C  C85  1  0.36320361  0.59060093  0.90277906  1.0
  C  C86  1  0.90118269  0.68181734  0.57250541  1.0
  C  C87  1  0.98832208  0.76004527  0.64657962  1.0
  C  C88  1  0.10486865  0.75001871  0.56869051  1.0
  C  C89  1  0.01859415  0.66860525  0.49142576  1.0
  C  C90  1  0.91569551  0.63030760  0.49377355  1.0
  C  C91  1  0.66189009  0.33804976  0.26008109  1.0
  C  C92  1  0.83463691  0.53899244  0.42129606  1.0
  C  C93  1  0.95235573  0.52692553  0.34462634  1.0
  C  C94  1  0.03271371  0.61631841  0.41357638  1.0
  C  C95  1  0.92820057  0.93707764  0.88581583  1.0
  C  C96  1  0.29265254  0.88113952  0.74958068  1.0
  C  C97  1  0.96709193  0.01128350  0.97289302  1.0
  C  C98  1  0.07659782  0.09426524  0.00911840  1.0
  C  C99  1  0.10967744  0.11864848  0.93252936  1.0
  C  C100  1  0.04961177  0.05737795  0.84605140  1.0
  C  C101  1  0.96027645  0.97181709  0.82177759  1.0
  C  C102  1  0.84861704  0.91155153  0.74939918  1.0
  C  C103  1  0.42893146  0.66349996  0.88279185  1.0
  C  C104  1  0.81623910  0.86596584  0.81558739  1.0
  C  C105  1  0.46913087  0.86488665  0.15501635  1.0
  C  C106  1  0.87804670  0.11625115  0.04488223  1.0
  C  C107  1  0.40364570  0.17557572  0.96971458  1.0
  C  C108  1  0.89456589  0.02477620  0.01544850  1.0
  C  C109  1  0.49089165  0.78005881  0.67991312  1.0
  C  C110  1  0.44485624  0.28843509  0.76709977  1.0
  C  C111  1  0.79323771  0.64696600  0.57557282  1.0
  C  C112  1  0.93270633  0.22116456  0.04792537  1.0
  C  C113  1  0.67026041  0.05620122  0.82067888  1.0
  C  C114  1  0.16082068  0.96048638  0.02241624  1.0
  C  C115  1  0.27058367  0.12492751  0.09901479  1.0
  N  N116  1  0.74998019  0.99029551  0.05135503  1.0
  N  N117  1  0.69348988  0.22549029  0.16505245  1.0
  N  N118  1  0.32635142  0.73277352  0.92908924  1.0
  N  N119  1  0.61671812  0.24378261  0.19132047  1.0
  N  N120  1  0.40690626  0.74817277  0.89923350  1.0
  N  N121  1  0.45637040  0.91254515  0.09817749  1.0
  N  N122  1  0.79177775  0.09305904  0.06549272  1.0
  N  N123  1  0.35090166  0.90969552  0.83772789  1.0
  N  N124  1  0.46662100  0.13022710  0.99861684  1.0
  N  N125  1  0.63999016  0.02451435  0.87948010  1.0
  N  N126  1  0.25971688  0.96490416  0.05662191  1.0
  N  N127  1  0.32858661  0.06798955  0.10441330  1.0
  N  N128  1  0.57379241  0.92181881  0.83301177  1.0
  N  N129  1  0.28404692  0.90144492  0.88135992  1.0
  N  N130  1  0.55264128  0.16074862  0.97779670  1.0
  N  N131  1  0.52935823  0.01296512  0.14222124  1.0
