# generated using pymatgen
data_AlH24C45(O2F)3
_symmetry_space_group_name_H-M   'P 1'
_cell_length_a   3.95100931
_cell_length_b   23.61615092
_cell_length_c   23.62305420
_cell_angle_alpha   60.09208916
_cell_angle_beta   88.10464801
_cell_angle_gamma   89.60880094
_symmetry_Int_Tables_number   1
_chemical_formula_structural   AlH24C45(O2F)3
_chemical_formula_sum   'Al1 H24 C45 O6 F3'
_cell_volume   1909.50772334
_cell_formula_units_Z   1
loop_
 _symmetry_equiv_pos_site_id
 _symmetry_equiv_pos_as_xyz
  1  'x, y, z'
loop_
 _atom_site_type_symbol
 _atom_site_label
 _atom_site_symmetry_multiplicity
 _atom_site_fract_x
 _atom_site_fract_y
 _atom_site_fract_z
 _atom_site_occupancy
  Al  Al0  1  0.97314221  0.49964025  0.00073220  1.0
  H  H1  1  0.23492421  0.32612828  0.99672336  1.0
  H  H2  1  0.24962429  0.26116898  0.94171874  1.0
  H  H3  1  0.16905342  0.16256620  0.82161056  1.0
  H  H4  1  0.78466651  0.68389522  0.97863837  1.0
  H  H5  1  0.78564640  0.80349031  0.91659771  1.0
  H  H6  1  0.68396939  0.89366494  0.87990835  1.0
  H  H7  1  0.70208805  0.01158744  0.82351524  1.0
  H  H8  1  0.48377857  0.10373269  0.78800571  1.0
  H  H9  1  0.18078056  0.67737851  0.83436195  1.0
  H  H10  1  0.18495412  0.79713145  0.77007529  1.0
  H  H11  1  0.27152488  0.01554904  0.65570429  1.0
  H  H12  1  0.75463894  0.33771473  0.18218754  1.0
  H  H13  1  0.74413611  0.27891870  0.30141024  1.0
  H  H14  1  0.72435242  0.23229543  0.39144301  1.0
  H  H15  1  0.75098890  0.17055541  0.50895022  1.0
  H  H16  1  0.48416164  0.10898743  0.60327897  1.0
  H  H17  1  0.14133796  0.48861401  0.18143892  1.0
  H  H18  1  0.14394038  0.43293854  0.30116947  1.0
  H  H19  1  0.18532455  0.32154782  0.52102837  1.0
  H  H20  1  0.73777638  0.48536126  0.83009680  1.0
  H  H21  1  0.71340364  0.42521233  0.77058080  1.0
  H  H22  1  0.80234187  0.37031254  0.73463443  1.0
  H  H23  1  0.80398357  0.31506669  0.67143050  1.0
  H  H24  1  0.48482599  0.28783461  0.60925750  1.0
  C  C25  1  0.48367930  0.44747856  0.95213486  1.0
  C  C26  1  0.45570752  0.45168718  0.10139313  1.0
  C  C27  1  0.47951941  0.60030835  0.94848712  1.0
  C  C28  1  0.34573378  0.34682636  0.94745135  1.0
  C  C29  1  0.35103122  0.31057454  0.91577343  1.0
  C  C30  1  0.31510031  0.24055214  0.83635454  1.0
  C  C31  1  0.31677975  0.20767000  0.80147807  1.0
  C  C32  1  0.64884831  0.70935665  0.93332282  1.0
  C  C33  1  0.64627604  0.77711668  0.89782661  1.0
  C  C34  1  0.59529133  0.91989749  0.83020919  1.0
  C  C35  1  0.60084264  0.98761478  0.79838772  1.0
  C  C36  1  0.48602278  0.40980319  0.91721094  1.0
  C  C37  1  0.48070866  0.33731725  0.85097021  1.0
  C  C38  1  0.48053995  0.30091759  0.81491326  1.0
  C  C39  1  0.48650001  0.23398521  0.74053565  1.0
  C  C40  1  0.48625059  0.19950718  0.70284628  1.0
  C  C41  1  0.48475944  0.13107045  0.73479531  1.0
  C  C42  1  0.31598474  0.70571621  0.85150526  1.0
  C  C43  1  0.31939900  0.77354347  0.81530996  1.0
  C  C44  1  0.37571197  0.92303055  0.73697367  1.0
  C  C45  1  0.37235549  0.99068726  0.70451791  1.0
  C  C46  1  0.61574066  0.35749233  0.20894037  1.0
  C  C47  1  0.60795496  0.32468990  0.27666595  1.0
  C  C48  1  0.60232705  0.25267270  0.41913514  1.0
  C  C49  1  0.61514712  0.21659914  0.48665218  1.0
  C  C50  1  0.48142915  0.67276962  0.91068351  1.0
  C  C51  1  0.48266430  0.81132086  0.83771884  1.0
  C  C52  1  0.48279057  0.88365161  0.80139648  1.0
  C  C53  1  0.48661784  0.02515646  0.73438474  1.0
  C  C54  1  0.48587408  0.09735802  0.69990648  1.0
  C  C55  1  0.48457125  0.13405327  0.63144984  1.0
  C  C56  1  0.27685769  0.44289342  0.20844605  1.0
  C  C57  1  0.27813353  0.41095883  0.27633419  1.0
  C  C58  1  0.30576741  0.33608543  0.42636120  1.0
  C  C59  1  0.31371327  0.30097873  0.49397827  1.0
  C  C60  1  0.62572905  0.43647786  0.85369639  1.0
  C  C61  1  0.61447821  0.40153982  0.82081898  1.0
  C  C62  1  0.65380988  0.32549464  0.75365855  1.0
  C  C63  1  0.65562103  0.29409527  0.71725339  1.0
  C  C64  1  0.44793359  0.41696079  0.17387881  1.0
  C  C65  1  0.44215322  0.35051424  0.31261731  1.0
  C  C66  1  0.44670069  0.31441083  0.38499358  1.0
  C  C67  1  0.47005873  0.24001177  0.52605525  1.0
  C  C68  1  0.48089831  0.20252315  0.59803822  1.0
  C  C69  1  0.48474547  0.23459798  0.63446151  1.0
  O  O70  1  0.70839929  0.57230898  0.99034938  1.0
  O  O71  1  0.72137683  0.48921425  0.93819504  1.0
  O  O72  1  0.69571796  0.43790241  0.07281147  1.0
  O  O73  1  0.24861790  0.57034936  0.93667583  1.0
  O  O74  1  0.22330503  0.49300579  0.07208011  1.0
  O  O75  1  0.24274436  0.43548655  0.99416409  1.0
  F  F76  1  0.14427258  0.39481770  0.40122917  1.0
  F  F77  1  0.12963949  0.21076777  0.89405454  1.0
  F  F78  1  0.26456005  0.89560460  0.70166164  1.0
