# generated using pymatgen
data_Zn2H17C30BrO8
_symmetry_space_group_name_H-M   'P 1'
_cell_length_a   12.14734858
_cell_length_b   12.36827597
_cell_length_c   23.27783173
_cell_angle_alpha   90.91712193
_cell_angle_beta   90.80946104
_cell_angle_gamma   90.67984703
_symmetry_Int_Tables_number   1
_chemical_formula_structural   Zn2H17C30BrO8
_chemical_formula_sum   'Zn4 H34 C60 Br2 O16'
_cell_volume   3496.24967832
_cell_formula_units_Z   2
loop_
 _symmetry_equiv_pos_site_id
 _symmetry_equiv_pos_as_xyz
  1  'x, y, z'
loop_
 _atom_site_type_symbol
 _atom_site_label
 _atom_site_symmetry_multiplicity
 _atom_site_fract_x
 _atom_site_fract_y
 _atom_site_fract_z
 _atom_site_occupancy
  Zn  Zn0  1  0.50253382  0.10322096  0.50173153  1.0
  Zn  Zn1  1  0.49746868  0.89677924  0.49826687  1.0
  Zn  Zn2  1  0.10502566  0.49870544  0.00262216  1.0
  Zn  Zn3  1  0.89497191  0.50129475  0.99737836  1.0
  H  H4  1  0.28726127  0.17130951  0.35526973  1.0
  H  H5  1  0.71273797  0.82869311  0.64472910  1.0
  H  H6  1  0.85495346  0.83954202  0.27690310  1.0
  H  H7  1  0.14504987  0.16045817  0.72309875  1.0
  H  H8  1  0.15283366  0.06866394  0.17363266  1.0
  H  H9  1  0.84716554  0.93133544  0.82636786  1.0
  H  H10  1  0.15937879  0.87713564  0.21660075  1.0
  H  H11  1  0.84062044  0.12286536  0.78339936  1.0
  H  H12  1  0.83967210  0.17703711  0.23488920  1.0
  H  H13  1  0.16032710  0.82296228  0.76511132  1.0
  H  H14  1  0.06626063  0.83991436  0.31084225  1.0
  H  H15  1  0.93373861  0.16008745  0.68916044  1.0
  H  H16  1  0.93213499  0.17075481  0.32274084  1.0
  H  H17  1  0.06786671  0.82924699  0.67725972  1.0
  H  H18  1  0.71584227  0.83459635  0.35359192  1.0
  H  H19  1  0.28415859  0.16540384  0.64640904  1.0
  H  H20  1  0.15457338  0.21870359  0.10481379  1.0
  H  H21  1  0.84542500  0.78129580  0.89518630  1.0
  H  H22  1  0.82263229  0.78544783  0.10360313  1.0
  H  H23  1  0.17736692  0.21455155  0.89639868  1.0
  H  H24  1  0.16434465  0.73326167  0.14206553  1.0
  H  H25  1  0.83565539  0.26673933  0.85793501  1.0
  H  H26  1  0.21607598  0.83586792  0.38402363  1.0
  H  H27  1  0.78392491  0.16413470  0.61597779  1.0
  H  H28  1  0.78727223  0.16720255  0.39650941  1.0
  H  H29  1  0.21272535  0.83279926  0.60348983  1.0
  H  H30  1  0.14316706  0.17431724  0.27874932  1.0
  H  H31  1  0.85682967  0.82568214  0.72125033  1.0
  H  H32  1  0.76255569  0.33220314  0.20660466  1.0
  H  H33  1  0.83661184  0.43006158  0.16641424  1.0
  H  H34  1  0.75709274  0.33026323  0.13000689  1.0
  H  H35  1  0.23744351  0.66779544  0.79339586  1.0
  H  H36  1  0.24290647  0.66973615  0.86999363  1.0
  H  H37  1  0.16338737  0.56993781  0.83358627  1.0
  C  C38  1  0.65157615  0.99861516  0.58010612  1.0
  C  C39  1  0.34842558  0.00138907  0.41989274  1.0
  C  C40  1  0.89658268  0.80550138  0.12867555  1.0
  C  C41  1  0.10341733  0.19449720  0.87132540  1.0
  C  C42  1  0.08460962  0.85726828  0.19213576  1.0
  C  C43  1  0.91539042  0.14273192  0.80786477  1.0
  C  C44  1  0.08821705  0.77594231  0.15038495  1.0
  C  C45  1  0.91178463  0.22405788  0.84961602  1.0
  C  C46  1  0.90970094  0.18545590  0.20659773  1.0
  C  C47  1  0.09029825  0.81454268  0.79340278  1.0
  C  C48  1  0.90771827  0.27004346  0.16717322  1.0
  C  C49  1  0.09228011  0.72995593  0.83282687  1.0
  C  C50  1  0.11654057  0.91219897  0.31912677  1.0
  C  C51  1  0.88346111  0.08780122  0.68087421  1.0
  C  C52  1  0.19951714  0.90965841  0.36066627  1.0
  C  C53  1  0.80048456  0.09034340  0.63933343  1.0
  C  C54  1  0.88195393  0.09798597  0.32763399  1.0
  C  C55  1  0.11804614  0.90201665  0.67236570  1.0
  C  C56  1  0.80200639  0.09600993  0.36970748  1.0
  C  C57  1  0.19799120  0.90399269  0.63029134  1.0
  C  C58  1  0.99320936  0.01057573  0.24797929  1.0
  C  C59  1  0.00678983  0.98942284  0.75202165  1.0
  C  C60  1  0.65254630  0.00036152  0.42280542  1.0
  C  C61  1  0.34745367  0.99963382  0.57719206  1.0
  C  C62  1  0.09516082  0.00691622  0.28845041  1.0
  C  C63  1  0.90484168  0.99308317  0.71154970  1.0
  C  C64  1  0.26147549  0.00337951  0.37410784  1.0
  C  C65  1  0.73852541  0.99662392  0.62589144  1.0
  C  C66  1  0.89978294  0.00733051  0.29201659  1.0
  C  C67  1  0.10021711  0.99267049  0.70798481  1.0
  C  C68  1  0.74027827  0.00144792  0.37875356  1.0
  C  C69  1  0.25972097  0.99855470  0.62124484  1.0
  C  C70  1  0.99529351  0.11136623  0.20963925  1.0
  C  C71  1  0.00470569  0.88863235  0.79036083  1.0
  C  C72  1  0.99703954  0.28027590  0.12944860  1.0
  C  C73  1  0.00295800  0.71972186  0.87055189  1.0
  C  C74  1  0.98860178  0.91573865  0.20402145  1.0
  C  C75  1  0.01139661  0.08426155  0.79597864  1.0
  C  C76  1  0.99293461  0.74782914  0.11895363  1.0
  C  C77  1  0.00706460  0.25217105  0.88104733  1.0
  C  C78  1  0.99324004  0.65818332  0.07521745  1.0
  C  C79  1  0.00675752  0.34181687  0.92478306  1.0
  C  C80  1  0.00142471  0.36210027  0.08314517  1.0
  C  C81  1  0.99857286  0.63789992  0.91685578  1.0
  C  C82  1  0.15844473  0.09967046  0.30155962  1.0
  C  C83  1  0.84155286  0.90033215  0.69843963  1.0
  C  C84  1  0.23978549  0.09837801  0.34440240  1.0
  C  C85  1  0.76021291  0.90162299  0.65559727  1.0
  C  C86  1  0.84047174  0.91205597  0.30275251  1.0
  C  C87  1  0.15953076  0.08794342  0.69724803  1.0
  C  C88  1  0.76210729  0.90872991  0.34574463  1.0
  C  C89  1  0.23789523  0.09127109  0.65425506  1.0
  C  C90  1  0.08446778  0.12490585  0.17258420  1.0
  C  C91  1  0.91553141  0.87509273  0.82741588  1.0
  C  C92  1  0.08554525  0.20856776  0.13367997  1.0
  C  C93  1  0.91445230  0.79143082  0.86632010  1.0
  C  C94  1  0.89544200  0.88937279  0.16935119  1.0
  C  C95  1  0.10455638  0.11062659  0.83065061  1.0
  C  C96  1  0.81087334  0.34474910  0.16774089  1.0
  C  C97  1  0.18912668  0.65524948  0.83226006  1.0
  Br  Br98  1  0.76000182  0.96633090  0.17229055  1.0
  Br  Br99  1  0.23999740  0.03366929  0.82771041  1.0
  O  O100  1  0.62090827  0.09159386  0.56316618  1.0
  O  O101  1  0.37909262  0.90840957  0.43683309  1.0
  O  O102  1  0.61452810  0.90820198  0.43786452  1.0
  O  O103  1  0.38547357  0.09179821  0.56213216  1.0
  O  O104  1  0.62107878  0.09227521  0.44212323  1.0
  O  O105  1  0.37892123  0.90772256  0.55787642  1.0
  O  O106  1  0.61415396  0.90747372  0.56109447  1.0
  O  O107  1  0.38584942  0.09253052  0.43890311  1.0
  O  O108  1  0.08699914  0.62148254  0.06072908  1.0
  O  O109  1  0.91299759  0.37851684  0.93927056  1.0
  O  O110  1  0.91009801  0.39541546  0.06213894  1.0
  O  O111  1  0.08989874  0.60458473  0.93786114  1.0
  O  O112  1  0.09704661  0.39176936  0.06647149  1.0
  O  O113  1  0.90295180  0.60823245  0.93352947  1.0
  O  O114  1  0.89967276  0.62464217  0.05580250  1.0
  O  O115  1  0.10032399  0.37535883  0.94419844  1.0
