# generated using pymatgen
data_Zn4H12C48Cl12O13
_symmetry_space_group_name_H-M   'P 1'
_cell_length_a   28.14651090
_cell_length_b   28.14690799
_cell_length_c   28.14619417
_cell_angle_alpha   120.00694012
_cell_angle_beta   120.00537780
_cell_angle_gamma   59.99514269
_symmetry_Int_Tables_number   1
_chemical_formula_structural   Zn4H12C48Cl12O13
_chemical_formula_sum   'Zn8 H24 C96 Cl24 O26'
_cell_volume   15765.34805505
_cell_formula_units_Z   2
loop_
 _symmetry_equiv_pos_site_id
 _symmetry_equiv_pos_as_xyz
  1  'x, y, z'
loop_
 _atom_site_type_symbol
 _atom_site_label
 _atom_site_symmetry_multiplicity
 _atom_site_fract_x
 _atom_site_fract_y
 _atom_site_fract_z
 _atom_site_occupancy
  Zn  Zn0  1  0.02849309  0.02850663  0.47152270  1.0
  Zn  Zn1  1  0.91447175  0.02855283  0.47145438  1.0
  Zn  Zn2  1  0.02843075  0.02852304  0.58543937  1.0
  Zn  Zn3  1  0.02845567  0.91458725  0.47151979  1.0
  Zn  Zn4  1  0.47158098  0.47148642  0.02857788  1.0
  Zn  Zn5  1  0.47149453  0.47150419  0.91458699  1.0
  Zn  Zn6  1  0.58546610  0.47151412  0.02853993  1.0
  Zn  Zn7  1  0.47151372  0.58546215  0.02855926  1.0
  H  H8  1  0.36803266  0.70845925  0.13212672  1.0
  H  H9  1  0.36799156  0.55542831  0.13209860  1.0
  H  H10  1  0.13203190  0.94446720  0.36796524  1.0
  H  H11  1  0.13202103  0.79145330  0.36800891  1.0
  H  H12  1  0.55552276  0.36794443  0.79153789  1.0
  H  H13  1  0.70860984  0.36797568  0.94456888  1.0
  H  H14  1  0.79135395  0.13212376  0.55548720  1.0
  H  H15  1  0.94443896  0.13209953  0.70851397  1.0
  H  H16  1  0.36808952  0.36783597  0.79160622  1.0
  H  H17  1  0.36810897  0.36783292  0.94465499  1.0
  H  H18  1  0.13214943  0.13196747  0.55558971  1.0
  H  H19  1  0.13206424  0.13195465  0.70858500  1.0
  H  H20  1  0.55553529  0.70851501  0.13203434  1.0
  H  H21  1  0.70860472  0.55547301  0.13206365  1.0
  H  H22  1  0.79140675  0.94449795  0.36798542  1.0
  H  H23  1  0.94449474  0.79147505  0.36798357  1.0
  H  H24  1  0.70862189  0.36795508  0.13199575  1.0
  H  H25  1  0.55563348  0.36792292  0.13206895  1.0
  H  H26  1  0.94461533  0.13204590  0.36799506  1.0
  H  H27  1  0.79151006  0.13207301  0.36790594  1.0
  H  H28  1  0.36806872  0.55555893  0.79148471  1.0
  H  H29  1  0.36805760  0.70860484  0.94456205  1.0
  H  H30  1  0.13201447  0.79149162  0.55555213  1.0
  H  H31  1  0.13201950  0.94456827  0.70859589  1.0
  C  C32  1  0.90916713  0.09091314  0.40910277  1.0
  C  C33  1  0.90905706  0.09094919  0.59083982  1.0
  C  C34  1  0.09088901  0.09087403  0.59090226  1.0
  C  C35  1  0.09084480  0.90917093  0.59089545  1.0
  C  C36  1  0.09086246  0.90912503  0.40912028  1.0
  C  C37  1  0.90909768  0.90915009  0.40909515  1.0
  C  C38  1  0.40921644  0.40903630  0.90926446  1.0
  C  C39  1  0.59091279  0.40908940  0.90920782  1.0
  C  C40  1  0.59094674  0.40909568  0.09091094  1.0
  C  C41  1  0.59091466  0.59084416  0.09096262  1.0
  C  C42  1  0.40919452  0.59080731  0.09098843  1.0
  C  C43  1  0.40915057  0.59089983  0.90918011  1.0
  C  C44  1  0.37164008  0.62833163  0.12850698  1.0
  C  C45  1  0.35417582  0.68899233  0.14596473  1.0
  C  C46  1  0.31926469  0.72377778  0.18082446  1.0
  C  C47  1  0.30063329  0.69930887  0.19942173  1.0
  C  C48  1  0.31924666  0.63759834  0.18080476  1.0
  C  C49  1  0.35415429  0.60259755  0.14594223  1.0
  C  C50  1  0.26533774  0.73461130  0.23470749  1.0
  C  C51  1  0.23467602  0.76528368  0.26538281  1.0
  C  C52  1  0.19938843  0.80058739  0.30067084  1.0
  C  C53  1  0.18077497  0.86229118  0.31926364  1.0
  C  C54  1  0.14587723  0.89730020  0.35413641  1.0
  C  C55  1  0.12841218  0.87157211  0.37159659  1.0
  C  C56  1  0.14587490  0.81091572  0.35416189  1.0
  C  C57  1  0.18077613  0.77612063  0.31929403  1.0
  C  C58  1  0.62845235  0.37156653  0.87166545  1.0
  C  C59  1  0.60269239  0.35411156  0.81100305  1.0
  C  C60  1  0.63766908  0.31925986  0.77621172  1.0
  C  C61  1  0.69937511  0.30067543  0.80068159  1.0
  C  C62  1  0.72387589  0.31928531  0.86239173  1.0
  C  C63  1  0.68910845  0.35414026  0.89740084  1.0
  C  C64  1  0.73464931  0.26540856  0.76537662  1.0
  C  C65  1  0.76530487  0.23474056  0.73468910  1.0
  C  C66  1  0.80058011  0.19945311  0.69937913  1.0
  C  C67  1  0.77609397  0.18084111  0.63766722  1.0
  C  C68  1  0.81085676  0.14596309  0.60265915  1.0
  C  C69  1  0.87151750  0.12849871  0.62837970  1.0
  C  C70  1  0.89727088  0.14595571  0.68904399  1.0
  C  C71  1  0.86228925  0.18083545  0.72383571  1.0
  C  C72  1  0.37172364  0.37145180  0.87174435  1.0
  C  C73  1  0.35426390  0.35397499  0.81107923  1.0
  C  C74  1  0.31936853  0.31909842  0.77629611  1.0
  C  C75  1  0.30074811  0.30050043  0.80077541  1.0
  C  C76  1  0.31938378  0.31910720  0.86248654  1.0
  C  C77  1  0.35427682  0.35398826  0.89748619  1.0
  C  C78  1  0.26546471  0.26520570  0.76549727  1.0
  C  C79  1  0.23480006  0.23453042  0.73481029  1.0
  C  C80  1  0.19949942  0.19925257  0.69948471  1.0
  C  C81  1  0.18091128  0.18064516  0.63777847  1.0
  C  C82  1  0.14599301  0.14579146  0.60275643  1.0
  C  C83  1  0.12848562  0.12835331  0.62846790  1.0
  C  C84  1  0.14593620  0.14578635  0.68912493  1.0
  C  C85  1  0.18085284  0.18063952  0.72393287  1.0
  C  C86  1  0.62845185  0.62838249  0.12845215  1.0
  C  C87  1  0.60270338  0.68904227  0.14587428  1.0
  C  C88  1  0.63769098  0.72382520  0.18072404  1.0
  C  C89  1  0.69939863  0.69935088  0.19934012  1.0
  C  C90  1  0.72388160  0.63764180  0.18073659  1.0
  C  C91  1  0.68911147  0.60264319  0.14588720  1.0
  C  C92  1  0.73468703  0.73464665  0.23464493  1.0
  C  C93  1  0.76535929  0.76531042  0.26535054  1.0
  C  C94  1  0.80063770  0.80061511  0.30066277  1.0
  C  C95  1  0.77614560  0.86232160  0.31928381  1.0
  C  C96  1  0.81090618  0.89732940  0.35415244  1.0
  C  C97  1  0.87156695  0.87160281  0.37159468  1.0
  C  C98  1  0.89732559  0.81094387  0.35414826  1.0
  C  C99  1  0.86234714  0.77615072  0.31927673  1.0
  C  C100  1  0.62851149  0.37154882  0.12842191  1.0
  C  C101  1  0.68916623  0.35410262  0.14585082  1.0
  C  C102  1  0.72397022  0.31921963  0.18072673  1.0
  C  C103  1  0.69951441  0.30060525  0.19936070  1.0
  C  C104  1  0.63781660  0.31919629  0.18077722  1.0
  C  C105  1  0.60279538  0.35408192  0.14589441  1.0
  C  C106  1  0.73483381  0.26532454  0.23465286  1.0
  C  C107  1  0.76550754  0.23466818  0.26532364  1.0
  C  C108  1  0.80076762  0.19938569  0.30061403  1.0
  C  C109  1  0.86248189  0.18076939  0.31925299  1.0
  C  C110  1  0.89744245  0.14589290  0.35413590  1.0
  C  C111  1  0.87167121  0.12844552  0.37156577  1.0
  C  C112  1  0.81100861  0.14590711  0.35408275  1.0
  C  C113  1  0.77625113  0.18079013  0.31919330  1.0
  C  C114  1  0.37168488  0.62845137  0.87164669  1.0
  C  C115  1  0.35424542  0.60272581  0.81098066  1.0
  C  C116  1  0.31937989  0.63772826  0.77620914  1.0
  C  C117  1  0.30074591  0.69943686  0.80068801  1.0
  C  C118  1  0.31936996  0.72389787  0.86240519  1.0
  C  C119  1  0.35423483  0.68911211  0.89739138  1.0
  C  C120  1  0.26543159  0.73473132  0.76539703  1.0
  C  C121  1  0.23472623  0.76540935  0.73473085  1.0
  C  C122  1  0.19940313  0.80069696  0.69943252  1.0
  C  C123  1  0.18076684  0.77621416  0.63772256  1.0
  C  C124  1  0.14586328  0.81098460  0.60272255  1.0
  C  C125  1  0.12839699  0.87164658  0.62845355  1.0
  C  C126  1  0.14586634  0.89739953  0.68911316  1.0
  C  C127  1  0.18077596  0.86241196  0.72390107  1.0
  Cl  Cl128  1  0.29793189  0.60562343  0.20204899  1.0
  Cl  Cl129  1  0.29799157  0.79831553  0.20207712  1.0
  Cl  Cl130  1  0.20205626  0.70158688  0.29804235  1.0
  Cl  Cl131  1  0.20205807  0.89426401  0.29798667  1.0
  Cl  Cl132  1  0.79841502  0.29804316  0.89436330  1.0
  Cl  Cl133  1  0.60564715  0.29800487  0.70167329  1.0
  Cl  Cl134  1  0.89431643  0.20208306  0.79837582  1.0
  Cl  Cl135  1  0.70155005  0.20211291  0.60568661  1.0
  Cl  Cl136  1  0.29811276  0.29783803  0.89447857  1.0
  Cl  Cl137  1  0.29808312  0.29784534  0.70175642  1.0
  Cl  Cl138  1  0.20211832  0.20189086  0.79846932  1.0
  Cl  Cl139  1  0.20222059  0.20190447  0.60581478  1.0
  Cl  Cl140  1  0.79842311  0.60566235  0.20200470  1.0
  Cl  Cl141  1  0.60568022  0.79836394  0.20196226  1.0
  Cl  Cl142  1  0.89436299  0.70161506  0.29800842  1.0
  Cl  Cl143  1  0.70160288  0.89429693  0.29801912  1.0
  Cl  Cl144  1  0.60585733  0.29791779  0.20207427  1.0
  Cl  Cl145  1  0.79850627  0.29794715  0.20198872  1.0
  Cl  Cl146  1  0.70171086  0.20206895  0.29788942  1.0
  Cl  Cl147  1  0.89448291  0.20204167  0.29799696  1.0
  Cl  Cl148  1  0.29809534  0.79843714  0.89441400  1.0
  Cl  Cl149  1  0.29811629  0.60572166  0.70166670  1.0
  Cl  Cl150  1  0.20205418  0.89442384  0.79843824  1.0
  Cl  Cl151  1  0.20203789  0.70167526  0.60571764  1.0
  O  O152  1  0.99993992  0.00005657  0.49997442  1.0
  O  O153  1  0.96411096  0.07644788  0.42358165  1.0
  O  O154  1  0.88302853  0.07650244  0.53589534  1.0
  O  O155  1  0.07638390  0.07644804  0.61690800  1.0
  O  O156  1  0.88311053  0.07647587  0.42353316  1.0
  O  O157  1  0.07643370  0.07643584  0.53596584  1.0
  O  O158  1  0.96399236  0.07647913  0.61686791  1.0
  O  O159  1  0.07637111  0.96411435  0.61691218  1.0
  O  O160  1  0.07639146  0.88311597  0.42357629  1.0
  O  O161  1  0.07639479  0.88314106  0.53595558  1.0
  O  O162  1  0.07640827  0.96406257  0.42356970  1.0
  O  O163  1  0.88306587  0.96408879  0.42351258  1.0
  O  O164  1  0.96403682  0.88313006  0.42355889  1.0
  O  O165  1  0.50000537  0.49999762  0.00006391  1.0
  O  O166  1  0.42367877  0.42350157  0.96420435  1.0
  O  O167  1  0.53597070  0.42353543  0.88318921  1.0
  O  O168  1  0.61695326  0.42356817  0.07645634  1.0
  O  O169  1  0.42362062  0.42352093  0.88322140  1.0
  O  O170  1  0.53601743  0.42354259  0.07647990  1.0
  O  O171  1  0.61694813  0.42354612  0.96414554  1.0
  O  O172  1  0.61694576  0.53590795  0.07652708  1.0
  O  O173  1  0.42363230  0.61684212  0.07653154  1.0
  O  O174  1  0.53597367  0.61686782  0.07652865  1.0
  O  O175  1  0.42367770  0.53586956  0.07655486  1.0
  O  O176  1  0.42356994  0.53595715  0.88315092  1.0
  O  O177  1  0.42358458  0.61691842  0.96412665  1.0
