# generated using pymatgen
data_Zn8H45C75NO28
_symmetry_space_group_name_H-M   'P 1'
_cell_length_a   18.53536761
_cell_length_b   20.30621572
_cell_length_c   20.94424967
_cell_angle_alpha   70.61327669
_cell_angle_beta   69.38917540
_cell_angle_gamma   68.35320785
_symmetry_Int_Tables_number   1
_chemical_formula_structural   Zn8H45C75NO28
_chemical_formula_sum   'Zn16 H90 C150 N2 O56'
_cell_volume   6670.53405599
_cell_formula_units_Z   2
loop_
 _symmetry_equiv_pos_site_id
 _symmetry_equiv_pos_as_xyz
  1  'x, y, z'
loop_
 _atom_site_type_symbol
 _atom_site_label
 _atom_site_symmetry_multiplicity
 _atom_site_fract_x
 _atom_site_fract_y
 _atom_site_fract_z
 _atom_site_occupancy
  Zn  Zn0  1  0.36288003  0.21050103  0.53036920  1.0
  Zn  Zn1  1  0.38405549  0.35843115  0.53481692  1.0
  Zn  Zn2  1  0.21439346  0.35144395  0.53623109  1.0
  Zn  Zn3  1  0.36057958  0.34261264  0.39641635  1.0
  Zn  Zn4  1  0.80117257  0.79413756  0.10236684  1.0
  Zn  Zn5  1  0.80890771  0.92112013  0.96626832  1.0
  Zn  Zn6  1  0.94687464  0.77600465  0.96586459  1.0
  Zn  Zn7  1  0.77649657  0.77036112  0.96244247  1.0
  Zn  Zn8  1  0.63711918  0.78949971  0.46963368  1.0
  Zn  Zn9  1  0.61594611  0.64156741  0.46518114  1.0
  Zn  Zn10  1  0.78560399  0.64855679  0.46376758  1.0
  Zn  Zn11  1  0.63941739  0.65738592  0.60358126  1.0
  Zn  Zn12  1  0.19882611  0.20586482  0.89763377  1.0
  Zn  Zn13  1  0.19108924  0.07887679  0.03373508  1.0
  Zn  Zn14  1  0.05312488  0.22399500  0.03413377  1.0
  Zn  Zn15  1  0.22350719  0.22963417  0.03755358  1.0
  H  H16  1  0.45239272  0.39917394  0.24482766  1.0
  H  H17  1  0.44668549  0.32254830  0.25841880  1.0
  H  H18  1  0.24406645  0.06297787  0.67127607  1.0
  H  H19  1  0.46450999  0.54393677  0.43183284  1.0
  H  H20  1  0.93486935  0.05920389  0.83793537  1.0
  H  H21  1  0.62992938  0.68433531  0.24958531  1.0
  H  H22  1  0.54173056  0.44731124  0.25554139  1.0
  H  H23  1  0.53835220  0.63621304  0.36066654  1.0
  H  H24  1  0.87336643  0.61659156  0.83896808  1.0
  H  H25  1  0.93439369  0.68202130  0.24979350  1.0
  H  H26  1  0.07410402  0.46723467  0.68590558  1.0
  H  H27  1  0.59576794  0.95499900  0.36510415  1.0
  H  H28  1  0.50073766  0.04764387  0.43278180  1.0
  H  H29  1  0.04347216  0.52045100  0.44179325  1.0
  H  H30  1  0.13990319  0.86992987  0.83968247  1.0
  H  H31  1  0.95730324  0.61775775  0.36818216  1.0
  H  H32  1  0.68245853  0.09318262  0.06053171  1.0
  H  H33  1  0.59458592  0.18726246  0.12924183  1.0
  H  H34  1  0.67329757  0.92367499  0.24921439  1.0
  H  H35  1  0.22899024  0.94404814  0.75161251  1.0
  H  H36  1  0.51134861  0.21696288  0.24299306  1.0
  H  H37  1  0.12569438  0.64400835  0.06514437  1.0
  H  H38  1  0.09693125  0.63835541  0.83443191  1.0
  H  H39  1  0.21710769  0.55519057  0.13894942  1.0
  H  H40  1  0.23521201  0.48154245  0.25719795  1.0
  H  H41  1  0.22591867  0.57476474  0.75940282  1.0
  H  H42  1  0.94596773  0.53067431  0.75978341  1.0
  H  H43  1  0.29725049  0.49553006  0.67417877  1.0
  H  H44  1  0.95013842  0.17826595  0.75744879  1.0
  H  H45  1  0.71502170  0.58259546  0.07659921  1.0
  H  H46  1  0.56275040  0.95081688  0.73488758  1.0
  H  H47  1  0.03747622  0.25106927  0.66554023  1.0
  H  H48  1  0.50591052  0.06904803  0.65918095  1.0
  H  H49  1  0.63479812  0.49426622  0.14475500  1.0
  H  H50  1  0.56276016  0.26130659  0.64547707  1.0
  H  H51  1  0.70233024  0.07176513  0.80712236  1.0
  H  H52  1  0.64601463  0.87994279  0.82068129  1.0
  H  H53  1  0.64850989  0.18977037  0.72770779  1.0
  H  H54  1  0.75354016  0.63961894  0.94445251  1.0
  H  H55  1  0.63572871  0.56784014  0.91627642  1.0
  H  H56  1  0.68899722  0.60609172  0.83134800  1.0
  H  H57  1  0.73816597  0.56473434  0.90088788  1.0
  H  H58  1  0.59674678  0.74741480  0.83212816  1.0
  H  H59  1  0.53722968  0.69384411  0.89978662  1.0
  H  H60  1  0.56142870  0.76239876  0.91883047  1.0
  H  H61  1  0.54760230  0.60082352  0.75517236  1.0
  H  H62  1  0.55330746  0.67745026  0.74158247  1.0
  H  H63  1  0.75593208  0.93701960  0.32873143  1.0
  H  H64  1  0.53547928  0.45607159  0.56816547  1.0
  H  H65  1  0.06513014  0.94079413  0.16206782  1.0
  H  H66  1  0.37007338  0.31566326  0.75041429  1.0
  H  H67  1  0.45826398  0.55269331  0.74446078  1.0
  H  H68  1  0.46164589  0.36378934  0.63933187  1.0
  H  H69  1  0.12663349  0.38341408  0.16102535  1.0
  H  H70  1  0.06560430  0.31797781  0.75021029  1.0
  H  H71  1  0.92589512  0.53276443  0.31409547  1.0
  H  H72  1  0.40423191  0.04499411  0.63489479  1.0
  H  H73  1  0.49925970  0.95234979  0.56721585  1.0
  H  H74  1  0.95652310  0.47954756  0.55820729  1.0
  H  H75  1  0.86009286  0.13006815  0.16032373  1.0
  H  H76  1  0.04269267  0.38224245  0.63182051  1.0
  H  H77  1  0.31754856  0.90681867  0.93946659  1.0
  H  H78  1  0.40542148  0.81273611  0.87076060  1.0
  H  H79  1  0.32670377  0.07632248  0.75078123  1.0
  H  H80  1  0.77101201  0.05594662  0.24839183  1.0
  H  H81  1  0.48865312  0.78303350  0.75700805  1.0
  H  H82  1  0.87429877  0.35599511  0.93485811  1.0
  H  H83  1  0.90306826  0.36164424  0.16556455  1.0
  H  H84  1  0.78288679  0.44481780  0.86105153  1.0
  H  H85  1  0.76478707  0.51846048  0.74280187  1.0
  H  H86  1  0.77408097  0.42523273  0.24059764  1.0
  H  H87  1  0.05403352  0.46932535  0.24021441  1.0
  H  H88  1  0.70274788  0.50446959  0.32581996  1.0
  H  H89  1  0.04986162  0.82173207  0.24254946  1.0
  H  H90  1  0.28498152  0.41739984  0.92340226  1.0
  H  H91  1  0.43725218  0.04917678  0.26511367  1.0
  H  H92  1  0.96252557  0.74892876  0.33446224  1.0
  H  H93  1  0.49408820  0.93095053  0.34081802  1.0
  H  H94  1  0.36519973  0.50573507  0.85524383  1.0
  H  H95  1  0.43723909  0.73869034  0.35452608  1.0
  H  H96  1  0.29766814  0.92823452  0.19287827  1.0
  H  H97  1  0.35399152  0.12005414  0.17931681  1.0
  H  H98  1  0.35149076  0.81022766  0.27229599  1.0
  H  H99  1  0.24646086  0.36037963  0.05554621  1.0
  H  H100  1  0.36427134  0.43215788  0.08372421  1.0
  H  H101  1  0.31100399  0.39390630  0.16865275  1.0
  H  H102  1  0.26183448  0.43526422  0.09911197  1.0
  H  H103  1  0.40325050  0.25258649  0.16787181  1.0
  H  H104  1  0.46277278  0.30615173  0.10021252  1.0
  H  H105  1  0.43856923  0.23759872  0.08117340  1.0
  C  C106  1  0.45307630  0.43647120  0.38998482  1.0
  C  C107  1  0.93789660  0.68412367  0.88782581  1.0
  C  C108  1  0.97814619  0.91708571  0.89471653  1.0
  C  C109  1  0.19858675  0.20456692  0.61014193  1.0
  C  C110  1  0.17983043  0.08746390  0.69068494  1.0
  C  C111  1  0.49775993  0.54413278  0.37730624  1.0
  C  C112  1  0.49807773  0.49092348  0.34694608  1.0
  C  C113  1  0.99917366  0.03491946  0.81835702  1.0
  C  C114  1  0.62981977  0.64307103  0.22708085  1.0
  C  C115  1  0.54084410  0.48903721  0.27804997  1.0
  C  C116  1  0.98190694  0.63169998  0.84131386  1.0
  C  C117  1  0.13189549  0.04443263  0.74243904  1.0
  C  C118  1  0.58392102  0.59371918  0.26740414  1.0
  C  C119  1  0.14617408  0.16059073  0.66373238  1.0
  C  C120  1  0.53871043  0.59492890  0.33791837  1.0
  C  C121  1  0.04732791  0.07803859  0.76706079  1.0
  C  C122  1  0.93868158  0.60130138  0.82010720  1.0
  C  C123  1  0.03227869  0.96127684  0.84348324  1.0
  C  C124  1  0.04642832  0.60436071  0.26971999  1.0
  C  C125  1  0.99649151  0.65445557  0.22636929  1.0
  C  C126  1  0.10651549  0.49074175  0.70268169  1.0
  C  C127  1  0.57665796  0.01226661  0.33858681  1.0
  C  C128  1  0.52432151  0.06313351  0.37617217  1.0
  C  C129  1  0.49931695  0.13770020  0.34149294  1.0
  C  C130  1  0.60578844  0.03301255  0.26444395  1.0
  C  C131  1  0.14390816  0.49473875  0.35282599  1.0
  C  C132  1  0.06395039  0.53656991  0.75003844  1.0
  C  C133  1  0.06533724  0.53407378  0.38486888  1.0
  C  C134  1  0.44200822  0.19123798  0.38378088  1.0
  C  C135  1  0.11583996  0.92801003  0.81899449  1.0
  C  C136  1  0.01802348  0.58786490  0.34411710  1.0
  C  C137  1  0.66014947  0.07823774  0.11734237  1.0
  C  C138  1  0.67596788  0.63886742  0.15948428  1.0
  C  C139  1  0.61165331  0.12964453  0.15542619  1.0
  C  C140  1  0.23186169  0.42846428  0.62552799  1.0
  C  C141  1  0.02469929  0.66705070  0.15407597  1.0
  C  C142  1  0.72439160  0.69131113  0.11735533  1.0
  C  C143  1  0.19428484  0.43463857  0.39653638  1.0
  C  C144  1  0.65577900  0.98139768  0.22386264  1.0
  C  C145  1  0.68170907  0.00335619  0.15168095  1.0
  C  C146  1  0.16456163  0.96899772  0.77018588  1.0
  C  C147  1  0.18918301  0.47612362  0.67624428  1.0
  C  C148  1  0.58213623  0.10857496  0.22944806  1.0
  C  C149  1  0.73084546  0.94810433  0.10870408  1.0
  C  C150  1  0.52892573  0.15968801  0.26960936  1.0
  C  C151  1  0.96913633  0.71547715  0.10906583  1.0
  C  C152  1  0.10539442  0.63193606  0.12219888  1.0
  C  C153  1  0.06496785  0.61424114  0.81766394  1.0
  C  C154  1  0.15528153  0.58300448  0.16307156  1.0
  C  C155  1  0.10791321  0.56731910  0.77120390  1.0
  C  C156  1  0.12695623  0.56646621  0.23743386  1.0
  C  C157  1  0.58557824  0.53908776  0.23708283  1.0
  C  C158  1  0.17435949  0.51181579  0.28061097  1.0
  C  C159  1  0.19275491  0.55115171  0.74337691  1.0
  C  C160  1  0.97886185  0.55431342  0.77609385  1.0
  C  C161  1  0.23257010  0.50714904  0.69655269  1.0
  C  C162  1  0.01446544  0.15318267  0.73857262  1.0
  C  C163  1  0.67746481  0.58478932  0.12964324  1.0
  C  C164  1  0.59371065  0.97702369  0.75045860  1.0
  C  C165  1  0.58522124  0.05272017  0.72166836  1.0
  C  C166  1  0.47401460  0.21192401  0.60162641  1.0
  C  C167  1  0.06245011  0.19366259  0.68790600  1.0
  C  C168  1  0.52849367  0.16891349  0.64823681  1.0
  C  C169  1  0.72512895  0.93035407  0.87179232  1.0
  C  C170  1  0.53721386  0.09490191  0.67456916  1.0
  C  C171  1  0.67835737  0.97274077  0.81826995  1.0
  C  C172  1  0.63330594  0.53618138  0.16746361  1.0
  C  C173  1  0.56951467  0.20335382  0.66730858  1.0
  C  C174  1  0.67187208  0.04614280  0.79041591  1.0
  C  C175  1  0.62564438  0.08786580  0.74174216  1.0
  C  C176  1  0.63932707  0.93779830  0.79759577  1.0
  C  C177  1  0.61702909  0.16351934  0.71278555  1.0
  C  C178  1  0.69926693  0.68375970  0.93448046  1.0
  C  C179  1  0.68105454  0.59757970  0.88776582  1.0
  C  C180  1  0.58318749  0.72100969  0.88841719  1.0
  C  C181  1  0.54692116  0.56352955  0.61001623  1.0
  C  C182  1  0.06210340  0.31588524  0.11216176  1.0
  C  C183  1  0.02185360  0.08291504  0.10528617  1.0
  C  C184  1  0.80142095  0.79543275  0.38987055  1.0
  C  C185  1  0.82017048  0.91253521  0.30932319  1.0
  C  C186  1  0.50223291  0.45587341  0.62269068  1.0
  C  C187  1  0.50191356  0.50908215  0.65305199  1.0
  C  C188  1  0.00082648  0.96508020  0.18164688  1.0
  C  C189  1  0.37018095  0.35693025  0.77291565  1.0
  C  C190  1  0.45915093  0.51096570  0.72194971  1.0
  C  C191  1  0.01809237  0.36831110  0.15867275  1.0
  C  C192  1  0.86810667  0.95556430  0.25756557  1.0
  C  C193  1  0.41607804  0.40628374  0.73259236  1.0
  C  C194  1  0.85382986  0.83941166  0.33627659  1.0
  C  C195  1  0.46128413  0.40507729  0.66207659  1.0
  C  C196  1  0.95267274  0.92195943  0.23294395  1.0
  C  C197  1  0.06131793  0.39870372  0.17988701  1.0
  C  C198  1  0.96772201  0.03872282  0.15651857  1.0
  C  C199  1  0.95357176  0.39564276  0.73028269  1.0
  C  C200  1  0.00350703  0.34554736  0.77363501  1.0
  C  C201  1  0.89348166  0.50926172  0.29731476  1.0
  C  C202  1  0.42333965  0.98772814  0.66141374  1.0
  C  C203  1  0.47567915  0.93686069  0.62382759  1.0
  C  C204  1  0.50068207  0.86229564  0.65850968  1.0
  C  C205  1  0.39420682  0.96698601  0.73555659  1.0
  C  C206  1  0.85609168  0.50526363  0.64717473  1.0
  C  C207  1  0.93604786  0.46343192  0.24995914  1.0
  C  C208  1  0.93465982  0.46592642  0.61513247  1.0
  C  C209  1  0.55799416  0.80876004  0.61622283  1.0
  C  C210  1  0.88415986  0.07198690  0.18100657  1.0
  C  C211  1  0.98197261  0.41213475  0.65588616  1.0
  C  C212  1  0.33985515  0.92176410  0.88265653  1.0
  C  C213  1  0.32403649  0.36113333  0.84051315  1.0
  C  C214  1  0.38834871  0.87035458  0.84457586  1.0
  C  C215  1  0.76813344  0.57154191  0.37446630  1.0
  C  C216  1  0.97529896  0.33295495  0.84592801  1.0
  C  C217  1  0.27561639  0.30868362  0.88264337  1.0
  C  C218  1  0.80571099  0.56535999  0.60346397  1.0
  C  C219  1  0.34422267  0.01860252  0.77613772  1.0
  C  C220  1  0.31829555  0.99664565  0.84831939  1.0
  C  C221  1  0.83544062  0.03099703  0.22981750  1.0
  C  C222  1  0.81081546  0.52387930  0.32375144  1.0
  C  C223  1  0.41786342  0.89142252  0.77055383  1.0
  C  C224  1  0.26915776  0.05189642  0.89129514  1.0
  C  C225  1  0.47107369  0.84030838  0.73039391  1.0
  C  C226  1  0.03086039  0.28453341  0.89093944  1.0
  C  C227  1  0.89460209  0.36806958  0.87780327  1.0
  C  C228  1  0.93503182  0.38576341  0.18232801  1.0
  C  C229  1  0.84471457  0.41700062  0.83693090  1.0
  C  C230  1  0.89208751  0.43268218  0.22879117  1.0
  C  C231  1  0.87304316  0.43353944  0.76256832  1.0
  C  C232  1  0.41441795  0.46091516  0.76291553  1.0
  C  C233  1  0.82564122  0.48818931  0.71939003  1.0
  C  C234  1  0.80724669  0.44884685  0.25662115  1.0
  C  C235  1  0.02113797  0.44568895  0.22390401  1.0
  C  C236  1  0.76742971  0.49284789  0.30344694  1.0
  C  C237  1  0.98553733  0.84681590  0.26142889  1.0
  C  C238  1  0.32253835  0.41520979  0.87035653  1.0
  C  C239  1  0.40629118  0.02297052  0.24954223  1.0
  C  C240  1  0.41478100  0.94727458  0.27833216  1.0
  C  C241  1  0.52599009  0.78807019  0.39837113  1.0
  C  C242  1  0.93755176  0.80633707  0.31209782  1.0
  C  C243  1  0.47150862  0.83108289  0.35176317  1.0
  C  C244  1  0.27488023  0.06964232  0.12820070  1.0
  C  C245  1  0.46278957  0.90509448  0.32542855  1.0
  C  C246  1  0.32164961  0.02725344  0.18172448  1.0
  C  C247  1  0.36669077  0.46381991  0.83253607  1.0
  C  C248  1  0.43048385  0.79664366  0.33269653  1.0
  C  C249  1  0.32813003  0.95385413  0.20958299  1.0
  C  C250  1  0.37435653  0.91212949  0.25825909  1.0
  C  C251  1  0.36067878  0.06219590  0.20240140  1.0
  C  C252  1  0.38297017  0.83647759  0.28721902  1.0
  C  C253  1  0.30073725  0.31624159  0.06551399  1.0
  C  C254  1  0.31894494  0.40241831  0.11223499  1.0
  C  C255  1  0.41681107  0.27898942  0.11158357  1.0
  N  N256  1  0.65513107  0.66716643  0.90650527  1.0
  N  N257  1  0.34486904  0.33283322  0.09349386  1.0
  O  O258  1  0.33111368  0.31634098  0.49839273  1.0
  O  O259  1  0.82980625  0.81545548  0.99948287  1.0
  O  O260  1  0.00579012  0.84786383  0.90439285  1.0
  O  O261  1  0.16384282  0.42125082  0.46289023  1.0
  O  O262  1  0.41688414  0.16595686  0.44921921  1.0
  O  O263  1  0.18889162  0.40312604  0.60898258  1.0
  O  O264  1  0.27382477  0.17197260  0.59211102  1.0
  O  O265  1  0.90787747  0.95213934  0.92419906  1.0
  O  O266  1  0.30820876  0.41648240  0.60215094  1.0
  O  O267  1  0.43574019  0.42645041  0.45643022  1.0
  O  O268  1  0.98079276  0.70397068  0.90999559  1.0
  O  O269  1  0.72447372  0.73601425  0.14857578  1.0
  O  O270  1  0.46260295  0.28107941  0.58253424  1.0
  O  O271  1  0.74796479  0.97259316  0.04238187  1.0
  O  O272  1  0.99974758  0.72563674  0.04291707  1.0
  O  O273  1  0.75082418  0.96714311  0.89384816  1.0
  O  O274  1  0.43501015  0.40392882  0.35717403  1.0
  O  O275  1  0.89598889  0.74149991  0.14037584  1.0
  O  O276  1  0.75050853  0.88164304  0.14146314  1.0
  O  O277  1  0.44187870  0.17656694  0.58456728  1.0
  O  O278  1  0.16503510  0.27171639  0.58619313  1.0
  O  O279  1  0.86146388  0.70527545  0.90112492  1.0
  O  O280  1  0.26390292  0.40081066  0.36413491  1.0
  O  O281  1  0.42160536  0.25879681  0.35200950  1.0
  O  O282  1  0.45128008  0.36613560  0.22057416  1.0
  O  O283  1  0.76187528  0.68819189  0.05418338  1.0
  O  O284  1  0.73492128  0.86226341  0.89141851  1.0
  O  O285  1  0.68196575  0.74417018  0.94809657  1.0
  O  O286  1  0.66888897  0.68365976  0.50160715  1.0
  O  O287  1  0.17019183  0.18454689  0.00051506  1.0
  O  O288  1  0.99421127  0.15213746  0.09561633  1.0
  O  O289  1  0.83615348  0.57874447  0.53711104  1.0
  O  O290  1  0.58311660  0.83403898  0.55078287  1.0
  O  O291  1  0.81110052  0.59688232  0.39101290  1.0
  O  O292  1  0.72618447  0.82803143  0.40790481  1.0
  O  O293  1  0.09212149  0.04786031  0.07580139  1.0
  O  O294  1  0.69178461  0.58352923  0.39783785  1.0
  O  O295  1  0.56425268  0.57355578  0.54357052  1.0
  O  O296  1  0.01921009  0.29603823  0.08998726  1.0
  O  O297  1  0.27553515  0.26397778  0.85142543  1.0
  O  O298  1  0.53740366  0.71891425  0.41746430  1.0
  O  O299  1  0.25203532  0.02740649  0.95761726  1.0
  O  O300  1  0.00024278  0.27437381  0.95708830  1.0
  O  O301  1  0.24917900  0.03285763  0.10614487  1.0
  O  O302  1  0.56498887  0.59606702  0.64283002  1.0
  O  O303  1  0.10400714  0.25851282  0.85962942  1.0
  O  O304  1  0.24949773  0.11835717  0.85853196  1.0
  O  O305  1  0.55813165  0.82343108  0.41541959  1.0
  O  O306  1  0.83496865  0.72828109  0.41381701  1.0
  O  O307  1  0.13853585  0.29473074  0.09886696  1.0
  O  O308  1  0.73609161  0.59918300  0.63587174  1.0
  O  O309  1  0.57839562  0.74120012  0.64799262  1.0
  O  O310  1  0.54870602  0.63386459  0.77942828  1.0
  O  O311  1  0.23813214  0.31180286  0.94581598  1.0
  O  O312  1  0.26509859  0.13773190  0.10856861  1.0
  O  O313  1  0.31804079  0.25583274  0.05189660  1.0
