# generated using pymatgen
data_ZnH12C19NO4
_symmetry_space_group_name_H-M   'P 1'
_cell_length_a   13.95475259
_cell_length_b   15.32263920
_cell_length_c   15.35648262
_cell_angle_alpha   88.16285109
_cell_angle_beta   85.25329308
_cell_angle_gamma   85.62536590
_symmetry_Int_Tables_number   1
_chemical_formula_structural   ZnH12C19NO4
_chemical_formula_sum   'Zn4 H48 C76 N4 O16'
_cell_volume   3261.68821486
_cell_formula_units_Z   4
loop_
 _symmetry_equiv_pos_site_id
 _symmetry_equiv_pos_as_xyz
  1  'x, y, z'
loop_
 _atom_site_type_symbol
 _atom_site_label
 _atom_site_symmetry_multiplicity
 _atom_site_fract_x
 _atom_site_fract_y
 _atom_site_fract_z
 _atom_site_occupancy
  Zn  Zn0  1  0.10858177  0.40024754  0.16345636  1.0
  Zn  Zn1  1  0.31152966  0.38608251  0.14882957  1.0
  Zn  Zn2  1  0.89141835  0.59975462  0.83654208  1.0
  Zn  Zn3  1  0.68847029  0.61391764  0.85117083  1.0
  H  H4  1  0.07287999  0.12591495  0.23703689  1.0
  H  H5  1  0.07170574  0.96351623  0.24288653  1.0
  H  H6  1  0.35634542  0.94408479  0.10882657  1.0
  H  H7  1  0.36443285  0.81771476  0.18004545  1.0
  H  H8  1  0.35810642  0.10626896  0.10897415  1.0
  H  H9  1  0.35945328  0.65666345  0.16872471  1.0
  H  H10  1  0.05292297  0.68757311  0.15544134  1.0
  H  H11  1  0.05647345  0.84835512  0.16388480  1.0
  H  H12  1  0.06367394  0.38963331  0.89317620  1.0
  H  H13  1  0.37251087  0.38554289  0.86093229  1.0
  H  H14  1  0.36689727  0.38622214  0.69980844  1.0
  H  H15  1  0.05640514  0.38746083  0.73349168  1.0
  H  H16  1  0.06807151  0.46059800  0.60970998  1.0
  H  H17  1  0.06311855  0.46305048  0.44823622  1.0
  H  H18  1  0.97260593  0.39547234  0.02517485  1.0
  H  H19  1  0.94191803  0.39741417  0.29522861  1.0
  H  H20  1  0.76344855  0.39454837  0.29839537  1.0
  H  H21  1  0.79691282  0.38624190  0.01556376  1.0
  H  H22  1  0.63164881  0.33544646  0.28733142  1.0
  H  H23  1  0.65200008  0.43684501  0.02003871  1.0
  H  H24  1  0.45352447  0.33747147  0.27840056  1.0
  H  H25  1  0.47458989  0.42557144  0.02120984  1.0
  H  H26  1  0.34048303  0.32136754  0.42189003  1.0
  H  H27  1  0.34490298  0.31417899  0.58316729  1.0
  H  H28  1  0.92711858  0.87408531  0.76296286  1.0
  H  H29  1  0.92829349  0.03648397  0.75711388  1.0
  H  H30  1  0.64365387  0.05591673  0.89117317  1.0
  H  H31  1  0.63556758  0.18228593  0.81995757  1.0
  H  H32  1  0.64189214  0.89373196  0.89102560  1.0
  H  H33  1  0.64054704  0.34333721  0.83127962  1.0
  H  H34  1  0.94707925  0.31242562  0.84455776  1.0
  H  H35  1  0.94352817  0.15164500  0.83611299  1.0
  H  H36  1  0.93632751  0.61036611  0.10682355  1.0
  H  H37  1  0.62749009  0.61445664  0.13906484  1.0
  H  H38  1  0.63310142  0.61377815  0.30019000  1.0
  H  H39  1  0.94359486  0.61253999  0.26650807  1.0
  H  H40  1  0.93192634  0.53940166  0.39028977  1.0
  H  H41  1  0.93687858  0.53695119  0.55176353  1.0
  H  H42  1  0.02739286  0.60453256  0.97482228  1.0
  H  H43  1  0.05808503  0.60258324  0.70476918  1.0
  H  H44  1  0.23655357  0.60544380  0.70160504  1.0
  H  H45  1  0.20308520  0.61376303  0.98443402  1.0
  H  H46  1  0.36835199  0.66454584  0.71266769  1.0
  H  H47  1  0.34799790  0.56316424  0.97996756  1.0
  H  H48  1  0.54647704  0.66251752  0.72159856  1.0
  H  H49  1  0.52540826  0.57443655  0.97879448  1.0
  H  H50  1  0.65951349  0.67863356  0.57810841  1.0
  H  H51  1  0.65509577  0.68582198  0.41683050  1.0
  C  C52  1  0.21477547  0.22366253  0.16652219  1.0
  C  C53  1  0.21521325  0.12587886  0.17204815  1.0
  C  C54  1  0.13470342  0.08505141  0.20967271  1.0
  C  C55  1  0.13420081  0.99426858  0.21182587  1.0
  C  C56  1  0.29454926  0.98325128  0.13883335  1.0
  C  C57  1  0.20452208  0.56475600  0.15413868  1.0
  C  C58  1  0.20615635  0.66193996  0.16069553  1.0
  C  C59  1  0.29591392  0.78981861  0.17331870  1.0
  C  C60  1  0.29571473  0.07394554  0.13781820  1.0
  C  C61  1  0.29366329  0.69967017  0.16745560  1.0
  C  C62  1  0.12094814  0.71667666  0.16060020  1.0
  C  C63  1  0.12330313  0.80687779  0.16623444  1.0
  C  C64  1  0.21085684  0.84547309  0.17227876  1.0
  C  C65  1  0.21345106  0.94155230  0.17513380  1.0
  C  C66  1  0.22142592  0.39019473  0.98458048  1.0
  C  C67  1  0.21860683  0.38673381  0.88753171  1.0
  C  C68  1  0.13009489  0.38737601  0.85050449  1.0
  C  C69  1  0.30374300  0.38525903  0.83213572  1.0
  C  C70  1  0.30009678  0.38500818  0.74193852  1.0
  C  C71  1  0.12635225  0.38703401  0.76043098  1.0
  C  C72  1  0.21135601  0.38610819  0.70423739  1.0
  C  C73  1  0.20751033  0.38802256  0.60850201  1.0
  C  C74  1  0.12785129  0.42916620  0.56895836  1.0
  C  C75  1  0.12487895  0.43115318  0.47855498  1.0
  C  C76  1  0.20189289  0.39316415  0.42483904  1.0
  C  C77  1  0.92304692  0.39394273  0.08376006  1.0
  C  C78  1  0.90565002  0.39526735  0.23513757  1.0
  C  C79  1  0.80647140  0.39220280  0.23596850  1.0
  C  C80  1  0.76365475  0.38910410  0.15664768  1.0
  C  C81  1  0.82471460  0.38953374  0.07937383  1.0
  C  C82  1  0.65838795  0.38619308  0.15412868  1.0
  C  C83  1  0.60043779  0.35787557  0.22714861  1.0
  C  C84  1  0.61230841  0.41178276  0.07842984  1.0
  C  C85  1  0.50150758  0.35743814  0.22285366  1.0
  C  C86  1  0.51323807  0.40786286  0.07883854  1.0
  C  C87  1  0.20047949  0.39607354  0.32733115  1.0
  C  C88  1  0.28134666  0.35195204  0.46375011  1.0
  C  C89  1  0.28383001  0.34888748  0.55403431  1.0
  C  C90  1  0.78522304  0.77633838  0.83347822  1.0
  C  C91  1  0.78478609  0.87412202  0.82795094  1.0
  C  C92  1  0.86529515  0.91494885  0.79032704  1.0
  C  C93  1  0.86579854  0.00573166  0.78817323  1.0
  C  C94  1  0.70545014  0.01674963  0.86116509  1.0
  C  C95  1  0.79547787  0.43524415  0.84586172  1.0
  C  C96  1  0.79384635  0.33805996  0.83930618  1.0
  C  C97  1  0.70408579  0.21018148  0.82668432  1.0
  C  C98  1  0.70428240  0.92605547  0.86218155  1.0
  C  C99  1  0.70633858  0.30033042  0.83254742  1.0
  C  C100  1  0.87905325  0.28332339  0.83940020  1.0
  C  C101  1  0.87669766  0.19312038  0.83376466  1.0
  C  C102  1  0.78914454  0.15452762  0.82772164  1.0
  C  C103  1  0.78654751  0.05844862  0.82486595  1.0
  C  C104  1  0.77857779  0.60980522  0.01541796  1.0
  C  C105  1  0.78139240  0.61326508  0.11246870  1.0
  C  C106  1  0.86990872  0.61262326  0.14949526  1.0
  C  C107  1  0.69626005  0.61474034  0.16786207  1.0
  C  C108  1  0.69990341  0.61499138  0.25805927  1.0
  C  C109  1  0.87364632  0.61296625  0.23956877  1.0
  C  C110  1  0.78864339  0.61389271  0.29576105  1.0
  C  C111  1  0.79248764  0.61197713  0.39149643  1.0
  C  C112  1  0.87214507  0.57083289  0.43104204  1.0
  C  C113  1  0.87511818  0.56884654  0.52144477  1.0
  C  C114  1  0.79810436  0.60683756  0.57515941  1.0
  C  C115  1  0.07695110  0.60605829  0.91623773  1.0
  C  C116  1  0.09435160  0.60473016  0.76486022  1.0
  C  C117  1  0.19353155  0.60779327  0.76403061  1.0
  C  C118  1  0.23634598  0.61089406  0.84335207  1.0
  C  C119  1  0.17528541  0.61046643  0.92062592  1.0
  C  C120  1  0.34161266  0.61380701  0.84587237  1.0
  C  C121  1  0.39956205  0.64211998  0.77285311  1.0
  C  C122  1  0.38768903  0.58822136  0.92157448  1.0
  C  C123  1  0.49849376  0.64255733  0.77714740  1.0
  C  C124  1  0.48676164  0.59214049  0.92116448  1.0
  C  C125  1  0.79951831  0.60392807  0.67266925  1.0
  C  C126  1  0.71865208  0.64804893  0.53624768  1.0
  C  C127  1  0.71616640  0.65111293  0.44596544  1.0
  N  N128  1  0.96299283  0.39656502  0.16034462  1.0
  N  N129  1  0.45848133  0.38209566  0.14989389  1.0
  N  N130  1  0.03700801  0.60343513  0.83965383  1.0
  N  N131  1  0.54151701  0.61790193  0.85010847  1.0
  O  O132  1  0.30240518  0.40074922  0.01424421  1.0
  O  O133  1  0.14203822  0.38328529  0.03068025  1.0
  O  O134  1  0.13528727  0.26741875  0.18712109  1.0
  O  O135  1  0.29420059  0.25595829  0.14068204  1.0
  O  O136  1  0.28011105  0.37545549  0.28347125  1.0
  O  O137  1  0.12048095  0.41879728  0.29542233  1.0
  O  O138  1  0.28517361  0.52000927  0.15718386  1.0
  O  O139  1  0.12366705  0.53384763  0.14505206  1.0
  O  O140  1  0.69759615  0.59924951  0.98575685  1.0
  O  O141  1  0.85796256  0.61671484  0.96931885  1.0
  O  O142  1  0.86471268  0.73258271  0.81287932  1.0
  O  O143  1  0.70580002  0.74404180  0.85931902  1.0
  O  O144  1  0.71988829  0.62454670  0.71652785  1.0
  O  O145  1  0.87951708  0.58120439  0.70457545  1.0
  O  O146  1  0.71482999  0.47998934  0.84281589  1.0
  O  O147  1  0.87633721  0.46615419  0.85494834  1.0
