# generated using pymatgen
data_Zn2H15C16O9
_symmetry_space_group_name_H-M   'P 1'
_cell_length_a   18.26501734
_cell_length_b   18.30096796
_cell_length_c   18.31278194
_cell_angle_alpha   60.25660848
_cell_angle_beta   60.08727571
_cell_angle_gamma   60.08680762
_symmetry_Int_Tables_number   1
_chemical_formula_structural   Zn2H15C16O9
_chemical_formula_sum   'Zn8 H60 C64 O36'
_cell_volume   4342.51152723
_cell_formula_units_Z   4
loop_
 _symmetry_equiv_pos_site_id
 _symmetry_equiv_pos_as_xyz
  1  'x, y, z'
loop_
 _atom_site_type_symbol
 _atom_site_label
 _atom_site_symmetry_multiplicity
 _atom_site_fract_x
 _atom_site_fract_y
 _atom_site_fract_z
 _atom_site_occupancy
  Zn  Zn0  1  0.70512168  0.38261597  0.20248647  1.0
  Zn  Zn1  1  0.29181949  0.79210897  0.79580534  1.0
  Zn  Zn2  1  0.87667792  0.21055699  0.20919391  1.0
  Zn  Zn3  1  0.70342466  0.20680493  0.20823996  1.0
  Zn  Zn4  1  0.11933928  0.79575377  0.79400920  1.0
  Zn  Zn5  1  0.70006586  0.21017224  0.38309425  1.0
  Zn  Zn6  1  0.29548350  0.61764430  0.78721964  1.0
  Zn  Zn7  1  0.29160126  0.79463096  0.61818925  1.0
  H  H8  1  0.47930400  0.36654100  0.54350303  1.0
  H  H9  1  0.49383590  0.57024281  0.34176686  1.0
  H  H10  1  0.77869826  0.92159922  0.51373579  1.0
  H  H11  1  0.74450338  0.95741942  0.42156493  1.0
  H  H12  1  0.74132503  0.85157617  0.50701808  1.0
  H  H13  1  0.11266156  0.59257406  0.04044564  1.0
  H  H14  1  0.20430052  0.50387366  0.07730841  1.0
  H  H15  1  0.09083580  0.50620103  0.14596387  1.0
  H  H16  1  0.21471991  0.07005373  0.48746990  1.0
  H  H17  1  0.12486906  0.03451024  0.58124683  1.0
  H  H18  1  0.10021112  0.13990955  0.49560255  1.0
  H  H19  1  0.74304058  0.08453584  0.07149647  1.0
  H  H20  1  0.40975137  0.66165590  0.43073350  1.0
  H  H21  1  0.70716616  0.99536943  0.16568119  1.0
  H  H22  1  0.77973302  0.97778031  0.05992571  1.0
  H  H23  1  0.94769916  0.78407309  0.14509830  1.0
  H  H24  1  0.04292873  0.76324676  0.04841963  1.0
  H  H25  1  0.94166467  0.75070542  0.07122831  1.0
  H  H26  1  0.34042111  0.54034866  0.55081883  1.0
  H  H27  1  0.42780326  0.44916060  0.46231062  1.0
  H  H28  1  0.62026446  0.36710311  0.53736814  1.0
  H  H29  1  0.66589549  0.45244414  0.45415899  1.0
  H  H30  1  0.57869408  0.53833478  0.54782253  1.0
  H  H31  1  0.59255895  0.57087667  0.33584054  1.0
  H  H32  1  0.52979662  0.45511139  0.63033568  1.0
  H  H33  1  0.49831584  0.44530518  0.90151266  1.0
  H  H34  1  0.38349074  0.01765783  0.45672646  1.0
  H  H35  1  0.86090990  0.54080050  0.97610852  1.0
  H  H36  1  0.85218438  0.98195272  0.54627705  1.0
  H  H37  1  0.50840706  0.65877216  0.42837687  1.0
  H  H38  1  0.15283518  0.00223096  0.90397510  1.0
  H  H39  1  0.05574479  0.10259057  0.99750155  1.0
  H  H40  1  0.55007157  0.28820056  0.96678260  1.0
  H  H41  1  0.56856695  0.23304684  0.07240335  1.0
  H  H42  1  0.66040529  0.21811962  0.97214409  1.0
  H  H43  1  0.38982496  0.45751809  0.63351679  1.0
  H  H44  1  0.41205836  0.23759298  0.38485968  1.0
  H  H45  1  0.33974145  0.19233939  0.39269197  1.0
  H  H46  1  0.40269791  0.25165531  0.28533521  1.0
  H  H47  1  0.95145500  0.58610037  0.79122178  1.0
  H  H48  1  0.05823805  0.59391069  0.75990007  1.0
  H  H49  1  0.96973930  0.69217024  0.72639737  1.0
  H  H50  1  0.81256490  0.92445252  0.71600238  1.0
  H  H51  1  0.89191042  0.91473181  0.75434236  1.0
  H  H52  1  0.86923454  0.81770441  0.78225153  1.0
  H  H53  1  0.37541782  0.72202706  0.99251652  1.0
  H  H54  1  0.28974788  0.68119967  0.02902437  1.0
  H  H55  1  0.33414886  0.66086239  0.10740164  1.0
  H  H56  1  0.53262820  0.78984714  0.67432524  1.0
  H  H57  1  0.60666489  0.83716685  0.65887174  1.0
  H  H58  1  0.49150285  0.87077907  0.72317346  1.0
  H  H59  1  0.98968135  0.34541996  0.21449057  1.0
  H  H60  1  0.07648419  0.28736174  0.14022448  1.0
  H  H61  1  0.09818607  0.35577326  0.16464684  1.0
  H  H62  1  0.99434655  0.20984653  0.33662305  1.0
  H  H63  1  0.10214231  0.15688061  0.34937989  1.0
  H  H64  1  0.07880566  0.13068232  0.28370828  1.0
  H  H65  1  0.57935639  0.58434285  0.08207272  1.0
  H  H66  1  0.49323253  0.61829479  0.17620436  1.0
  H  H67  1  0.47670726  0.67433102  0.06997739  1.0
  C  C68  1  0.88152228  0.11434672  0.39437772  1.0
  C  C69  1  0.44896652  0.94206513  0.55561566  1.0
  C  C70  1  0.91436854  0.99080415  0.52865602  1.0
  C  C71  1  0.59730751  0.26553645  0.00029687  1.0
  C  C72  1  0.40342965  0.20632071  0.35271617  1.0
  C  C73  1  0.98522290  0.62868458  0.77951054  1.0
  C  C74  1  0.87556709  0.88159173  0.73083974  1.0
  C  C75  1  0.35103754  0.66523390  0.03919233  1.0
  C  C76  1  0.94521894  0.45015302  0.05812430  1.0
  C  C77  1  0.53905619  0.85123845  0.66350791  1.0
  C  C78  1  0.04794942  0.35034505  0.15322525  1.0
  C  C79  1  0.05038714  0.14698348  0.34478919  1.0
  C  C80  1  0.50664155  0.60983387  0.11498513  1.0
  C  C81  1  0.73177417  0.92101684  0.49354613  1.0
  C  C82  1  0.13783216  0.52083138  0.07690311  1.0
  C  C83  1  0.94035323  0.05892425  0.45100098  1.0
  C  C84  1  0.14676260  0.07049426  0.50898771  1.0
  C  C85  1  0.76231788  0.01176715  0.10465768  1.0
  C  C86  1  0.96918814  0.78928716  0.07526750  1.0
  C  C87  1  0.43027716  0.54848971  0.96072405  1.0
  C  C88  1  0.42048219  0.57915183  0.02341200  1.0
  C  C89  1  0.51940851  0.92433993  0.58078934  1.0
  C  C90  1  0.02169567  0.42857525  0.07604377  1.0
  C  C91  1  0.88655377  0.39340026  0.11380027  1.0
  C  C92  1  0.02020173  0.07333469  0.42577417  1.0
  C  C93  1  0.47733490  0.52339605  0.07514954  1.0
  C  C94  1  0.57474377  0.97750391  0.52294822  1.0
  C  C95  1  0.07337790  0.48521613  0.01898819  1.0
  C  C96  1  0.07282144  0.01559063  0.48147404  1.0
  C  C97  1  0.38510475  0.89079442  0.61265209  1.0
  C  C98  1  0.54151900  0.44095450  0.06486024  1.0
  C  C99  1  0.56020434  0.04665286  0.44427673  1.0
  C  C100  1  0.05193073  0.55859760  0.94541123  1.0
  C  C101  1  0.04856063  0.94528320  0.55841596  1.0
  C  C102  1  0.37881766  0.60574903  0.89700089  1.0
  C  C103  1  0.91444290  0.99320601  0.06703617  1.0
  C  C104  1  0.96851527  0.93774070  0.01349484  1.0
  C  C105  1  0.05418656  0.94245558  0.95375400  1.0
  C  C106  1  0.94562894  0.05438945  0.05856732  1.0
  C  C107  1  0.08575459  0.00096175  0.94937245  1.0
  C  C108  1  0.03209245  0.05639751  0.00108744  1.0
  C  C109  1  0.60258766  0.38401303  0.11909020  1.0
  C  C110  1  0.61579543  0.10665943  0.38736619  1.0
  C  C111  1  0.11021812  0.61573679  0.88428375  1.0
  C  C112  1  0.10663572  0.88452561  0.61560652  1.0
  C  C113  1  0.88803628  0.11728869  0.11076429  1.0
  C  C114  1  0.11267407  0.88778738  0.89313054  1.0
  C  C115  1  0.60880509  0.39655789  0.38356908  1.0
  C  C116  1  0.39708764  0.61386206  0.60343627  1.0
  C  C117  1  0.46345964  0.43755209  0.50292192  1.0
  C  C118  1  0.52992161  0.55682054  0.38276440  1.0
  C  C119  1  0.47346378  0.61615778  0.44295820  1.0
  C  C120  1  0.40492454  0.49775570  0.56245698  1.0
  C  C121  1  0.60266245  0.43845239  0.49820982  1.0
  C  C122  1  0.54401994  0.49665722  0.55965585  1.0
  C  C123  1  0.55205022  0.45770243  0.44015008  1.0
  C  C124  1  0.45420480  0.55778970  0.54180879  1.0
  C  C125  1  0.54942728  0.41271552  0.00178405  1.0
  C  C126  1  0.49064381  0.06109311  0.42052829  1.0
  C  C127  1  0.97529029  0.57821116  0.92962278  1.0
  C  C128  1  0.96855477  0.93313396  0.58170902  1.0
  C  C129  1  0.49246282  0.46580621  0.95132234  1.0
  C  C130  1  0.43618865  0.00819817  0.47576550  1.0
  C  C131  1  0.92146551  0.52479590  0.98694293  1.0
  O  O132  1  0.74602374  0.25219757  0.25203355  1.0
  O  O133  1  0.80227661  0.43412064  0.13126091  1.0
  O  O134  1  0.35335712  0.87894425  0.57242729  1.0
  O  O135  1  0.35495965  0.56633506  0.87538298  1.0
  O  O136  1  0.64661432  0.42146977  0.11751502  1.0
  O  O137  1  0.61532429  0.14945427  0.42531763  1.0
  O  O138  1  0.19079370  0.57832307  0.84217382  1.0
  O  O139  1  0.18913959  0.84809611  0.57719019  1.0
  O  O140  1  0.25068613  0.74891199  0.74919707  1.0
  O  O141  1  0.92566171  0.30898278  0.13790156  1.0
  O  O142  1  0.92054860  0.14355753  0.31059411  1.0
  O  O143  1  0.36536273  0.68921847  0.86767235  1.0
  O  O144  1  0.36617333  0.86447830  0.69689651  1.0
  O  O145  1  0.65799945  0.11012262  0.30609728  1.0
  O  O146  1  0.60624124  0.30267847  0.16169384  1.0
  O  O147  1  0.06779974  0.87560850  0.69850005  1.0
  O  O148  1  0.07297128  0.69728527  0.88056741  1.0
  O  O149  1  0.92798104  0.13046438  0.14161822  1.0
  O  O150  1  0.19724496  0.86067830  0.87642184  1.0
  O  O151  1  0.63484545  0.31292012  0.42555225  1.0
  O  O152  1  0.62558688  0.43322346  0.29938046  1.0
  O  O153  1  0.37459257  0.69840980  0.56715909  1.0
  O  O154  1  0.37629327  0.57132095  0.68731215  1.0
  O  O155  1  0.80545891  0.15420820  0.11780111  1.0
  O  O156  1  0.79754863  0.12676357  0.43398110  1.0
  O  O157  1  0.07410693  0.87437935  0.86149787  1.0
  O  O158  1  0.61980623  0.33765858  0.98541065  1.0
  O  O159  1  0.47812122  0.12658749  0.34192906  1.0
  O  O160  1  0.95349836  0.65078462  0.85796366  1.0
  O  O161  1  0.94818854  0.86041953  0.65328553  1.0
  O  O162  1  0.46669152  0.54532495  0.14280773  1.0
  O  O163  1  0.64344098  0.96275951  0.54609000  1.0
  O  O164  1  0.14902429  0.46658543  0.03387067  1.0
  O  O165  1  0.15146847  0.02770241  0.45830071  1.0
  O  O166  1  0.83637437  0.98116433  0.13330454  1.0
  O  O167  1  0.93463630  0.88021548  0.02282632  1.0
