# generated using pymatgen
data_Zn2H10C37S6(O13F3)2
_symmetry_space_group_name_H-M   'P 1'
_cell_length_a   16.26833658
_cell_length_b   16.41657611
_cell_length_c   28.76042239
_cell_angle_alpha   90.41926985
_cell_angle_beta   89.81660538
_cell_angle_gamma   89.82746469
_symmetry_Int_Tables_number   1
_chemical_formula_structural   Zn2H10C37S6(O13F3)2
_chemical_formula_sum   'Zn4 H20 C74 S12 O52 F12'
_cell_volume   7680.77673061
_cell_formula_units_Z   2
loop_
 _symmetry_equiv_pos_site_id
 _symmetry_equiv_pos_as_xyz
  1  'x, y, z'
loop_
 _atom_site_type_symbol
 _atom_site_label
 _atom_site_symmetry_multiplicity
 _atom_site_fract_x
 _atom_site_fract_y
 _atom_site_fract_z
 _atom_site_occupancy
  Zn  Zn0  1  0.50368615  0.08472480  0.50181877  1.0
  Zn  Zn1  1  0.50009475  0.91754574  0.49919962  1.0
  Zn  Zn2  1  0.08729900  0.50587460  0.99989926  1.0
  Zn  Zn3  1  0.91856322  0.50552781  0.00027068  1.0
  H  H4  1  0.05334842  0.39139054  0.13641926  1.0
  H  H5  1  0.87269891  0.73056687  0.92596965  1.0
  H  H6  1  0.26260315  0.87541168  0.42891740  1.0
  H  H7  1  0.59875475  0.01936404  0.64719203  1.0
  H  H8  1  0.71884792  0.14861230  0.42010674  1.0
  H  H9  1  0.26665715  0.92947718  0.55839557  1.0
  H  H10  1  0.26914700  0.08494460  0.30519733  1.0
  H  H11  1  0.88462570  0.92844432  0.61327501  1.0
  H  H12  1  0.39435262  0.18023039  0.30110588  1.0
  H  H13  1  0.91762263  0.87620512  0.53774091  1.0
  H  H14  1  0.08611678  0.41061770  0.23421531  1.0
  H  H15  1  0.73974434  0.82287960  0.89150350  1.0
  H  H16  1  0.78950361  0.78530435  0.19388395  1.0
  H  H17  1  0.21801165  0.15458769  0.94227650  1.0
  H  H18  1  0.75601474  0.17057015  0.09131661  1.0
  H  H19  1  0.20139762  0.65391483  0.81521143  1.0
  H  H20  1  0.79242952  0.28090332  0.37742797  1.0
  H  H21  1  0.17946247  0.79362314  0.56890356  1.0
  H  H22  1  0.84699172  0.10963247  0.04031380  1.0
  H  H23  1  0.10933622  0.58700207  0.77545559  1.0
  C  C24  1  0.61173961  0.96380434  0.56056704  1.0
  C  C25  1  0.39313333  0.97183081  0.43768746  1.0
  C  C26  1  0.97391636  0.67202527  0.13661307  1.0
  C  C27  1  0.09774075  0.26705535  0.90385763  1.0
  C  C28  1  0.07504287  0.80627895  0.13217345  1.0
  C  C29  1  0.96245151  0.24878654  0.84775831  1.0
  C  C30  1  0.08328160  0.74385248  0.09946155  1.0
  C  C31  1  0.96695198  0.31470334  0.87830674  1.0
  C  C32  1  0.92108329  0.19556061  0.12590453  1.0
  C  C33  1  0.04064621  0.73085684  0.82921236  1.0
  C  C34  1  0.92123476  0.25256413  0.08958887  1.0
  C  C35  1  0.02949224  0.66199295  0.85718926  1.0
  C  C36  1  0.19938064  0.92998268  0.37145157  1.0
  C  C37  1  0.72095771  0.00315551  0.67312462  1.0
  C  C38  1  0.26414617  0.92207397  0.40223786  1.0
  C  C39  1  0.66039754  0.99675796  0.63962282  1.0
  C  C40  1  0.79069347  0.09371965  0.36507397  1.0
  C  C41  1  0.19279268  0.96348469  0.61769044  1.0
  C  C42  1  0.72698969  0.09631167  0.39715462  1.0
  C  C43  1  0.25891495  0.97112124  0.58760928  1.0
  C  C44  1  0.00168707  0.00809699  0.24942153  1.0
  C  C45  1  0.99769369  0.00175323  0.75249959  1.0
  C  C46  1  0.60842164  0.03291787  0.43863768  1.0
  C  C47  1  0.38924468  0.03365825  0.56098151  1.0
  C  C48  1  0.19866787  0.98978906  0.33677377  1.0
  C  C49  1  0.80246593  0.97879987  0.66454062  1.0
  C  C50  1  0.33069716  0.97544526  0.39969921  1.0
  C  C51  1  0.67944431  0.96340397  0.59597068  1.0
  C  C52  1  0.80247599  0.02475440  0.33577498  1.0
  C  C53  1  0.18384816  0.01595955  0.65686325  1.0
  C  C54  1  0.67251748  0.03075182  0.40172696  1.0
  C  C55  1  0.31779840  0.03252505  0.59382127  1.0
  C  C56  1  0.97644498  0.20410204  0.16389330  1.0
  C  C57  1  0.98710988  0.79921163  0.83417765  1.0
  C  C58  1  0.96716630  0.32479389  0.09457105  1.0
  C  C59  1  0.97224226  0.66480292  0.89417359  1.0
  C  C60  1  0.01568910  0.80322619  0.16780211  1.0
  C  C61  1  0.02496610  0.18975663  0.84494006  1.0
  C  C62  1  0.03145976  0.67609100  0.10027694  1.0
  C  C63  1  0.03540452  0.32587189  0.90739984  1.0
  C  C64  1  0.07425930  0.00624811  0.27987789  1.0
  C  C65  1  0.92227840  0.99897456  0.72428188  1.0
  C  C66  1  0.99847789  0.08152229  0.22029613  1.0
  C  C67  1  0.99922201  0.92831990  0.78161414  1.0
  C  C68  1  0.26766961  0.04092134  0.33322700  1.0
  C  C69  1  0.82105740  0.94541942  0.62052492  1.0
  C  C70  1  0.92721248  0.00919789  0.27859517  1.0
  C  C71  1  0.06779930  0.00376489  0.71987189  1.0
  C  C72  1  0.00502719  0.93495990  0.21941742  1.0
  C  C73  1  0.00212617  0.07290941  0.78385501  1.0
  C  C74  1  0.13167162  0.99798712  0.30616556  1.0
  C  C75  1  0.86511636  0.98957383  0.69789048  1.0
  C  C76  1  0.00856796  0.87205059  0.19720983  1.0
  C  C77  1  0.01500649  0.12551808  0.81263758  1.0
  C  C78  1  0.98691486  0.14024478  0.19586975  1.0
  C  C79  1  0.99505187  0.86859234  0.80597596  1.0
  C  C80  1  0.86851514  0.01729047  0.30422348  1.0
  C  C81  1  0.12061703  0.00860773  0.69022349  1.0
  C  C82  1  0.03272483  0.61327724  0.06231010  1.0
  C  C83  1  0.03823173  0.39469257  0.94135333  1.0
  C  C84  1  0.96769533  0.39433224  0.06047061  1.0
  C  C85  1  0.97223782  0.60563153  0.93391840  1.0
  C  C86  1  0.33263710  0.03437644  0.36418967  1.0
  C  C87  1  0.76038491  0.93734124  0.58679454  1.0
  C  C88  1  0.74613047  0.96087455  0.33982877  1.0
  C  C89  1  0.24270876  0.07773920  0.66223684  1.0
  C  C90  1  0.68228494  0.96307040  0.37228751  1.0
  C  C91  1  0.30816866  0.08665614  0.63108048  1.0
  C  C92  1  0.02361535  0.27594908  0.16703000  1.0
  C  C93  1  0.92359691  0.79555706  0.86775259  1.0
  C  C94  1  0.01724954  0.33589570  0.13354791  1.0
  C  C95  1  0.91836121  0.73075521  0.89826487  1.0
  C  C96  1  0.96587199  0.73253201  0.17072387  1.0
  C  C97  1  0.09409215  0.19951095  0.87431051  1.0
  S  S98  1  0.42050981  0.09867191  0.35640122  1.0
  S  S99  1  0.78718490  0.89579992  0.53110628  1.0
  S  S100  1  0.09523380  0.28589917  0.21414930  1.0
  S  S101  1  0.85214195  0.87877965  0.87141371  1.0
  S  S102  1  0.89366670  0.71825390  0.21718035  1.0
  S  S103  1  0.17908832  0.12972585  0.87294442  1.0
  S  S104  1  0.85057251  0.11071764  0.13431626  1.0
  S  S105  1  0.12270927  0.75106227  0.78735115  1.0
  S  S106  1  0.86220876  0.17531382  0.35954010  1.0
  S  S107  1  0.11859048  0.88477580  0.60941520  1.0
  S  S108  1  0.87383028  0.23516757  0.03321863  1.0
  S  S109  1  0.07812577  0.56436660  0.84583027  1.0
  O  O110  1  0.58459679  0.03357728  0.55016021  1.0
  O  O111  1  0.41428006  0.90103846  0.45247503  1.0
  O  O112  1  0.57877519  0.96563900  0.45147447  1.0
  O  O113  1  0.41873665  0.10276962  0.54886436  1.0
  O  O114  1  0.58848036  0.10321513  0.45570194  1.0
  O  O115  1  0.41381501  0.96423615  0.54709325  1.0
  O  O116  1  0.58460134  0.89530163  0.54540309  1.0
  O  O117  1  0.41715879  0.03960129  0.45369076  1.0
  O  O118  1  0.10316384  0.58624045  0.04898597  1.0
  O  O119  1  0.97006075  0.42330694  0.95487236  1.0
  O  O120  1  0.89798539  0.42385896  0.04808057  1.0
  O  O121  1  0.04188013  0.58970233  0.95115493  1.0
  O  O122  1  0.03774164  0.42097097  0.04928353  1.0
  O  O123  1  0.90206022  0.58252126  0.94940556  1.0
  O  O124  1  0.96357538  0.59272341  0.04617716  1.0
  O  O125  1  0.10900374  0.42010261  0.95510679  1.0
  O  O126  1  0.41249052  0.17311927  0.38280027  1.0
  O  O127  1  0.49236305  0.04803810  0.35863786  1.0
  O  O128  1  0.41059554  0.12276184  0.30204321  1.0
  O  O129  1  0.78149500  0.80842442  0.53266129  1.0
  O  O130  1  0.74570489  0.94264124  0.49637297  1.0
  O  O131  1  0.88258359  0.92048640  0.52644138  1.0
  O  O132  1  0.05348553  0.27365031  0.25757564  1.0
  O  O133  1  0.16788475  0.24154643  0.20128745  1.0
  O  O134  1  0.11893696  0.38130405  0.21079720  1.0
  O  O135  1  0.89228735  0.94599014  0.89353312  1.0
  O  O136  1  0.81045387  0.88568752  0.82760718  1.0
  O  O137  1  0.78670043  0.84431165  0.90894059  1.0
  O  O138  1  0.89799085  0.63484606  0.23087500  1.0
  O  O139  1  0.90109747  0.78409670  0.24992289  1.0
  O  O140  1  0.80718260  0.72843190  0.19025038  1.0
  O  O141  1  0.15391178  0.05504515  0.85170460  1.0
  O  O142  1  0.24976161  0.17425857  0.85734880  1.0
  O  O143  1  0.18994748  0.10867556  0.92720002  1.0
  O  O144  1  0.89071865  0.03465322  0.12489027  1.0
  O  O145  1  0.80864888  0.12817928  0.17712789  1.0
  O  O146  1  0.78411073  0.11716336  0.09259511  1.0
  O  O147  1  0.08804187  0.75644086  0.74193823  1.0
  O  O148  1  0.17142105  0.81380156  0.80833240  1.0
  O  O149  1  0.17846219  0.66925577  0.78450599  1.0
  O  O150  1  0.93920600  0.15005707  0.37872008  1.0
  O  O151  1  0.85600121  0.20843181  0.31344691  1.0
  O  O152  1  0.82465526  0.24203881  0.39558783  1.0
  O  O153  1  0.12766518  0.82536561  0.64548632  1.0
  O  O154  1  0.04030407  0.92100129  0.59903993  1.0
  O  O155  1  0.14953910  0.84349426  0.56100064  1.0
  O  O156  1  0.78679763  0.25136821  0.03777967  1.0
  O  O157  1  0.92339040  0.27528322  0.99933230  1.0
  O  O158  1  0.88960989  0.14104274  0.02348342  1.0
  O  O159  1  0.16448748  0.57069746  0.85733909  1.0
  O  O160  1  0.02757174  0.50246563  0.86550819  1.0
  O  O161  1  0.06691242  0.55336304  0.79128999  1.0
  F  F162  1  0.75388968  0.89485110  0.31205839  1.0
  F  F163  1  0.23708418  0.12946146  0.69856323  1.0
  F  F164  1  0.12424537  0.87168479  0.12867680  1.0
  F  F165  1  0.89598242  0.24195014  0.82029160  1.0
  F  F166  1  0.13484383  0.87879450  0.37500109  1.0
  F  F167  1  0.70173296  0.03579280  0.71506696  1.0
  F  F168  1  0.63177983  0.89872620  0.37320146  1.0
  F  F169  1  0.36265688  0.14632371  0.63946078  1.0
  F  F170  1  0.92494432  0.60611765  0.13834636  1.0
  F  F171  1  0.16448244  0.27445485  0.93176607  1.0
  F  F172  1  0.13965983  0.75213643  0.06561470  1.0
  F  F173  1  0.90395940  0.36725872  0.87816082  1.0
