# generated using pymatgen
data_Zn4H27C39N3O16
_symmetry_space_group_name_H-M   'P 1'
_cell_length_a   21.25547763
_cell_length_b   21.57507263
_cell_length_c   21.46387331
_cell_angle_alpha   118.87339804
_cell_angle_beta   119.39010184
_cell_angle_gamma   60.86268665
_symmetry_Int_Tables_number   1
_chemical_formula_structural   Zn4H27C39N3O16
_chemical_formula_sum   'Zn8 H54 C78 N6 O32'
_cell_volume   7095.78288139
_cell_formula_units_Z   2
loop_
 _symmetry_equiv_pos_site_id
 _symmetry_equiv_pos_as_xyz
  1  'x, y, z'
loop_
 _atom_site_type_symbol
 _atom_site_label
 _atom_site_symmetry_multiplicity
 _atom_site_fract_x
 _atom_site_fract_y
 _atom_site_fract_z
 _atom_site_occupancy
  Zn  Zn0  1  0.12148940  0.94014199  0.03479262  1.0
  Zn  Zn1  1  0.97382816  0.94239234  0.03830235  1.0
  Zn  Zn2  1  0.97432810  0.94177843  0.88870426  1.0
  Zn  Zn3  1  0.97664682  0.09089481  0.03843196  1.0
  Zn  Zn4  1  0.40623762  0.50752006  0.46407529  1.0
  Zn  Zn5  1  0.53919008  0.51900282  0.45713024  1.0
  Zn  Zn6  1  0.55654955  0.36411318  0.46796389  1.0
  Zn  Zn7  1  0.54657308  0.52426433  0.61233987  1.0
  H  H8  1  0.42108611  0.60379277  0.18457929  1.0
  H  H9  1  0.48205468  0.64121993  0.18913007  1.0
  H  H10  1  0.38870504  0.65151903  0.12066908  1.0
  H  H11  1  0.39289177  0.77196067  0.22806930  1.0
  H  H12  1  0.42535804  0.72660016  0.29327419  1.0
  H  H13  1  0.27551713  0.80948628  0.16017228  1.0
  H  H14  1  0.13051203  0.70418276  0.24323307  1.0
  H  H15  1  0.22996339  0.62943259  0.33216826  1.0
  H  H16  1  0.40725955  0.65399002  0.31294571  1.0
  H  H17  1  0.42845086  0.78076630  0.84989892  1.0
  H  H18  1  0.48759840  0.77560618  0.94248294  1.0
  H  H19  1  0.39526421  0.84477206  0.92751605  1.0
  H  H20  1  0.39481328  0.73914486  0.94692499  1.0
  H  H21  1  0.42798330  0.67388988  0.87058577  1.0
  H  H22  1  0.27767768  0.80879506  0.93493202  1.0
  H  H23  1  0.13669840  0.72070036  0.60762285  1.0
  H  H24  1  0.23743075  0.63297057  0.54488127  1.0
  H  H25  1  0.41273873  0.65661918  0.76178027  1.0
  H  H26  1  0.43031181  0.11642476  0.37430357  1.0
  H  H27  1  0.49005663  0.02368232  0.34048227  1.0
  H  H28  1  0.39437083  0.04037290  0.32752114  1.0
  H  H29  1  0.40544442  0.01863528  0.20676687  1.0
  H  H30  1  0.44188244  0.09324218  0.25115243  1.0
  H  H31  1  0.28638772  0.03268163  0.16725402  1.0
  H  H32  1  0.15127894  0.35752533  0.25618767  1.0
  H  H33  1  0.25391102  0.41849108  0.33561984  1.0
  H  H34  1  0.42637446  0.20216814  0.32298476  1.0
  H  H35  1  0.81544471  0.60935591  0.84201399  1.0
  H  H36  1  0.81275478  0.63852102  0.93389301  1.0
  H  H37  1  0.88092071  0.65358456  0.92222426  1.0
  H  H38  1  0.77346385  0.77309775  0.94662974  1.0
  H  H39  1  0.70596451  0.73149912  0.86876581  1.0
  H  H40  1  0.84385708  0.81244724  0.93709992  1.0
  H  H41  1  0.73322796  0.74806517  0.61147075  1.0
  H  H42  1  0.65410269  0.66239220  0.54452384  1.0
  H  H43  1  0.68661523  0.66231791  0.75794851  1.0
  H  H44  1  0.64780815  0.12315723  0.19933587  1.0
  H  H45  1  0.68679726  0.03271289  0.20853024  1.0
  H  H46  1  0.69744083  0.04498975  0.13831587  1.0
  H  H47  1  0.81947771  0.03163151  0.24817864  1.0
  H  H48  1  0.77242344  0.10838882  0.31067986  1.0
  H  H49  1  0.85556317  0.04164449  0.17632336  1.0
  H  H50  1  0.75491452  0.36569226  0.25485451  1.0
  H  H51  1  0.67070289  0.42973682  0.33517523  1.0
  H  H52  1  0.69563223  0.21588282  0.32460543  1.0
  H  H53  1  0.82518329  0.12892610  0.59098625  1.0
  H  H54  1  0.81655637  0.03871173  0.53149856  1.0
  H  H55  1  0.88605828  0.05000721  0.62336296  1.0
  H  H56  1  0.77358997  0.03693269  0.62031968  1.0
  H  H57  1  0.71105898  0.11453623  0.58771826  1.0
  H  H58  1  0.84605193  0.04555150  0.73613170  1.0
  H  H59  1  0.76151467  0.36929803  0.87795579  1.0
  H  H60  1  0.67781621  0.43507591  0.77926010  1.0
  H  H61  1  0.69584347  0.22234036  0.60447974  1.0
  C  C62  1  0.42256334  0.65097258  0.17898833  1.0
  C  C63  1  0.39126453  0.72531582  0.23450576  1.0
  C  C64  1  0.25584387  0.78542194  0.17898968  1.0
  C  C65  1  0.17842414  0.80172585  0.15768705  1.0
  C  C66  1  0.12845322  0.85363073  0.11213525  1.0
  C  C67  1  0.15035181  0.76872162  0.18046975  1.0
  C  C68  1  0.21238312  0.72320875  0.23068730  1.0
  C  C69  1  0.19145362  0.69308464  0.26001172  1.0
  C  C70  1  0.24585174  0.65197703  0.30830689  1.0
  C  C71  1  0.32378876  0.63870385  0.32722122  1.0
  C  C72  1  0.34641008  0.66644614  0.29763792  1.0
  C  C73  1  0.29089165  0.70990176  0.25020579  1.0
  C  C74  1  0.38217173  0.59510895  0.38004721  1.0
  C  C75  1  0.42842375  0.78663162  0.90358391  1.0
  C  C76  1  0.39455411  0.73251144  0.89276910  1.0
  C  C77  1  0.25872722  0.78924585  0.87347453  1.0
  C  C78  1  0.18159841  0.81072203  0.83445220  1.0
  C  C79  1  0.13076504  0.85867835  0.88127412  1.0
  C  C80  1  0.15465337  0.78634443  0.75189140  1.0
  C  C81  1  0.21742576  0.73544576  0.71894328  1.0
  C  C82  1  0.19748362  0.70515828  0.64013758  1.0
  C  C83  1  0.25260636  0.65744831  0.60595160  1.0
  C  C84  1  0.33040492  0.64041459  0.65079091  1.0
  C  C85  1  0.35203505  0.67058603  0.72917973  1.0
  C  C86  1  0.29566176  0.71699494  0.76381344  1.0
  C  C87  1  0.38903150  0.58949708  0.61268734  1.0
  C  C88  1  0.43135994  0.06289957  0.32826703  1.0
  C  C89  1  0.40444991  0.07257039  0.25224728  1.0
  C  C90  1  0.26846501  0.09367775  0.18797510  1.0
  C  C91  1  0.19162979  0.13332827  0.16748283  1.0
  C  C92  1  0.13881820  0.08851218  0.11762661  1.0
  C  C93  1  0.16628340  0.21528796  0.19460479  1.0
  C  C94  1  0.23056757  0.24669235  0.24336823  1.0
  C  C95  1  0.21189319  0.32478088  0.27116459  1.0
  C  C96  1  0.26814218  0.35791824  0.31474161  1.0
  C  C97  1  0.34568944  0.31297849  0.33268344  1.0
  C  C98  1  0.36598331  0.23514333  0.30723974  1.0
  C  C99  1  0.30844468  0.20147839  0.26162956  1.0
  C  C100  1  0.40400261  0.35210271  0.37867899  1.0
  C  C101  1  0.82192105  0.65322361  0.89730233  1.0
  C  C102  1  0.76534382  0.73001471  0.89085279  1.0
  C  C103  1  0.81897850  0.79688580  0.87575298  1.0
  C  C104  1  0.83444324  0.82194382  0.83841127  1.0
  C  C105  1  0.88642197  0.86757919  0.88564328  1.0
  C  C106  1  0.79911177  0.80435174  0.75648588  1.0
  C  C107  1  0.75406528  0.75304576  0.72116132  1.0
  C  C108  1  0.72208048  0.72849389  0.64220419  1.0
  C  C109  1  0.67864308  0.68189953  0.60577096  1.0
  C  C110  1  0.66569322  0.65891039  0.64852916  1.0
  C  C111  1  0.69720329  0.68204230  0.72705661  1.0
  C  C112  1  0.74176009  0.72911036  0.76401562  1.0
  C  C113  1  0.61804129  0.60907380  0.60861592  1.0
  C  C114  1  0.69630909  0.07078655  0.19629145  1.0
  C  C115  1  0.77172049  0.08457179  0.25220506  1.0
  C  C116  1  0.83275522  0.10265129  0.19479110  1.0
  C  C117  1  0.85061396  0.14077843  0.17294249  1.0
  C  C118  1  0.89962594  0.09426022  0.12431529  1.0
  C  C119  1  0.82123211  0.22274278  0.19764931  1.0
  C  C120  1  0.77215771  0.25600520  0.24484330  1.0
  C  C121  1  0.74088228  0.33425015  0.27084263  1.0
  C  C122  1  0.69505162  0.36905768  0.31478529  1.0
  C  C123  1  0.67922582  0.32556247  0.33407301  1.0
  C  C124  1  0.70937746  0.24759596  0.30881593  1.0
  C  C125  1  0.75624517  0.21226066  0.26419239  1.0
  C  C126  1  0.62970005  0.36516802  0.38208751  1.0
  C  C127  1  0.82781707  0.07642553  0.59008477  1.0
  C  C128  1  0.76990377  0.09001546  0.62150742  1.0
  C  C129  1  0.82682975  0.10659995  0.75546227  1.0
  C  C130  1  0.84815849  0.14397449  0.83186610  1.0
  C  C131  1  0.89628259  0.09650108  0.88210164  1.0
  C  C132  1  0.82318832  0.22592122  0.85913484  1.0
  C  C133  1  0.77421497  0.26016891  0.79720340  1.0
  C  C134  1  0.74578917  0.33854481  0.81763553  1.0
  C  C135  1  0.70034098  0.37427908  0.76363379  1.0
  C  C136  1  0.68259532  0.33149922  0.68652334  1.0
  C  C137  1  0.71030477  0.25342293  0.66457379  1.0
  C  C138  1  0.75566302  0.21714830  0.71970204  1.0
  C  C139  1  0.63342841  0.37129125  0.62894939  1.0
  N  N140  1  0.31111931  0.74179851  0.22233646  1.0
  N  N141  1  0.31472802  0.74538306  0.84234964  1.0
  N  N142  1  0.32571533  0.12359027  0.23224041  1.0
  N  N143  1  0.77428797  0.75367897  0.84266338  1.0
  N  N144  1  0.78854716  0.13426051  0.23820566  1.0
  N  N145  1  0.78297048  0.13906991  0.70045660  1.0
  O  O146  1  0.01056198  0.97976729  0.99978102  1.0
  O  O147  1  0.05666655  0.86863605  0.08919705  1.0
  O  O148  1  0.16315042  0.87961856  0.10015733  1.0
  O  O149  1  0.08264795  0.77598364  0.16235296  1.0
  O  O150  1  0.45235927  0.57279479  0.38679196  1.0
  O  O151  1  0.35680000  0.58373193  0.41521928  1.0
  O  O152  1  0.05936971  0.88245430  0.84808779  1.0
  O  O153  1  0.16463556  0.87196745  0.95297084  1.0
  O  O154  1  0.08745258  0.80396498  0.71015156  1.0
  O  O155  1  0.45847676  0.58764851  0.65016935  1.0
  O  O156  1  0.36374258  0.55125076  0.54374183  1.0
  O  O157  1  0.06765303  0.12288967  0.10355184  1.0
  O  O158  1  0.17104395  0.01713350  0.09313018  1.0
  O  O159  1  0.09941110  0.25759880  0.17996530  1.0
  O  O160  1  0.47415551  0.31615624  0.40730009  1.0
  O  O161  1  0.37722305  0.42151245  0.38527162  1.0
  O  O162  1  0.91554696  0.87653547  0.85243431  1.0
  O  O163  1  0.89841657  0.89313272  0.95698740  1.0
  O  O164  1  0.80268489  0.82913930  0.71731963  1.0
  O  O165  1  0.60630011  0.58947989  0.64852888  1.0
  O  O166  1  0.59236766  0.59030524  0.53670399  1.0
  O  O167  1  0.91260622  0.12730840  0.09864425  1.0
  O  O168  1  0.92449522  0.02320023  0.11205263  1.0
  O  O169  1  0.83384725  0.26383761  0.18331873  1.0
  O  O170  1  0.61767759  0.32647912  0.40286552  1.0
  O  O171  1  0.60330179  0.43624455  0.39843515  1.0
  O  O172  1  0.91833818  0.12912549  0.95288002  1.0
  O  O173  1  0.91143214  0.02548031  0.84851227  1.0
  O  O174  1  0.83872242  0.26637519  0.92582850  1.0
  O  O175  1  0.61996250  0.33184426  0.55906240  1.0
  O  O176  1  0.60876541  0.44265829  0.65558728  1.0
  O  O177  1  0.51761585  0.47484201  0.50261501  1.0
