# generated using pymatgen
data_Zn4H26C43S10(N7O9)2
_symmetry_space_group_name_H-M   'P 1'
_cell_length_a   11.46607985
_cell_length_b   12.67129195
_cell_length_c   24.05221373
_cell_angle_alpha   89.65095782
_cell_angle_beta   91.01724071
_cell_angle_gamma   89.91643568
_symmetry_Int_Tables_number   1
_chemical_formula_structural   Zn4H26C43S10(N7O9)2
_chemical_formula_sum   'Zn4 H26 C43 S10 N14 O18'
_cell_volume   3493.92735304
_cell_formula_units_Z   1
loop_
 _symmetry_equiv_pos_site_id
 _symmetry_equiv_pos_as_xyz
  1  'x, y, z'
loop_
 _atom_site_type_symbol
 _atom_site_label
 _atom_site_symmetry_multiplicity
 _atom_site_fract_x
 _atom_site_fract_y
 _atom_site_fract_z
 _atom_site_occupancy
  Zn  Zn0  1  0.38076232  0.50032566  0.49966391  1.0
  Zn  Zn1  1  0.62579683  0.50111357  0.49855885  1.0
  Zn  Zn2  1  0.62007706  0.49836588  0.96641610  1.0
  Zn  Zn3  1  0.37570401  0.49967903  0.96619034  1.0
  H  H4  1  0.67982133  0.49469003  0.79206064  1.0
  H  H5  1  0.22339681  0.41880160  0.77259666  1.0
  H  H6  1  0.21897861  0.55967906  0.77527812  1.0
  H  H7  1  0.23643522  0.56559763  0.67043078  1.0
  H  H8  1  0.23821001  0.42524285  0.66919643  1.0
  H  H9  1  0.11907999  0.63453106  0.38968447  1.0
  H  H10  1  0.25954876  0.59414398  0.40886678  1.0
  H  H11  1  0.88646127  0.37444230  0.60591217  1.0
  H  H12  1  0.74950560  0.39625608  0.58117264  1.0
  H  H13  1  0.22747696  0.90511162  0.50853844  1.0
  H  H14  1  0.27819181  0.77607745  0.50217416  1.0
  H  H15  1  0.77489174  0.09486736  0.51058053  1.0
  H  H16  1  0.72563096  0.22416034  0.50260938  1.0
  H  H17  1  0.77112300  0.49113689  0.28651465  1.0
  H  H18  1  0.71979059  0.50469179  0.35344688  1.0
  H  H19  1  0.23105815  0.47788961  0.17868542  1.0
  H  H20  1  0.28119835  0.49404620  0.11167039  1.0
  H  H21  1  0.88427280  0.62580933  0.07618300  1.0
  H  H22  1  0.74273532  0.58822682  0.05698246  1.0
  H  H23  1  0.10949412  0.37635070  0.85679039  1.0
  H  H24  1  0.25028165  0.41061648  0.87629444  1.0
  H  H25  1  0.77261983  0.90310593  0.95669174  1.0
  H  H26  1  0.72153076  0.77403843  0.96149763  1.0
  H  H27  1  0.22679617  0.09572329  0.95292823  1.0
  H  H28  1  0.27674837  0.22423462  0.96177398  1.0
  H  H29  1  0.72540765  0.34464596  0.70297881  1.0
  C  C30  1  0.50296836  0.29533957  0.49658024  1.0
  C  C31  1  0.51206214  0.49207067  0.61051207  1.0
  C  C32  1  0.49892254  0.70553167  0.50222614  1.0
  C  C33  1  0.49928783  0.51322321  0.38809541  1.0
  C  C34  1  0.49855290  0.29373817  0.97046299  1.0
  C  C35  1  0.48998589  0.48977076  0.85539930  1.0
  C  C36  1  0.50087751  0.70429927  0.96204324  1.0
  C  C37  1  0.50074288  0.51267397  0.07692815  1.0
  C  C38  1  0.13112597  0.54825984  0.46144679  1.0
  C  C39  1  0.87643826  0.44931321  0.53140348  1.0
  C  C40  1  0.99675353  0.46699517  0.51965188  1.0
  C  C41  1  0.01033942  0.53323585  0.47385818  1.0
  C  C42  1  0.40350239  0.88737791  0.49825808  1.0
  C  C43  1  0.59898668  0.11341441  0.49757481  1.0
  C  C44  1  0.50070375  0.81982693  0.49989345  1.0
  C  C45  1  0.50186896  0.18102683  0.49626068  1.0
  C  C46  1  0.56186242  0.00607020  0.49839394  1.0
  C  C47  1  0.44054873  0.99469652  0.49758042  1.0
  C  C48  1  0.49299084  0.49254311  0.79321897  1.0
  C  C49  1  0.50899269  0.49497635  0.67278749  1.0
  C  C50  1  0.39467626  0.49362060  0.75840674  1.0
  C  C51  1  0.60964409  0.49492197  0.70801252  1.0
  C  C52  1  0.40327340  0.49553871  0.70045290  1.0
  C  C53  1  0.60084454  0.49398931  0.76608853  1.0
  C  C54  1  0.26232978  0.49173646  0.75639219  1.0
  C  C55  1  0.27235923  0.49483839  0.69100533  1.0
  C  C56  1  0.59632400  0.51755106  0.29340388  1.0
  C  C57  1  0.40361517  0.51317071  0.17154462  1.0
  C  C58  1  0.49863906  0.51648531  0.32771668  1.0
  C  C59  1  0.50118701  0.51642346  0.13719430  1.0
  C  C60  1  0.43938023  0.51573779  0.22856233  1.0
  C  C61  1  0.56042377  0.51839892  0.23636882  1.0
  C  C62  1  0.87052775  0.54371349  0.00361479  1.0
  C  C63  1  0.12440066  0.45258499  0.93042048  1.0
  C  C64  1  0.00406337  0.46732059  0.94339999  1.0
  C  C65  1  0.99108529  0.52905244  0.99058541  1.0
  C  C66  1  0.59677059  0.88550275  0.96691667  1.0
  C  C67  1  0.40199873  0.11241456  0.96805724  1.0
  C  C68  1  0.49946418  0.81850157  0.96472306  1.0
  C  C69  1  0.49928353  0.17938514  0.97047575  1.0
  C  C70  1  0.43875046  0.00494192  0.96717377  1.0
  C  C71  1  0.56002337  0.99290810  0.96844935  1.0
  C  C72  1  0.73228381  0.49398550  0.68688922  1.0
  S  S73  1  0.12985358  0.42762264  0.54569435  1.0
  S  S74  1  0.87608818  0.57170635  0.44797042  1.0
  S  S75  1  0.63403743  0.88663770  0.49960291  1.0
  S  S76  1  0.36841471  0.11416128  0.49524357  1.0
  S  S77  1  0.36617427  0.51541075  0.29054539  1.0
  S  S78  1  0.63356031  0.52113545  0.17436828  1.0
  S  S79  1  0.87018965  0.43107065  0.91698818  1.0
  S  S80  1  0.12529283  0.56610202  0.01648006  1.0
  S  S81  1  0.36627667  0.88590436  0.96528557  1.0
  S  S82  1  0.63246042  0.11182170  0.97209724  1.0
  N  N83  1  0.20166234  0.49704465  0.49769626  1.0
  N  N84  1  0.80506793  0.50156369  0.49618859  1.0
  N  N85  1  0.79936028  0.49580879  0.96677910  1.0
  N  N86  1  0.19593727  0.50129347  0.96659861  1.0
  N  N87  1  0.17442808  0.60744250  0.41967608  1.0
  N  N88  1  0.83514704  0.38403410  0.57141426  1.0
  N  N89  1  0.28991145  0.85485489  0.49557187  1.0
  N  N90  1  0.71261124  0.14554586  0.49655011  1.0
  N  N91  1  0.70979707  0.52052503  0.31199645  1.0
  N  N92  1  0.29005784  0.51076891  0.15296187  1.0
  N  N93  1  0.82835267  0.59989693  0.04635580  1.0
  N  N94  1  0.16629645  0.39410412  0.88803760  1.0
  N  N95  1  0.71030050  0.85231414  0.96937102  1.0
  N  N96  1  0.28837575  0.14533558  0.96823453  1.0
  O  O97  1  0.40442837  0.34308918  0.49646559  1.0
  O  O98  1  0.60328351  0.34129378  0.49716308  1.0
  O  O99  1  0.61115751  0.48330372  0.58759078  1.0
  O  O100  1  0.41383380  0.49842869  0.58549375  1.0
  O  O101  1  0.59709630  0.65698943  0.50422486  1.0
  O  O102  1  0.39827313  0.66047566  0.50223322  1.0
  O  O103  1  0.40084661  0.51531321  0.41278871  1.0
  O  O104  1  0.59916490  0.50760520  0.41297178  1.0
  O  O105  1  0.59706211  0.34100119  0.97320766  1.0
  O  O106  1  0.39836735  0.34007290  0.96735536  1.0
  O  O107  1  0.38961746  0.48847024  0.87781992  1.0
  O  O108  1  0.58748169  0.48950112  0.88119205  1.0
  O  O109  1  0.40247389  0.65636995  0.96167396  1.0
  O  O110  1  0.60121709  0.65871452  0.96012762  1.0
  O  O111  1  0.59917585  0.51828651  0.05223585  1.0
  O  O112  1  0.40147148  0.50311048  0.05187907  1.0
  O  O113  1  0.78366857  0.39480917  0.68986798  1.0
  O  O114  1  0.78985380  0.56907694  0.67274055  1.0
