# generated using pymatgen
data_SrH2C5(NO2)2
_symmetry_space_group_name_H-M   'P 1'
_cell_length_a   9.60825896
_cell_length_b   16.36701704
_cell_length_c   16.36707012
_cell_angle_alpha   116.27180708
_cell_angle_beta   101.28696574
_cell_angle_gamma   101.28703568
_symmetry_Int_Tables_number   1
_chemical_formula_structural   SrH2C5(NO2)2
_chemical_formula_sum   'Sr12 H24 C60 N24 O48'
_cell_volume   2143.50416684
_cell_formula_units_Z   12
loop_
 _symmetry_equiv_pos_site_id
 _symmetry_equiv_pos_as_xyz
  1  'x, y, z'
loop_
 _atom_site_type_symbol
 _atom_site_label
 _atom_site_symmetry_multiplicity
 _atom_site_fract_x
 _atom_site_fract_y
 _atom_site_fract_z
 _atom_site_occupancy
  Sr  Sr0  1  0.41564453  0.41590677  0.28668434  1.0
  Sr  Sr1  1  0.99981161  0.87081149  0.58406066  1.0
  Sr  Sr2  1  0.12893655  0.71325349  0.12914509  1.0
  Sr  Sr3  1  0.49980674  0.58405695  0.87080891  1.0
  Sr  Sr4  1  0.62894199  0.12914763  0.71325523  1.0
  Sr  Sr5  1  0.91564526  0.28668457  0.41590781  1.0
  Sr  Sr6  1  0.35886564  0.53190742  0.58603479  1.0
  Sr  Sr7  1  0.82702991  0.05409506  0.46810803  1.0
  Sr  Sr8  1  0.77295264  0.41399617  0.94584501  1.0
  Sr  Sr9  1  0.32703023  0.46810982  0.05409638  1.0
  Sr  Sr10  1  0.27295178  0.94584317  0.41399534  1.0
  Sr  Sr11  1  0.85886560  0.58603546  0.53190762  1.0
  H  H12  1  0.92111358  0.58476264  0.19766066  1.0
  H  H13  1  0.33622723  0.61282399  0.41533757  1.0
  H  H14  1  0.72361890  0.80239176  0.38721668  1.0
  H  H15  1  0.83622558  0.41533571  0.61282160  1.0
  H  H16  1  0.22361260  0.38721120  0.80238783  1.0
  H  H17  1  0.42111344  0.19766071  0.58476338  1.0
  H  H18  1  0.89849895  0.24606344  0.19527588  1.0
  H  H19  1  0.65239324  0.94933174  0.75398688  1.0
  H  H20  1  0.70312990  0.80458167  0.05068967  1.0
  H  H21  1  0.15239180  0.75398687  0.94933060  1.0
  H  H22  1  0.20312814  0.05069149  0.80458271  1.0
  H  H23  1  0.39849430  0.19527411  0.24606250  1.0
  H  H24  1  0.76053335  0.58234301  0.30803413  1.0
  H  H25  1  0.17813332  0.72562784  0.41759649  1.0
  H  H26  1  0.45268313  0.69196926  0.27438224  1.0
  H  H27  1  0.67812674  0.41759333  0.72562343  1.0
  H  H28  1  0.95268021  0.27437409  0.69196437  1.0
  H  H29  1  0.26052940  0.30803397  0.58234293  1.0
  H  H30  1  0.99184439  0.29254229  0.07997988  1.0
  H  H31  1  0.69923858  0.78756729  0.70754095  1.0
  H  H32  1  0.91175620  0.91986464  0.21250725  1.0
  H  H33  1  0.19923557  0.70754111  0.78756633  1.0
  H  H34  1  0.41175743  0.21250768  0.91986404  1.0
  H  H35  1  0.49184287  0.07998091  0.29254275  1.0
  C  C36  1  0.86143997  0.56198610  0.30839122  1.0
  C  C37  1  0.29944566  0.74633650  0.43800475  1.0
  C  C38  1  0.55328259  0.69160637  0.25368453  1.0
  C  C39  1  0.79944261  0.43800488  0.74633485  1.0
  C  C40  1  0.05328200  0.25367717  0.69160233  1.0
  C  C41  1  0.36144014  0.30839126  0.56198573  1.0
  C  C42  1  0.04410336  0.51022056  0.33972926  1.0
  C  C43  1  0.53389414  0.82943330  0.48979689  1.0
  C  C44  1  0.70462347  0.66028660  0.17058292  1.0
  C  C45  1  0.03389014  0.48979547  0.82943031  1.0
  C  C46  1  0.20462464  0.17057909  0.66028340  1.0
  C  C47  1  0.54410280  0.33972966  0.51021889  1.0
  C  C48  1  0.06241062  0.53507914  0.27010440  1.0
  C  C49  1  0.52733864  0.73495979  0.46500401  1.0
  C  C50  1  0.79253429  0.72992831  0.26507278  1.0
  C  C51  1  0.02733444  0.46500308  0.73495741  1.0
  C  C52  1  0.29253395  0.26507079  0.72992777  1.0
  C  C53  1  0.56240948  0.27010606  0.53507680  1.0
  C  C54  1  0.14129439  0.47717864  0.39192339  1.0
  C  C55  1  0.66412833  0.91466831  0.52279279  1.0
  C  C56  1  0.74962237  0.60810635  0.08533847  1.0
  C  C57  1  0.16412261  0.52279105  0.91466524  1.0
  C  C58  1  0.24963163  0.08533841  0.60810560  1.0
  C  C59  1  0.64128867  0.39192573  0.47717537  1.0
  C  C60  1  0.17241839  0.53431890  0.21727975  1.0
  C  C61  1  0.63814544  0.68294872  0.46583599  1.0
  C  C62  1  0.95537747  0.78278775  0.31707213  1.0
  C  C63  1  0.13813986  0.46583358  0.68294678  1.0
  C  C64  1  0.45537753  0.31707199  0.78278838  1.0
  C  C65  1  0.67241690  0.21728263  0.53432017  1.0
  C  C66  1  0.89087757  0.30150226  0.09784118  1.0
  C  C67  1  0.58931499  0.79647943  0.69858649  1.0
  C  C68  1  0.79292055  0.90198194  0.20358486  1.0
  C  C69  1  0.08931445  0.69858641  0.79647976  1.0
  C  C70  1  0.29292296  0.20358789  0.90198377  1.0
  C  C71  1  0.39087309  0.09783977  0.30150164  1.0
  C  C72  1  0.71487245  0.29750930  0.16651379  1.0
  C  C73  1  0.41728357  0.86910980  0.70252945  1.0
  C  C74  1  0.54825185  0.83330619  0.13090485  1.0
  C  C75  1  0.91728219  0.70252881  0.86910909  1.0
  C  C76  1  0.04825222  0.13090440  0.83330571  1.0
  C  C77  1  0.21486919  0.16651053  0.29750800  1.0
  C  C78  1  0.69053385  0.34113128  0.11063403  1.0
  C  C79  1  0.34932225  0.76958692  0.65889267  1.0
  C  C80  1  0.57980850  0.88917329  0.23041169  1.0
  C  C81  1  0.84932189  0.65889412  0.76958763  1.0
  C  C82  1  0.07980828  0.23041204  0.88917384  1.0
  C  C83  1  0.19053063  0.11063040  0.34112988  1.0
  C  C84  1  0.63248518  0.26938079  0.22333576  1.0
  C  C85  1  0.36301201  0.95405245  0.73068381  1.0
  C  C86  1  0.40902983  0.77656618  0.04594326  1.0
  C  C87  1  0.86300418  0.73068329  0.95404707  1.0
  C  C88  1  0.90903022  0.04594731  0.77656919  1.0
  C  C89  1  0.13248313  0.22333297  0.26937888  1.0
  C  C90  1  0.58163777  0.39046823  0.09705544  1.0
  C  C91  1  0.19106868  0.70665637  0.60954194  1.0
  C  C92  1  0.48447547  0.90280733  0.29332972  1.0
  C  C93  1  0.69106664  0.60953708  0.70665651  1.0
  C  C94  1  0.98447556  0.29333207  0.90280654  1.0
  C  C95  1  0.08163596  0.09705140  0.39046691  1.0
  N  N96  1  0.91832639  0.52815201  0.36307885  1.0
  N  N97  1  0.39017693  0.83484622  0.47178944  1.0
  N  N98  1  0.55549001  0.63692777  0.16516055  1.0
  N  N99  1  0.89017007  0.47178823  0.83484280  1.0
  N  N100  1  0.05548930  0.16515472  0.63692296  1.0
  N  N101  1  0.41832535  0.36307847  0.52815104  1.0
  N  N102  1  0.94516610  0.56779207  0.25262806  1.0
  N  N103  1  0.37736840  0.68478096  0.43232246  1.0
  N  N104  1  0.69275839  0.74740544  0.31527039  1.0
  N  N105  1  0.87736379  0.43231956  0.68477672  1.0
  N  N106  1  0.19275507  0.31526519  0.74740154  1.0
  N  N107  1  0.44516594  0.25262943  0.56779061  1.0
  N  N108  1  0.84303461  0.27411428  0.15702104  1.0
  N  N109  1  0.56884270  0.88303364  0.72595151  1.0
  N  N110  1  0.68589447  0.84280586  0.11700588  1.0
  N  N111  1  0.06884246  0.72595400  0.88303432  1.0
  N  N112  1  0.18589675  0.11700510  0.84280630  1.0
  N  N113  1  0.34302950  0.15701849  0.27411343  1.0
  N  N114  1  0.80110485  0.34200331  0.06772367  1.0
  N  N115  1  0.45906299  0.72583412  0.65807605  1.0
  N  N116  1  0.73329055  0.93207865  0.27421265  1.0
  N  N117  1  0.95906262  0.65807613  0.72583388  1.0
  N  N118  1  0.23329081  0.27421376  0.93207737  1.0
  N  N119  1  0.30110313  0.06772233  0.34200301  1.0
  O  O120  1  0.28412781  0.50681068  0.40766398  1.0
  O  O121  1  0.77733961  0.90078341  0.49317952  1.0
  O  O122  1  0.87666183  0.59229479  0.09921875  1.0
  O  O123  1  0.27732869  0.49317878  0.90078340  1.0
  O  O124  1  0.37666156  0.09921693  0.59229271  1.0
  O  O125  1  0.78413282  0.40766414  0.50681071  1.0
  O  O126  1  0.08578056  0.42703896  0.42476621  1.0
  O  O127  1  0.65877114  0.99766516  0.57289141  1.0
  O  O128  1  0.66130376  0.57534642  0.00235628  1.0
  O  O129  1  0.15875644  0.57289221  0.99766817  1.0
  O  O130  1  0.16130451  0.00234759  0.57534158  1.0
  O  O131  1  0.58578614  0.42476731  0.42704446  1.0
  O  O132  1  0.24519523  0.47467578  0.20399086  1.0
  O  O133  1  0.77057762  0.72942075  0.52545767  1.0
  O  O134  1  0.04132170  0.79598325  0.27063133  1.0
  O  O135  1  0.27056986  0.52545179  0.72941453  1.0
  O  O136  1  0.54132171  0.27063165  0.79598419  1.0
  O  O137  1  0.74519390  0.20398927  0.47467064  1.0
  O  O138  1  0.18745952  0.59309024  0.18619869  1.0
  O  O139  1  0.59449883  0.59307890  0.40708781  1.0
  O  O140  1  0.00167225  0.81398195  0.40695733  1.0
  O  O141  1  0.09448971  0.40708398  0.59307471  1.0
  O  O142  1  0.50166762  0.40695681  0.81398265  1.0
  O  O143  1  0.68745925  0.18619819  0.59308492  1.0
  O  O144  1  0.49647474  0.26770774  0.21016960  1.0
  O  O145  1  0.22861762  0.94249239  0.73228788  1.0
  O  O146  1  0.28619792  0.78973036  0.05747924  1.0
  O  O147  1  0.72862720  0.73229172  0.94249466  1.0
  O  O148  1  0.78620253  0.05747703  0.78973306  1.0
  O  O149  1  0.99646849  0.21016657  0.26770853  1.0
  O  O150  1  0.70222005  0.24638394  0.27965509  1.0
  O  O151  1  0.45569883  0.03340496  0.75375037  1.0
  O  O152  1  0.42237168  0.72030737  0.96659152  1.0
  O  O153  1  0.95569840  0.75375129  0.03340756  1.0
  O  O154  1  0.92237498  0.96658958  0.72030569  1.0
  O  O155  1  0.20220903  0.27964776  0.24638233  1.0
  O  O156  1  0.50543146  0.41686874  0.15412544  1.0
  O  O157  1  0.08846925  0.73727302  0.58301732  1.0
  O  O158  1  0.35121000  0.84576560  0.26271208  1.0
  O  O159  1  0.58847187  0.58301522  0.73727170  1.0
  O  O160  1  0.85121472  0.26271436  0.84576689  1.0
  O  O161  1  0.00542906  0.15412395  0.41686850  1.0
  O  O162  1  0.57059901  0.40861815  0.02803479  1.0
  O  O163  1  0.16193181  0.61949147  0.59140532  1.0
  O  O164  1  0.54249460  0.97185438  0.38048928  1.0
  O  O165  1  0.66193462  0.59140585  0.61949020  1.0
  O  O166  1  0.04249748  0.38049305  0.97185843  1.0
  O  O167  1  0.07059491  0.02803320  0.40861753  1.0
