# generated using pymatgen
data_Zn4H55C86N16Cl
_symmetry_space_group_name_H-M   'P 1'
_cell_length_a   18.81735095
_cell_length_b   18.96576604
_cell_length_c   20.27803675
_cell_angle_alpha   105.56600269
_cell_angle_beta   107.45621613
_cell_angle_gamma   111.42638531
_symmetry_Int_Tables_number   1
_chemical_formula_structural   Zn4H55C86N16Cl
_chemical_formula_sum   'Zn4 H55 C86 N16 Cl1'
_cell_volume   5815.46307506
_cell_formula_units_Z   1
loop_
 _symmetry_equiv_pos_site_id
 _symmetry_equiv_pos_as_xyz
  1  'x, y, z'
loop_
 _atom_site_type_symbol
 _atom_site_label
 _atom_site_symmetry_multiplicity
 _atom_site_fract_x
 _atom_site_fract_y
 _atom_site_fract_z
 _atom_site_occupancy
  Zn  Zn0  1  0.89153500  0.89768816  0.50793946  1.0
  Zn  Zn1  1  0.10817593  0.10897794  0.50218087  1.0
  Zn  Zn2  1  0.09753406  0.99198683  0.59464789  1.0
  Zn  Zn3  1  0.89891176  0.99577869  0.39756599  1.0
  H  H4  1  0.85426022  0.02165740  0.62715717  1.0
  H  H5  1  0.23690242  0.97142196  0.33347589  1.0
  H  H6  1  0.33999625  0.99611837  0.27982046  1.0
  H  H7  1  0.11844975  0.25570576  0.62978553  1.0
  H  H8  1  0.46536194  0.98556399  0.27374481  1.0
  H  H9  1  0.57375359  0.94333438  0.31844925  1.0
  H  H10  1  0.38755646  0.69108795  0.41341878  1.0
  H  H11  1  0.26765340  0.70615619  0.42408631  1.0
  H  H12  1  0.11811318  0.73412678  0.67506357  1.0
  H  H13  1  0.84568648  0.59902725  0.53682889  1.0
  H  H14  1  0.76295686  0.44977994  0.50822415  1.0
  H  H15  1  0.15508303  0.01587622  0.37557891  1.0
  H  H16  1  0.76048390  0.31871271  0.50833148  1.0
  H  H17  1  0.83946144  0.24172490  0.53300391  1.0
  H  H18  1  0.28674780  0.11373522  0.74440045  1.0
  H  H19  1  0.11215994  0.37666023  0.66945558  1.0
  H  H20  1  0.19038240  0.53085975  0.72310501  1.0
  H  H21  1  0.19297687  0.66206495  0.72300900  1.0
  H  H22  1  0.90949035  0.75109196  0.17351003  1.0
  H  H23  1  0.46746928  0.32481891  0.70671171  1.0
  H  H24  1  0.70028663  0.52289899  0.95165976  1.0
  H  H25  1  0.73031849  0.48412775  0.17390155  1.0
  H  H26  1  0.12442165  0.84247073  0.63946622  1.0
  H  H27  1  0.52502281  0.37391417  0.97383969  1.0
  H  H28  1  0.81785398  0.61208608  0.29419659  1.0
  H  H29  1  0.68572300  0.92986206  0.30667956  1.0
  H  H30  1  0.65675341  0.42053387  0.04226178  1.0
  H  H31  1  0.82155985  0.62350259  0.05345496  1.0
  H  H32  1  0.61039465  0.43161421  0.81101856  1.0
  H  H33  1  0.88540409  0.15062867  0.19644230  1.0
  H  H34  1  0.15932146  0.26373002  0.30423476  1.0
  H  H35  1  0.09910006  0.29267660  0.07666305  1.0
  H  H36  1  0.84191615  0.10952630  0.86041680  1.0
  H  H37  1  0.87950203  0.06362247  0.26076481  1.0
  H  H38  1  0.89054499  0.19301105  0.09358494  1.0
  H  H39  1  0.85396264  0.05728278  0.74214194  1.0
  H  H40  1  0.30375491  0.27959566  0.63241289  1.0
  H  H41  1  0.90414507  0.18246358  0.99157742  1.0
  H  H42  1  0.10621773  0.29901890  0.97003882  1.0
  H  H43  1  0.16455333  0.30730215  0.20127088  1.0
  H  H44  1  0.69119537  0.83171955  0.47651115  1.0
  H  H45  1  0.84556725  0.11917940  0.48661085  1.0
  H  H46  1  0.12925366  0.13629518  0.74788586  1.0
  H  H47  1  0.89716677  0.73866965  0.40799081  1.0
  H  H48  1  0.15108425  0.22069962  0.40253504  1.0
  H  H49  1  0.56954664  0.71574503  0.37486411  1.0
  H  H50  1  0.55246025  0.74259587  0.45745544  1.0
  H  H51  1  0.46688558  0.66309789  0.36905231  1.0
  H  H52  1  0.38117782  0.29587877  0.93862572  1.0
  H  H53  1  0.30196125  0.24829476  0.84252326  1.0
  H  H54  1  0.35689065  0.19676799  0.87480935  1.0
  H  H55  1  0.84927211  0.72388172  0.54110707  1.0
  H  H56  1  0.91307416  0.86923287  0.26266249  1.0
  H  H57  1  0.13115368  0.85394434  0.49264281  1.0
  H  H58  1  0.19027931  0.78819213  0.42603716  1.0
  C  C59  1  0.92157864  0.04059555  0.64725302  1.0
  C  C60  1  0.91723362  0.76438331  0.56335662  1.0
  C  C61  1  0.91202411  0.84875725  0.30765039  1.0
  C  C62  1  0.05244240  0.21115937  0.58940010  1.0
  C  C63  1  0.13187828  0.90002201  0.47025230  1.0
  C  C64  1  0.89783078  0.77071025  0.30825661  1.0
  C  C65  1  0.15975021  0.91660728  0.41621980  1.0
  C  C66  1  0.98543825  0.75040044  0.59519534  1.0
  C  C67  1  0.01715047  0.16167899  0.30990836  1.0
  C  C68  1  0.22326740  0.82166713  0.39903084  1.0
  C  C69  1  0.20802818  0.88456341  0.38473387  1.0
  C  C70  1  0.97936292  0.22085646  0.57368394  1.0
  C  C71  1  0.24903558  0.92368411  0.34687274  1.0
  C  C72  1  0.31079672  0.90840368  0.33096875  1.0
  C  C73  1  0.33185718  0.85016511  0.35252765  1.0
  C  C74  1  0.27745921  0.14458560  0.70712529  1.0
  C  C75  1  0.28423267  0.80370066  0.38364405  1.0
  C  C76  1  0.35847557  0.95418966  0.29901556  1.0
  C  C77  1  0.42755058  0.94829134  0.29560213  1.0
  C  C78  1  0.45398682  0.89530501  0.32277554  1.0
  C  C79  1  0.40283352  0.84282044  0.34777305  1.0
  C  C80  1  0.42652739  0.78711792  0.37191462  1.0
  C  C81  1  0.33129572  0.22476914  0.71665352  1.0
  C  C82  1  0.37256295  0.73567248  0.39635377  1.0
  C  C83  1  0.30531922  0.74402957  0.40251462  1.0
  C  C84  1  0.53143087  0.89784627  0.33131193  1.0
  C  C85  1  0.55896271  0.84833518  0.36064317  1.0
  C  C86  1  0.70121430  0.91005947  0.35211025  1.0
  C  C87  1  0.50318210  0.78756357  0.37540115  1.0
  C  C88  1  0.05725180  0.67636786  0.64654944  1.0
  C  C89  1  0.98233173  0.67565536  0.60449372  1.0
  C  C90  1  0.90463017  0.60096289  0.56988690  1.0
  C  C91  1  0.90053835  0.52719742  0.57433413  1.0
  C  C92  1  0.64753459  0.86713332  0.37987939  1.0
  C  C93  1  0.97757332  0.52783228  0.61474598  1.0
  C  C94  1  0.05660183  0.60415901  0.65229602  1.0
  C  C95  1  0.82201064  0.44981438  0.53761680  1.0
  C  C96  1  0.82061283  0.37730653  0.53773425  1.0
  C  C97  1  0.89769670  0.37541414  0.57415006  1.0
  C  C98  1  0.28650999  0.22846069  0.64939795  1.0
  C  C99  1  0.97609885  0.45254507  0.61481187  1.0
  C  C100  1  0.05362625  0.45247961  0.65217934  1.0
  C  C101  1  0.13151392  0.53078413  0.69310566  1.0
  C  C102  1  0.13296283  0.60328422  0.69299399  1.0
  C  C103  1  0.90254447  0.78159975  0.38122229  1.0
  C  C104  1  0.89933885  0.30050569  0.56698942  1.0
  C  C105  1  0.97621053  0.29919118  0.59771813  1.0
  C  C106  1  0.05191616  0.37596724  0.64337850  1.0
  C  C107  1  0.86630064  0.69292574  0.24259289  1.0
  C  C108  1  0.86969806  0.69268001  0.17392269  1.0
  C  C109  1  0.81996434  0.62049193  0.10598748  1.0
  C  C110  1  0.70331204  0.85890011  0.43769094  1.0
  C  C111  1  0.76424375  0.54473148  0.10337879  1.0
  C  C112  1  0.77031824  0.54275496  0.17380963  1.0
  C  C113  1  0.81987981  0.61504133  0.24177803  1.0
  C  C114  1  0.14440360  0.98263578  0.41069323  1.0
  C  C115  1  0.51363957  0.36106149  0.91478394  1.0
  C  C116  1  0.43211515  0.30188727  0.85714479  1.0
  C  C117  1  0.48040964  0.33576703  0.76574872  1.0
  C  C118  1  0.56099057  0.39528149  0.82425850  1.0
  C  C119  1  0.58011057  0.40808633  0.90054564  1.0
  C  C120  1  0.69379913  0.47409422  0.03365774  1.0
  C  C121  1  0.66343344  0.47183248  0.96305966  1.0
  C  C122  1  0.91340601  0.14154768  0.51654749  1.0
  C  C123  1  0.41491262  0.28750100  0.78025913  1.0
  C  C124  1  0.98652862  0.14605191  0.78624972  1.0
  C  C125  1  0.05732333  0.82484433  0.61380117  1.0
  C  C126  1  0.05504889  0.21758212  0.85226814  1.0
  C  C127  1  0.04976428  0.24581279  0.92054190  1.0
  C  C128  1  0.97418426  0.20531700  0.92647293  1.0
  C  C129  1  0.90247558  0.14057507  0.85868912  1.0
  C  C130  1  0.90925840  0.11165812  0.79169341  1.0
  C  C131  1  0.95002740  0.20849430  0.13926106  1.0
  C  C132  1  0.94706925  0.18418017  0.19746750  1.0
  C  C133  1  0.09997159  0.24827141  0.25834771  1.0
  C  C134  1  0.06204322  0.09966400  0.70867489  1.0
  C  C135  1  0.10297632  0.27298003  0.20017384  1.0
  C  C136  1  0.94528045  0.09605511  0.30376701  1.0
  C  C137  1  0.02803973  0.24971203  0.13680770  1.0
  C  C138  1  0.96843715  0.21856126  0.99828802  1.0
  C  C139  1  0.03406775  0.25882284  0.06936922  1.0
  C  C140  1  0.02165171  0.19966955  0.25651112  1.0
  C  C141  1  0.99148679  0.10245638  0.71778213  1.0
  C  C142  1  0.52431336  0.72432869  0.39539183  1.0
  C  C143  1  0.36444722  0.25847446  0.87920607  1.0
  C  C144  1  0.08370999  0.17553213  0.37553192  1.0
  N  N145  1  0.94897279  0.00402697  0.60169857  1.0
  N  N146  1  0.20727342  0.10417859  0.64010438  1.0
  N  N147  1  0.78138642  0.92568789  0.39001780  1.0
  N  N148  1  0.21237707  0.15646232  0.60409403  1.0
  N  N149  1  0.78259344  0.89371070  0.44338745  1.0
  N  N150  1  0.94569647  0.09033518  0.49911291  1.0
  N  N151  1  0.03507048  0.04016266  0.63945479  1.0
  N  N152  1  0.91663362  0.85911572  0.41944184  1.0
  N  N153  1  0.11166404  0.00367264  0.45852499  1.0
  N  N154  1  0.03354355  0.87816965  0.59465925  1.0
  N  N155  1  0.96741194  0.07301072  0.36063551  1.0
  N  N156  1  0.05380017  0.12276941  0.40558154  1.0
  N  N157  1  0.94624655  0.84061790  0.56338629  1.0
  N  N158  1  0.92232736  0.90030846  0.37420491  1.0
  N  N159  1  0.10410625  0.95308028  0.49530017  1.0
  N  N160  1  0.03130058  0.13320762  0.54378179  1.0
  Cl  Cl161  1  0.15140873  0.27421147  0.85170139  1.0
