# generated using pymatgen
data_AlH15C27(N5O3)2
_symmetry_space_group_name_H-M   'P 1'
_cell_length_a   3.90475050
_cell_length_b   18.06548891
_cell_length_c   18.11336510
_cell_angle_alpha   60.43327665
_cell_angle_beta   89.20285885
_cell_angle_gamma   89.08326639
_symmetry_Int_Tables_number   1
_chemical_formula_structural   AlH15C27(N5O3)2
_chemical_formula_sum   'Al1 H15 C27 N10 O6'
_cell_volume   1111.18509029
_cell_formula_units_Z   1
loop_
 _symmetry_equiv_pos_site_id
 _symmetry_equiv_pos_as_xyz
  1  'x, y, z'
loop_
 _atom_site_type_symbol
 _atom_site_label
 _atom_site_symmetry_multiplicity
 _atom_site_fract_x
 _atom_site_fract_y
 _atom_site_fract_z
 _atom_site_occupancy
  Al  Al0  1  0.96343474  0.99977154  0.49948522  1.0
  H  H1  1  0.22259915  0.30553591  0.58964050  1.0
  H  H2  1  0.16770851  0.09348521  0.10867819  1.0
  H  H3  1  0.20969177  0.60987291  0.80253373  1.0
  H  H4  1  0.66984806  0.30755327  0.10058772  1.0
  H  H5  1  0.17422340  0.01956767  0.26781906  1.0
  H  H6  1  0.19737168  0.76927793  0.71490167  1.0
  H  H7  1  0.72638971  0.59743707  0.59762736  1.0
  H  H8  1  0.61923799  0.08746356  0.81241769  1.0
  H  H9  1  0.21194232  0.21927999  0.51532995  1.0
  H  H10  1  0.76925648  0.96335640  0.70741716  1.0
  H  H11  1  0.82654632  0.97011764  0.79761593  1.0
  H  H12  1  0.85987087  0.82481805  0.47357979  1.0
  H  H13  1  0.95960180  0.72601368  0.48604652  1.0
  H  H14  1  0.82615132  0.20176138  0.32668915  1.0
  H  H15  1  0.90893658  0.28901708  0.22906569  1.0
  C  C16  1  0.44962284  0.06379734  0.56873937  1.0
  C  C17  1  0.46013720  0.06844355  0.36728360  1.0
  C  C18  1  0.46939184  0.86710955  0.56415345  1.0
  C  C19  1  0.31121599  0.23965369  0.62057861  1.0
  C  C20  1  0.42233593  0.20034829  0.70537603  1.0
  C  C21  1  0.28363315  0.12241054  0.14246723  1.0
  C  C22  1  0.41932709  0.20496673  0.09634327  1.0
  C  C23  1  0.46821042  0.59536601  0.70382730  1.0
  C  C24  1  0.32512900  0.64279974  0.73952673  1.0
  C  C25  1  0.56719354  0.24359649  0.13816104  1.0
  C  C26  1  0.59907574  0.20033626  0.22713483  1.0
  C  C27  1  0.45064905  0.11804371  0.27388713  1.0
  C  C28  1  0.29004982  0.08183952  0.23014175  1.0
  C  C29  1  0.32068988  0.73060078  0.69111573  1.0
  C  C30  1  0.47812946  0.77333487  0.61047245  1.0
  C  C31  1  0.63994449  0.72535818  0.57625988  1.0
  C  C32  1  0.61753011  0.63605900  0.62330970  1.0
  C  C33  1  0.53852168  0.11612621  0.74644597  1.0
  C  C34  1  0.56368270  0.06931452  0.70340220  1.0
  C  C35  1  0.43971736  0.10821835  0.61862253  1.0
  C  C36  1  0.30896664  0.19200485  0.57977474  1.0
  C  C37  1  0.44257145  0.37765468  0.74572402  1.0
  C  C38  1  0.40158955  0.24428976  0.88011927  1.0
  C  C39  1  0.41818635  0.24826992  0.75171053  1.0
  C  C40  1  0.45612784  0.50167584  0.75103574  1.0
  C  C41  1  0.43008652  0.37947301  0.87966569  1.0
  C  C42  1  0.41001661  0.25130445  0.00284467  1.0
  N  N43  1  0.42489702  0.33383748  0.83516369  1.0
  N  N44  1  0.40023433  0.20212603  0.83704943  1.0
  N  N45  1  0.43543677  0.33361883  0.70453434  1.0
  N  N46  1  0.46648771  0.46222363  0.70439035  1.0
  N  N47  1  0.43569284  0.46429847  0.83619467  1.0
  N  N48  1  0.38464174  0.20381936  0.96470183  1.0
  N  N49  1  0.43121595  0.33675008  0.96424499  1.0
  N  N50  1  0.68377258  0.98662727  0.74533717  1.0
  N  N51  1  0.79373610  0.76288035  0.49760097  1.0
  N  N52  1  0.75055517  0.24033061  0.26576708  1.0
  O  O53  1  0.70287325  0.90703077  0.50781407  1.0
  O  O54  1  0.68959140  0.00855004  0.58383583  1.0
  O  O55  1  0.69533715  0.08411292  0.40668604  1.0
  O  O56  1  0.23039196  0.90542188  0.58161152  1.0
  O  O57  1  0.23300093  0.01131009  0.40583996  1.0
  O  O58  1  0.22104258  0.08222890  0.51217548  1.0
