# generated using pymatgen
data_CdH21C27(NO)5
_symmetry_space_group_name_H-M   'P 1'
_cell_length_a   10.98432318
_cell_length_b   20.84439439
_cell_length_c   20.84430403
_cell_angle_alpha   59.99880798
_cell_angle_beta   89.99986289
_cell_angle_gamma   90.00006983
_symmetry_Int_Tables_number   1
_chemical_formula_structural   CdH21C27(NO)5
_chemical_formula_sum   'Cd6 H126 C162 N30 O30'
_cell_volume   4133.09509787
_cell_formula_units_Z   6
loop_
 _symmetry_equiv_pos_site_id
 _symmetry_equiv_pos_as_xyz
  1  'x, y, z'
loop_
 _atom_site_type_symbol
 _atom_site_label
 _atom_site_symmetry_multiplicity
 _atom_site_fract_x
 _atom_site_fract_y
 _atom_site_fract_z
 _atom_site_occupancy
  Cd  Cd0  1  0.05995517  0.45091894  0.57001551  1.0
  Cd  Cd1  1  0.22656976  0.42998782  0.02092745  1.0
  Cd  Cd2  1  0.39328291  0.97905977  0.45092413  1.0
  Cd  Cd3  1  0.55995046  0.54908510  0.42998266  1.0
  Cd  Cd4  1  0.72656532  0.57000905  0.97906704  1.0
  Cd  Cd5  1  0.89328646  0.02093822  0.54907888  1.0
  H  H6  1  0.15432784  0.77207488  0.13694260  1.0
  H  H7  1  0.32096868  0.86304043  0.90903835  1.0
  H  H8  1  0.48764247  0.09096776  0.77207573  1.0
  H  H9  1  0.65432588  0.22792823  0.86305371  1.0
  H  H10  1  0.82098368  0.13694829  0.09097256  1.0
  H  H11  1  0.98763584  0.90903218  0.22792543  1.0
  H  H12  1  0.94405408  0.73774866  0.19252065  1.0
  H  H13  1  0.11068707  0.80747598  0.93027499  1.0
  H  H14  1  0.27737559  0.06971467  0.73774344  1.0
  H  H15  1  0.44405000  0.26225699  0.80747671  1.0
  H  H16  1  0.61070229  0.19251424  0.06973361  1.0
  H  H17  1  0.77736794  0.93028643  0.26225705  1.0
  H  H18  1  0.92047552  0.63953354  0.32385983  1.0
  H  H19  1  0.08709413  0.67614696  0.96336381  1.0
  H  H20  1  0.25381947  0.03659806  0.63952247  1.0
  H  H21  1  0.42047681  0.36047366  0.67613536  1.0
  H  H22  1  0.58710798  0.32384528  0.03663209  1.0
  H  H23  1  0.75381146  0.96339997  0.36048029  1.0
  H  H24  1  0.37752168  0.80303412  0.22236923  1.0
  H  H25  1  0.54411907  0.77761454  0.02541335  1.0
  H  H26  1  0.71085652  0.97458443  0.80303604  1.0
  H  H27  1  0.87751913  0.19696606  0.77762939  1.0
  H  H28  1  0.04416149  0.22238864  0.97458651  1.0
  H  H29  1  0.21084194  0.02541171  0.19696181  1.0
  H  H30  1  0.59425977  0.82768724  0.18570212  1.0
  H  H31  1  0.76085348  0.81429091  0.01341268  1.0
  H  H32  1  0.92758626  0.98660701  0.82769725  1.0
  H  H33  1  0.09425546  0.17230672  0.81430761  1.0
  H  H34  1  0.26089393  0.18570515  0.98660169  1.0
  H  H35  1  0.42757177  0.01339308  0.17229682  1.0
  H  H36  1  0.58317702  0.63763907  0.15087475  1.0
  H  H37  1  0.74983742  0.84912788  0.78853223  1.0
  H  H38  1  0.91649956  0.21148545  0.63764696  1.0
  H  H39  1  0.08317298  0.36235875  0.84912725  1.0
  H  H40  1  0.24982943  0.15086370  0.21148438  1.0
  H  H41  1  0.41648960  0.78851125  0.36234715  1.0
  H  H42  1  0.36659279  0.62066909  0.19126555  1.0
  H  H43  1  0.53325320  0.80873413  0.81193305  1.0
  H  H44  1  0.69992364  0.18806090  0.62066608  1.0
  H  H45  1  0.86659414  0.37933322  0.80872976  1.0
  H  H46  1  0.03324814  0.19126361  0.18806905  1.0
  H  H47  1  0.19991548  0.81193605  0.37933013  1.0
  H  H48  1  0.34216916  0.48879603  0.60485665  1.0
  H  H49  1  0.50879723  0.39516432  0.09362754  1.0
  H  H50  1  0.67549585  0.90634382  0.48880440  1.0
  H  H51  1  0.84216178  0.51120849  0.39514093  1.0
  H  H52  1  0.00878530  0.60483794  0.90636741  1.0
  H  H53  1  0.17549912  0.09365901  0.51120018  1.0
  H  H54  1  0.39628425  0.52186496  0.71540726  1.0
  H  H55  1  0.56296216  0.28461118  0.23724216  1.0
  H  H56  1  0.72962639  0.76272929  0.52186391  1.0
  H  H57  1  0.89627912  0.47814081  0.28459076  1.0
  H  H58  1  0.06295386  0.71539506  0.76275545  1.0
  H  H59  1  0.22963014  0.23727322  0.47813945  1.0
  H  H60  1  0.01435357  0.50067389  0.70473237  1.0
  H  H61  1  0.18101973  0.29525074  0.20541753  1.0
  H  H62  1  0.34769125  0.79458650  0.50066749  1.0
  H  H63  1  0.51434753  0.49932320  0.29526812  1.0
  H  H64  1  0.68101006  0.70475378  0.79457983  1.0
  H  H65  1  0.84769453  0.20541666  0.49932897  1.0
  H  H66  1  0.23902165  0.50159197  0.83202738  1.0
  H  H67  1  0.40574320  0.16797336  0.33360358  1.0
  H  H68  1  0.57238223  0.66637792  0.50158875  1.0
  H  H69  1  0.73902165  0.49840715  0.16797319  1.0
  H  H70  1  0.90573440  0.83203353  0.66639221  1.0
  H  H71  1  0.07238610  0.33362573  0.49840829  1.0
  H  H72  1  0.09060844  0.53310580  0.79826173  1.0
  H  H73  1  0.25731807  0.20171725  0.33136590  1.0
  H  H74  1  0.42396428  0.66862819  0.53309250  1.0
  H  H75  1  0.59061094  0.46689217  0.20173805  1.0
  H  H76  1  0.75730919  0.79828596  0.66863131  1.0
  H  H77  1  0.92396527  0.33137544  0.46690600  1.0
  H  H78  1  0.31666418  0.59502984  0.85407369  1.0
  H  H79  1  0.48335170  0.14592289  0.44910611  1.0
  H  H80  1  0.64999978  0.55088267  0.59504156  1.0
  H  H81  1  0.81665952  0.40496969  0.14592615  1.0
  H  H82  1  0.98335804  0.85407753  0.55089505  1.0
  H  H83  1  0.14999979  0.44912126  0.40495310  1.0
  H  H84  1  0.37272342  0.72477642  0.81011931  1.0
  H  H85  1  0.53939324  0.18987879  0.53489533  1.0
  H  H86  1  0.70603561  0.46509445  0.72479563  1.0
  H  H87  1  0.87272098  0.27522361  0.18988153  1.0
  H  H88  1  0.03940016  0.81012060  0.46510732  1.0
  H  H89  1  0.20603094  0.53491170  0.27519947  1.0
  H  H90  1  0.21054102  0.78944112  0.59779052  1.0
  H  H91  1  0.37720813  0.40219899  0.38722083  1.0
  H  H92  1  0.54384175  0.61277198  0.78943071  1.0
  H  H93  1  0.71054111  0.21055856  0.40221177  1.0
  H  H94  1  0.87720906  0.59780213  0.61278167  1.0
  H  H95  1  0.04384250  0.38722895  0.21056695  1.0
  H  H96  1  0.15353042  0.65897984  0.64242684  1.0
  H  H97  1  0.32021432  0.35756375  0.30139616  1.0
  H  H98  1  0.48686185  0.69859841  0.65896313  1.0
  H  H99  1  0.65353193  0.34102070  0.35757556  1.0
  H  H100  1  0.82021041  0.64243914  0.69860368  1.0
  H  H101  1  0.98686698  0.30140292  0.34103525  1.0
  H  H102  1  0.38051034  0.85362031  0.71234753  1.0
  H  H103  1  0.54717164  0.28764624  0.56596858  1.0
  H  H104  1  0.71381455  0.43402716  0.85363291  1.0
  H  H105  1  0.88050534  0.14637980  0.28765218  1.0
  H  H106  1  0.04717211  0.71235371  0.43403295  1.0
  H  H107  1  0.21380235  0.56597895  0.14635940  1.0
  H  H108  1  0.35327995  0.87627868  0.61952883  1.0
  H  H109  1  0.51994492  0.38046500  0.49580589  1.0
  H  H110  1  0.68657394  0.50419035  0.87628618  1.0
  H  H111  1  0.85327812  0.12371974  0.38047039  1.0
  H  H112  1  0.01994213  0.61953442  0.50419570  1.0
  H  H113  1  0.18656714  0.49581515  0.12370730  1.0
  H  H114  1  0.17904940  0.84615242  0.79187772  1.0
  H  H115  1  0.34571791  0.20811815  0.63803703  1.0
  H  H116  1  0.51237103  0.36195176  0.84617747  1.0
  H  H117  1  0.67904842  0.15384309  0.20812519  1.0
  H  H118  1  0.84571951  0.79188264  0.36196608  1.0
  H  H119  1  0.01235441  0.63804644  0.15382080  1.0
  H  H120  1  0.96200908  0.92335385  0.74127385  1.0
  H  H121  1  0.12867860  0.25872140  0.66463219  1.0
  H  H122  1  0.29531967  0.33536753  0.92336349  1.0
  H  H123  1  0.46200708  0.07664441  0.25872680  1.0
  H  H124  1  0.62868384  0.74127981  0.33536308  1.0
  H  H125  1  0.79530408  0.66462681  0.07663807  1.0
  H  H126  1  0.15476906  0.93616028  0.55929709  1.0
  H  H127  1  0.32143845  0.44069734  0.49545203  1.0
  H  H128  1  0.48805634  0.50455255  0.93614486  1.0
  H  H129  1  0.65476500  0.06384089  0.44070310  1.0
  H  H130  1  0.82143978  0.55930322  0.50454671  1.0
  H  H131  1  0.98804952  0.49544984  0.06384852  1.0
  C  C132  1  0.09988664  0.56207342  0.42443336  1.0
  C  C133  1  0.26648872  0.57557884  0.98647016  1.0
  C  C134  1  0.43323896  0.01348908  0.56207111  1.0
  C  C135  1  0.59988828  0.43793179  0.57556252  1.0
  C  C136  1  0.76650290  0.42442081  0.01351595  1.0
  C  C137  1  0.93323247  0.98650424  0.43793458  1.0
  C  C138  1  0.34327643  0.60238460  0.35755596  1.0
  C  C139  1  0.50989484  0.64243051  0.95995017  1.0
  C  C140  1  0.67662485  0.04004440  0.60239614  1.0
  C  C141  1  0.84327768  0.39762032  0.64244273  1.0
  C  C142  1  0.00990722  0.35756697  0.04004090  1.0
  C  C143  1  0.17661695  0.95993990  0.39761287  1.0
  C  C144  1  0.11283898  0.62015666  0.34418765  1.0
  C  C145  1  0.27945461  0.65581698  0.96432496  1.0
  C  C146  1  0.44618093  0.03564496  0.62015720  1.0
  C  C147  1  0.61284103  0.37985009  0.65580708  1.0
  C  C148  1  0.77946578  0.34418164  0.03566610  1.0
  C  C149  1  0.94617557  0.96435257  0.37984681  1.0
  C  C150  1  0.23043758  0.63974298  0.31348308  1.0
  C  C151  1  0.39705773  0.68651254  0.95321523  1.0
  C  C152  1  0.56377941  0.04676757  0.63974362  1.0
  C  C153  1  0.73043854  0.36026402  0.68651419  1.0
  C  C154  1  0.89706878  0.31348550  0.04678001  1.0
  C  C155  1  0.06377257  0.95323090  0.36025898  1.0
  C  C156  1  0.24307491  0.69402023  0.23867794  1.0
  C  C157  1  0.40970589  0.76131395  0.93269877  1.0
  C  C158  1  0.57641641  0.06729138  0.69402341  1.0
  C  C159  1  0.74307814  0.30598235  0.76131763  1.0
  C  C160  1  0.90971849  0.23868253  0.06729866  1.0
  C  C161  1  0.07640522  0.93270532  0.30598082  1.0
  C  C162  1  0.14150575  0.73004023  0.19498287  1.0
  C  C163  1  0.30813848  0.80500533  0.92503150  1.0
  C  C164  1  0.47484249  0.07496273  0.73003969  1.0
  C  C165  1  0.64150961  0.26996285  0.80501348  1.0
  C  C166  1  0.80815368  0.19498737  0.07497336  1.0
  C  C167  1  0.97483206  0.92503644  0.26996204  1.0
  C  C168  1  0.02480662  0.71095040  0.22591013  1.0
  C  C169  1  0.19143391  0.77408339  0.93686360  1.0
  C  C170  1  0.35814256  0.06312184  0.71095240  1.0
  C  C171  1  0.52480793  0.28905461  0.77408701  1.0
  C  C172  1  0.69145197  0.22590740  0.06314205  1.0
  C  C173  1  0.85813481  0.93687782  0.28905012  1.0
  C  C174  1  0.01117059  0.65564436  0.29991646  1.0
  C  C175  1  0.17779252  0.70008831  0.95553811  1.0
  C  C176  1  0.34450960  0.04443069  0.65564110  1.0
  C  C177  1  0.51117236  0.34436097  0.70007905  1.0
  C  C178  1  0.67780446  0.29990656  0.04445649  1.0
  C  C179  1  0.84450164  0.95556611  0.34436423  1.0
  C  C180  1  0.42858309  0.76923752  0.20541891  1.0
  C  C181  1  0.59519564  0.79457100  0.97466797  1.0
  C  C182  1  0.76191874  0.02533229  0.76924369  1.0
  C  C183  1  0.92857962  0.23076199  0.79458015  1.0
  C  C184  1  0.09522503  0.20543053  0.02533623  1.0
  C  C185  1  0.26190253  0.97466426  0.23075628  1.0
  C  C186  1  0.54828192  0.78152454  0.18532512  1.0
  C  C187  1  0.71489263  0.81466842  0.96687053  1.0
  C  C188  1  0.88161204  0.03314742  0.78153161  1.0
  C  C189  1  0.04827589  0.21847107  0.81468029  1.0
  C  C190  1  0.21492103  0.18533135  0.03314117  1.0
  C  C191  1  0.38159586  0.96685463  0.21846423  1.0
  C  C192  1  0.61573258  0.73329734  0.16627735  1.0
  C  C193  1  0.78235531  0.83372661  0.89959634  1.0
  C  C194  1  0.94905743  0.10042636  0.73330567  1.0
  C  C195  1  0.11572748  0.26669763  0.83372846  1.0
  C  C196  1  0.28237153  0.16626453  0.10042407  1.0
  C  C197  1  0.44904726  0.89957533  0.26669002  1.0
  C  C198  1  0.54179532  0.67469902  0.16735829  1.0
  C  C199  1  0.70843737  0.83264132  0.84207403  1.0
  C  C200  1  0.87511771  0.15794254  0.67470471  1.0
  C  C201  1  0.04179218  0.32529920  0.83264380  1.0
  C  C202  1  0.20844332  0.16735322  0.15794045  1.0
  C  C203  1  0.37511078  0.84205704  0.32529224  1.0
  C  C204  1  0.42248887  0.66526547  0.18821210  1.0
  C  C205  1  0.58913366  0.81178027  0.85348557  1.0
  C  C206  1  0.75581770  0.14651540  0.66526645  1.0
  C  C207  1  0.92248920  0.33473618  0.81178365  1.0
  C  C208  1  0.08914152  0.18821877  0.14651975  1.0
  C  C209  1  0.25580984  0.85348102  0.33473186  1.0
  C  C210  1  0.28158000  0.49596771  0.64200852  1.0
  C  C211  1  0.44822440  0.35800905  0.13795710  1.0
  C  C212  1  0.61491490  0.86201976  0.49597051  1.0
  C  C213  1  0.78157460  0.50403726  0.35798808  1.0
  C  C214  1  0.94821519  0.64199524  0.86203915  1.0
  C  C215  1  0.11492012  0.13797946  0.50403641  1.0
  C  C216  1  0.31020524  0.51222467  0.69639194  1.0
  C  C217  1  0.47686317  0.30361624  0.20859802  1.0
  C  C218  1  0.64354195  0.79138177  0.51222078  1.0
  C  C219  1  0.81019914  0.48777931  0.30360571  1.0
  C  C220  1  0.97685623  0.69638891  0.79140038  1.0
  C  C221  1  0.14354831  0.20861945  0.48777833  1.0
  C  C222  1  0.11020748  0.50177079  0.69196716  1.0
  C  C223  1  0.27686546  0.30803121  0.19373300  1.0
  C  C224  1  0.44354332  0.80625944  0.50176468  1.0
  C  C225  1  0.61020138  0.49822914  0.30803257  1.0
  C  C226  1  0.77685753  0.69197395  0.80626417  1.0
  C  C227  1  0.94354840  0.19374381  0.49823269  1.0
  C  C228  1  0.18717701  0.53923157  0.78217543  1.0
  C  C229  1  0.35387754  0.21781645  0.32140583  1.0
  C  C230  1  0.52052644  0.67858830  0.53922529  1.0
  C  C231  1  0.68717579  0.46076870  0.21782469  1.0
  C  C232  1  0.85387131  0.78218836  0.67859117  1.0
  C  C233  1  0.02053045  0.32141306  0.46077242  1.0
  C  C234  1  0.22836405  0.61828602  0.75223866  1.0
  C  C235  1  0.39505797  0.24775942  0.37051919  1.0
  C  C236  1  0.56170034  0.62946934  0.61828368  1.0
  C  C237  1  0.72836433  0.38171472  0.24776248  1.0
  C  C238  1  0.89505463  0.75224339  0.62947995  1.0
  C  C239  1  0.06170482  0.37053154  0.38171505  1.0
  C  C240  1  0.29197827  0.63749780  0.79814020  1.0
  C  C241  1  0.45866570  0.20185534  0.43563525  1.0
  C  C242  1  0.62531270  0.56435281  0.63750534  1.0
  C  C243  1  0.79197962  0.36250161  0.20186081  1.0
  C  C244  1  0.95866457  0.79814559  0.56436485  1.0
  C  C245  1  0.12531105  0.43565141  0.36249159  1.0
  C  C246  1  0.32406414  0.71104864  0.77298923  1.0
  C  C247  1  0.49073860  0.22700490  0.48403626  1.0
  C  C248  1  0.65738546  0.51595641  0.71106006  1.0
  C  C249  1  0.82406339  0.28894875  0.22701393  1.0
  C  C250  1  0.99074310  0.77299566  0.51596654  1.0
  C  C251  1  0.15738152  0.48404958  0.28893625  1.0
  C  C252  1  0.29394143  0.76622864  0.70126807  1.0
  C  C253  1  0.46061488  0.29872478  0.46749128  1.0
  C  C254  1  0.62724876  0.53250109  0.76623238  1.0
  C  C255  1  0.79394114  0.23376986  0.29873571  1.0
  C  C256  1  0.96061186  0.70127779  0.53250937  1.0
  C  C257  1  0.12724868  0.46750273  0.23376343  1.0
  C  C258  1  0.23418818  0.74664546  0.65403590  1.0
  C  C259  1  0.40086357  0.34595479  0.40067617  1.0
  C  C260  1  0.56750556  0.59931961  0.74664066  1.0
  C  C261  1  0.73419045  0.25335577  0.34596523  1.0
  C  C262  1  0.90086377  0.65404494  0.59932626  1.0
  C  C263  1  0.06750524  0.40068335  0.25335584  1.0
  C  C264  1  0.20168808  0.67329395  0.67934087  1.0
  C  C265  1  0.36837097  0.32065449  0.35262749  1.0
  C  C266  1  0.53501766  0.64736635  0.67328537  1.0
  C  C267  1  0.70169155  0.32670647  0.32066088  1.0
  C  C268  1  0.86836738  0.67934745  0.64737336  1.0
  C  C269  1  0.03501780  0.35263696  0.32671231  1.0
  C  C270  1  0.31616962  0.84675830  0.67590321  1.0
  C  C271  1  0.48283554  0.32409012  0.52265681  1.0
  C  C272  1  0.64947201  0.47733683  0.84676553  1.0
  C  C273  1  0.81616721  0.15324094  0.32409720  1.0
  C  C274  1  0.98283635  0.67590967  0.47734657  1.0
  C  C275  1  0.14946240  0.52266929  0.15322858  1.0
  C  C276  1  0.14141319  0.87687563  0.73654986  1.0
  C  C277  1  0.30807985  0.26344698  0.61342589  1.0
  C  C278  1  0.47472188  0.38656951  0.87688814  1.0
  C  C279  1  0.64141190  0.12312325  0.26345202  1.0
  C  C280  1  0.80808212  0.73655382  0.38657619  1.0
  C  C281  1  0.97470505  0.61343132  0.12311027  1.0
  C  C282  1  0.03392465  0.91486551  0.71061555  1.0
  C  C283  1  0.20059121  0.28938002  0.62548562  1.0
  C  C284  1  0.36722767  0.37450945  0.91487510  1.0
  C  C285  1  0.53392406  0.08513305  0.28938491  1.0
  C  C286  1  0.70059529  0.71062171  0.37451447  1.0
  C  C287  1  0.86721377  0.62548784  0.08512353  1.0
  C  C288  1  0.13058718  0.92283922  0.61509627  1.0
  C  C289  1  0.29725291  0.38489915  0.53793370  1.0
  C  C290  1  0.46387094  0.46206747  0.92283459  1.0
  C  C291  1  0.63058341  0.07716218  0.38490342  1.0
  C  C292  1  0.79725183  0.61510151  0.46206674  1.0
  C  C293  1  0.96386143  0.53793328  0.07716107  1.0
  N  N294  1  0.15648809  0.48932054  0.64019946  1.0
  N  N295  1  0.32312705  0.35980494  0.12951418  1.0
  N  N296  1  0.48982210  0.87047486  0.48932016  1.0
  N  N297  1  0.65648360  0.51067975  0.35979961  1.0
  N  N298  1  0.82311780  0.64019790  0.87048288  1.0
  N  N299  1  0.98982607  0.12952804  0.51067988  1.0
  N  N300  1  0.20085843  0.51582530  0.72737879  1.0
  N  N301  1  0.36753452  0.27262029  0.24319489  1.0
  N  N302  1  0.53420061  0.75679484  0.51581430  1.0
  N  N303  1  0.70085428  0.48417677  0.27261965  1.0
  N  N304  1  0.86752599  0.72738619  0.75680263  1.0
  N  N305  1  0.03420890  0.24320681  0.48418670  1.0
  N  N306  1  0.20177391  0.88312240  0.67534399  1.0
  N  N307  1  0.36843606  0.32465055  0.55846322  1.0
  N  N308  1  0.53507248  0.44153125  0.88312628  1.0
  N  N309  1  0.70177141  0.11687809  0.32465666  1.0
  N  N310  1  0.86843612  0.67534980  0.44153985  1.0
  N  N311  1  0.03506039  0.55847277  0.11686806  1.0
  N  N312  1  0.02853445  0.94307404  0.63474985  1.0
  N  N313  1  0.19519553  0.36524527  0.57782029  1.0
  N  N314  1  0.36182178  0.42218116  0.94306660  1.0
  N  N315  1  0.52853072  0.05692767  0.36525005  1.0
  N  N316  1  0.69519832  0.63475659  0.42217761  1.0
  N  N317  1  0.86180972  0.57781935  0.05693038  1.0
  N  N318  1  0.36431870  0.71155424  0.20749642  1.0
  N  N319  1  0.53094965  0.79249165  0.91905796  1.0
  N  N320  1  0.69765280  0.08094211  0.71156067  1.0
  N  N321  1  0.86431719  0.28844763  0.79250168  1.0
  N  N322  1  0.03096424  0.20750497  0.08094637  1.0
  N  N323  1  0.19763893  0.91905624  0.28844331  1.0
  O  O324  1  0.99763417  0.52798550  0.44729172  1.0
  O  O325  1  0.16423298  0.55271501  0.97525984  1.0
  O  O326  1  0.33098787  0.02472569  0.52797990  1.0
  O  O327  1  0.49763537  0.47201872  0.55270665  1.0
  O  O328  1  0.66424717  0.44728101  0.02473147  1.0
  O  O329  1  0.83098029  0.97527295  0.47202270  1.0
  O  O330  1  0.19010828  0.54890795  0.46691309  1.0
  O  O331  1  0.35670809  0.53309122  0.01576767  1.0
  O  O332  1  0.52345640  0.98416663  0.54891262  1.0
  O  O333  1  0.69011198  0.45109590  0.53308370  1.0
  O  O334  1  0.85672068  0.46690751  0.98421271  1.0
  O  O335  1  0.02344792  0.01582930  0.45109117  1.0
  O  O336  1  0.36984966  0.53846246  0.36798340  1.0
  O  O337  1  0.53651197  0.63201937  0.90645022  1.0
  O  O338  1  0.70320294  0.09353172  0.53846816  1.0
  O  O339  1  0.86985383  0.46154183  0.63201468  1.0
  O  O340  1  0.03652322  0.36797389  0.09354357  1.0
  O  O341  1  0.20318734  0.90644934  0.46153969  1.0
  O  O342  1  0.40996465  0.63957036  0.37709647  1.0
  O  O343  1  0.57655605  0.62287475  0.01669051  1.0
  O  O344  1  0.74330861  0.98331712  0.63958869  1.0
  O  O345  1  0.90996955  0.36043557  0.62290318  1.0
  O  O346  1  0.07656692  0.37712263  0.98329988  1.0
  O  O347  1  0.24330510  0.01666725  0.36042793  1.0
  O  O348  1  0.72699847  0.74136720  0.14957667  1.0
  O  O349  1  0.89362029  0.85043178  0.89097464  1.0
  O  O350  1  0.06031992  0.10905750  0.74138282  1.0
  O  O351  1  0.22699055  0.25862292  0.85043611  1.0
  O  O352  1  0.39363370  0.14955299  0.10905385  1.0
  O  O353  1  0.56030856  0.89094367  0.25861148  1.0
