# generated using pymatgen
data_ZnBH20C19(N3O)2
_symmetry_space_group_name_H-M   'P 1'
_cell_length_a   15.59357311
_cell_length_b   15.59339385
_cell_length_c   15.59364571
_cell_angle_alpha   105.52783327
_cell_angle_beta   105.52825932
_cell_angle_gamma   117.68263629
_symmetry_Int_Tables_number   1
_chemical_formula_structural   ZnBH20C19(N3O)2
_chemical_formula_sum   'Zn4 B4 H80 C76 N24 O8'
_cell_volume   2873.30598461
_cell_formula_units_Z   4
loop_
 _symmetry_equiv_pos_site_id
 _symmetry_equiv_pos_as_xyz
  1  'x, y, z'
loop_
 _atom_site_type_symbol
 _atom_site_label
 _atom_site_symmetry_multiplicity
 _atom_site_fract_x
 _atom_site_fract_y
 _atom_site_fract_z
 _atom_site_occupancy
  Zn  Zn0  1  0.88888724  0.93060627  0.27189835  1.0
  Zn  Zn1  1  0.38301371  0.11111622  0.04172334  1.0
  Zn  Zn2  1  0.65870454  0.61698504  0.72810214  1.0
  Zn  Zn3  1  0.06939321  0.34128994  0.95828217  1.0
  B  B4  1  0.31050560  0.26222728  0.36267413  1.0
  B  B5  1  0.05216838  0.68949503  0.95172000  1.0
  B  B6  1  0.89955211  0.94783117  0.63732412  1.0
  B  B7  1  0.73776996  0.10044689  0.04827760  1.0
  H  H8  1  0.26790084  0.04834545  0.29910696  1.0
  H  H9  1  0.03121076  0.73210605  0.78044839  1.0
  H  H10  1  0.74924102  0.96879542  0.70089012  1.0
  H  H11  1  0.95164638  0.25075866  0.21955232  1.0
  H  H12  1  0.84090499  0.56029237  0.10408450  1.0
  H  H13  1  0.26318316  0.15909366  0.71939655  1.0
  H  H14  1  0.45620891  0.73681839  0.89591032  1.0
  H  H15  1  0.43969686  0.54378656  0.28060324  1.0
  H  H16  1  0.34205003  0.20697246  0.52765640  1.0
  H  H17  1  0.18560641  0.65794642  0.86492333  1.0
  H  H18  1  0.67931977  0.81439638  0.47233848  1.0
  H  H19  1  0.79302302  0.32068624  0.13507796  1.0
  H  H20  1  0.49398728  0.45704331  0.85076496  1.0
  H  H21  1  0.35677400  0.50601568  0.96305334  1.0
  H  H22  1  0.60628342  0.64322732  0.14923820  1.0
  H  H23  1  0.54295629  0.39371964  0.03694330  1.0
  H  H24  1  0.71963464  0.37753618  0.95045043  1.0
  H  H25  1  0.23081645  0.28036411  0.65790558  1.0
  H  H26  1  0.42708785  0.76918516  0.04954709  1.0
  H  H27  1  0.62245616  0.57291008  0.34209280  1.0
  H  H28  1  0.54571037  0.32785338  0.82451142  1.0
  H  H29  1  0.27880065  0.45429183  0.78214341  1.0
  H  H30  1  0.50334891  0.72120583  0.17548900  1.0
  H  H31  1  0.67214214  0.49665405  0.21785430  1.0
  H  H32  1  0.05971817  0.88507064  0.26202962  1.0
  H  H33  1  0.20232004  0.94028908  0.82535919  1.0
  H  H34  1  0.62304514  0.79769124  0.73797147  1.0
  H  H35  1  0.11492399  0.37695129  0.17464458  1.0
  H  H36  1  0.55908367  0.21410115  0.27240453  1.0
  H  H37  1  0.71331775  0.44091383  0.65501935  1.0
  H  H38  1  0.94170031  0.28668554  0.72760289  1.0
  H  H39  1  0.78589939  0.05830266  0.34498190  1.0
  H  H40  1  0.01538817  0.17433985  0.36631783  1.0
  H  H41  1  0.35093095  0.98461238  0.15895216  1.0
  H  H42  1  0.80801942  0.64906855  0.63368352  1.0
  H  H43  1  0.82566477  0.19197952  0.84105044  1.0
  H  H44  1  0.11145812  0.26024553  0.33407529  1.0
  H  H45  1  0.22261667  0.88854214  0.14878528  1.0
  H  H46  1  0.92617062  0.77738286  0.66592879  1.0
  H  H47  1  0.73975760  0.07382731  0.85121293  1.0
  H  H48  1  0.15612300  0.27055935  0.45540176  1.0
  H  H49  1  0.29927741  0.84387417  0.11443415  1.0
  H  H50  1  0.81515578  0.70071907  0.54459864  1.0
  H  H51  1  0.72944348  0.18484333  0.88556337  1.0
  H  H52  1  0.18989364  0.19114080  0.17093453  1.0
  H  H53  1  0.98103474  0.81010517  0.00124424  1.0
  H  H54  1  0.02020383  0.01895278  0.82906043  1.0
  H  H55  1  0.80886050  0.97979499  0.99875571  1.0
  H  H56  1  0.24918629  0.21609325  0.08925396  1.0
  H  H57  1  0.84006205  0.75081165  0.96690398  1.0
  H  H58  1  0.12683651  0.15992845  0.91074186  1.0
  H  H59  1  0.78390738  0.87315972  0.03309445  1.0
  H  H60  1  0.17821740  0.08355202  0.07941485  1.0
  H  H61  1  0.90119329  0.82178590  0.90533487  1.0
  H  H62  1  0.00413696  0.09879742  0.92058272  1.0
  H  H63  1  0.91644901  0.99586143  0.09466716  1.0
  H  H64  1  0.51854110  0.38317835  0.70776399  1.0
  H  H65  1  0.18922122  0.48145037  0.86463938  1.0
  H  H66  1  0.67542273  0.81078206  0.29223262  1.0
  H  H67  1  0.61681627  0.32458678  0.13536766  1.0
  H  H68  1  0.51736270  0.28792276  0.42912254  1.0
  H  H69  1  0.91176003  0.48263647  0.77055926  1.0
  H  H70  1  0.85880375  0.08824861  0.57088058  1.0
  H  H71  1  0.71207335  0.14119862  0.22943816  1.0
  H  H72  1  0.55667914  0.59278108  0.52660014  1.0
  H  H73  1  0.96992093  0.44332163  0.03610240  1.0
  H  H74  1  0.06618244  0.03007955  0.47340261  1.0
  H  H75  1  0.40722195  0.93381991  0.96389741  1.0
  H  H76  1  0.41640857  0.50480503  0.43609530  1.0
  H  H77  1  0.01968984  0.58359447  0.08839529  1.0
  H  H78  1  0.06870761  0.98031009  0.56390662  1.0
  H  H79  1  0.49520060  0.93129464  0.91160391  1.0
  H  H80  1  0.51000702  0.48070877  0.41294372  1.0
  H  H81  1  0.90293779  0.48999497  0.97070209  1.0
  H  H82  1  0.06776529  0.09706385  0.58705884  1.0
  H  H83  1  0.51929413  0.93223487  0.02929655  1.0
  H  H84  1  0.27722526  0.31101619  0.33423910  1.0
  H  H85  1  0.05701077  0.72277502  0.03378684  1.0
  H  H86  1  0.97677472  0.94298528  0.66576049  1.0
  H  H87  1  0.68898375  0.02322291  0.96621009  1.0
  C  C88  1  0.63748176  0.58224528  0.99108896  1.0
  C  C89  1  0.35360993  0.36252251  0.94476368  1.0
  C  C90  1  0.59115519  0.64639182  0.00890866  1.0
  C  C91  1  0.41775570  0.40884738  0.05523546  1.0
  C  C92  1  0.73649233  0.61007576  0.06192684  1.0
  C  C93  1  0.32544103  0.26351211  0.87358798  1.0
  C  C94  1  0.54814471  0.67456056  0.93806905  1.0
  C  C95  1  0.38992285  0.45185335  0.12641095  1.0
  C  C96  1  0.20238220  0.05190424  0.30654766  1.0
  C  C97  1  0.10417260  0.79762457  0.84952671  1.0
  C  C98  1  0.74535717  0.89583268  0.69344978  1.0
  C  C99  1  0.94808965  0.25463945  0.15047473  1.0
  C  C100  1  0.11816166  0.12780880  0.34051199  1.0
  C  C101  1  0.22235218  0.88184144  0.00964902  1.0
  C  C102  1  0.78729738  0.77764895  0.65948863  1.0
  C  C103  1  0.87218988  0.21269987  0.99035059  1.0
  C  C104  1  0.76479328  0.53597793  0.04631027  1.0
  C  C105  1  0.28152153  0.23520861  0.77119011  1.0
  C  C106  1  0.48966760  0.71848143  0.95368777  1.0
  C  C107  1  0.46401697  0.51033050  0.22880906  1.0
  C  C108  1  0.39794183  0.29151507  0.54640517  1.0
  C  C109  1  0.14846567  0.60205604  0.89357553  1.0
  C  C110  1  0.74511383  0.85153951  0.45359126  1.0
  C  C111  1  0.70848074  0.25489212  0.10642789  1.0
  C  C112  1  0.57158018  0.48062190  0.90503793  1.0
  C  C113  1  0.33345644  0.42842334  0.90904270  1.0
  C  C114  1  0.57559043  0.66654677  0.09496461  1.0
  C  C115  1  0.51937715  0.42441394  0.09095458  1.0
  C  C116  1  0.33575377  0.19776065  0.20613062  1.0
  C  C117  1  0.87037394  0.66424627  0.86200383  1.0
  C  C118  1  0.99162695  0.12962114  0.79386899  1.0
  C  C119  1  0.80224035  0.00837092  0.13799449  1.0
  C  C120  1  0.69778951  0.43528841  0.96112659  1.0
  C  C121  1  0.26333733  0.30221165  0.73750252  1.0
  C  C122  1  0.47416564  0.73666694  0.03887368  1.0
  C  C123  1  0.56470519  0.52583234  0.26249610  1.0
  C  C124  1  0.81666370  0.71810917  0.15496049  1.0
  C  C125  1  0.33829977  0.18334061  0.90145544  1.0
  C  C126  1  0.56315018  0.66170136  0.84503888  1.0
  C  C127  1  0.28188394  0.43684309  0.09854550  1.0
  C  C128  1  0.60069915  0.40793054  0.88993902  1.0
  C  C129  1  0.28923830  0.39930226  0.80723206  1.0
  C  C130  1  0.51799915  0.71076711  0.11006257  1.0
  C  C131  1  0.59206496  0.48200331  0.19276586  1.0
  C  C132  1  0.10045303  0.97217141  0.28778751  1.0
  C  C133  1  0.18734072  0.89955042  0.87172408  1.0
  C  C134  1  0.68438895  0.81266770  0.71221231  1.0
  C  C135  1  0.02782369  0.31561025  0.12827931  1.0
  C  C136  1  0.09880641  0.21249303  0.37580787  1.0
  C  C137  1  0.27700157  0.90119422  0.11368670  1.0
  C  C138  1  0.83668540  0.72299721  0.62419359  1.0
  C  C139  1  0.78750827  0.16331298  0.88631212  1.0
  C  C140  1  0.23242571  0.17093382  0.13282136  1.0
  C  C141  1  0.90039028  0.76757414  0.93850543  1.0
  C  C142  1  0.03811022  0.09959906  0.86717486  1.0
  C  C143  1  0.82906713  0.96188787  0.06149361  1.0
  C  C144  1  0.48531182  0.37859209  0.63489419  1.0
  C  C145  1  0.14958281  0.51468355  0.89328154  1.0
  C  C146  1  0.74370390  0.85042207  0.36510333  1.0
  C  C147  1  0.62140504  0.25630354  0.10672419  1.0
  C  C148  1  0.49060975  0.21690251  0.27122267  1.0
  C  C149  1  0.78060986  0.50938789  0.72629235  1.0
  C  C150  1  0.94568173  0.21939209  0.72878333  1.0
  C  C151  1  0.78309717  0.05431918  0.27370800  1.0
  C  C152  1  0.47111928  0.25410785  0.34892075  1.0
  C  C153  1  0.87780126  0.52888010  0.78298650  1.0
  C  C154  1  0.90518665  0.12220288  0.65108080  1.0
  C  C155  1  0.74589038  0.09481429  0.21701115  1.0
  C  C156  1  0.47008086  0.43805107  0.52302845  1.0
  C  C157  1  0.05294734  0.52991808  0.96796950  1.0
  C  C158  1  0.91502586  0.94705426  0.47697166  1.0
  C  C159  1  0.56194866  0.08497934  0.03203026  1.0
  C  C160  1  0.48962858  0.50817911  0.47217549  1.0
  C  C161  1  0.98254766  0.51037277  0.01855032  1.0
  C  C162  1  0.03600485  0.01745325  0.52782659  1.0
  C  C163  1  0.49182390  0.96399779  0.98144846  1.0
  N  N164  1  0.21290801  0.14983314  0.33935500  1.0
  N  N165  1  0.12644970  0.78709434  0.93692667  1.0
  N  N166  1  0.81047747  0.87355194  0.66064161  1.0
  N  N167  1  0.85016268  0.18951933  0.06307256  1.0
  N  N168  1  0.40541382  0.18133652  0.18248640  1.0
  N  N169  1  0.77706964  0.59458544  0.77592175  1.0
  N  N170  1  0.99884955  0.22292702  0.81751677  1.0
  N  N171  1  0.81866621  0.00115163  0.22407873  1.0
  N  N172  1  0.04827817  0.02050597  0.30903742  1.0
  N  N173  1  0.26076386  0.95172634  0.97223218  1.0
  N  N174  1  0.71147118  0.73924076  0.69096529  1.0
  N  N175  1  0.97949240  0.28852626  0.02776972  1.0
  N  N176  1  0.37322022  0.24182602  0.30715116  1.0
  N  N177  1  0.93393116  0.62678181  0.86860265  1.0
  N  N178  1  0.93467249  0.06606926  0.69284869  1.0
  N  N179  1  0.75817256  0.06532473  0.13139339  1.0
  N  N180  1  0.38864098  0.32964924  0.47612254  1.0
  N  N181  1  0.08748265  0.61135886  0.94100889  1.0
  N  N182  1  0.85352854  0.91251975  0.52387573  1.0
  N  N183  1  0.67034916  0.14647565  0.05899099  1.0
  N  N184  1  0.53010634  0.46973907  0.61951265  1.0
  N  N185  1  0.08940476  0.46988989  0.93963276  1.0
  N  N186  1  0.85023289  0.91059791  0.38048694  1.0
  N  N187  1  0.53025930  0.14977457  0.06037191  1.0
  O  O188  1  0.81410436  0.79812597  0.14719492  1.0
  O  O189  1  0.33309012  0.18590060  0.98402795  1.0
  O  O190  1  0.65093119  0.66690810  0.85280752  1.0
  O  O191  1  0.20187247  0.34906176  0.01597294  1.0
  O  O192  1  0.88034543  0.72706407  0.23083522  1.0
  O  O193  1  0.35048912  0.11965236  0.84672964  1.0
  O  O194  1  0.49623557  0.64951435  0.76916353  1.0
  O  O195  1  0.27292051  0.50375770  0.15327268  1.0
