# generated using pymatgen
data_ZnH49C41NO5
_symmetry_space_group_name_H-M   'P 1'
_cell_length_a   10.83887592
_cell_length_b   18.44954185
_cell_length_c   19.38335310
_cell_angle_alpha   90.82832300
_cell_angle_beta   93.88202055
_cell_angle_gamma   92.58825177
_symmetry_Int_Tables_number   1
_chemical_formula_structural   ZnH49C41NO5
_chemical_formula_sum   'Zn2 H98 C82 N2 O10'
_cell_volume   3862.69844359
_cell_formula_units_Z   2
loop_
 _symmetry_equiv_pos_site_id
 _symmetry_equiv_pos_as_xyz
  1  'x, y, z'
loop_
 _atom_site_type_symbol
 _atom_site_label
 _atom_site_symmetry_multiplicity
 _atom_site_fract_x
 _atom_site_fract_y
 _atom_site_fract_z
 _atom_site_occupancy
  Zn  Zn0  1  0.50321638  0.41595755  0.49944373  1.0
  Zn  Zn1  1  0.51877081  0.57329720  0.50290570  1.0
  H  H2  1  0.55859862  0.15631676  0.59627061  1.0
  H  H3  1  0.33490735  0.59554341  0.15879900  1.0
  H  H4  1  0.42699101  0.39967135  0.70810561  1.0
  H  H5  1  0.53843034  0.39565902  0.27944408  1.0
  H  H6  1  0.59757918  0.50035824  0.93934683  1.0
  H  H7  1  0.59746973  0.49213941  0.06761918  1.0
  H  H8  1  0.25586966  0.68989307  0.65029066  1.0
  H  H9  1  0.22045872  0.68006633  0.55957318  1.0
  H  H10  1  0.10239747  0.69993454  0.61545159  1.0
  H  H11  1  0.11521144  0.57956880  0.66835623  1.0
  H  H12  1  0.25219058  0.56326933  0.62893833  1.0
  H  H13  1  0.43287721  0.16197530  0.38146434  1.0
  H  H14  1  0.96920779  0.69369068  0.53325258  1.0
  H  H15  1  0.81823212  0.66076681  0.50360190  1.0
  H  H16  1  0.83978273  0.71713409  0.57933810  1.0
  H  H17  1  0.79924152  0.58623829  0.60745256  1.0
  H  H18  1  0.94483712  0.61959345  0.64323567  1.0
  H  H19  1  0.75543441  0.23931749  0.62809375  1.0
  H  H20  1  0.76927822  0.32380322  0.58482989  1.0
  H  H21  1  0.76039063  0.32253083  0.67591480  1.0
  H  H22  1  0.55699847  0.35488764  0.61927347  1.0
  H  H23  1  0.54260288  0.27108706  0.66151831  1.0
  H  H24  1  0.62245227  0.82001950  0.39857887  1.0
  H  H25  1  0.21981787  0.23128511  0.36055651  1.0
  H  H26  1  0.24463722  0.29583486  0.29544466  1.0
  H  H27  1  0.33619808  0.21904478  0.30148806  1.0
  H  H28  1  0.33410561  0.34817723  0.40480652  1.0
  H  H29  1  0.45334458  0.33265779  0.35170929  1.0
  H  H30  1  0.17944536  0.97127486  0.49548545  1.0
  H  H31  1  0.22119091  0.05452681  0.53922567  1.0
  H  H32  1  0.09689863  0.04990215  0.47425830  1.0
  H  H33  1  0.28571018  0.10970749  0.43038861  1.0
  H  H34  1  0.24528960  0.02944746  0.38313279  1.0
  H  H35  1  0.42437369  0.82677582  0.58434661  1.0
  H  H36  1  0.84749858  0.00071452  0.47535882  1.0
  H  H37  1  0.79492417  0.07344270  0.42440406  1.0
  H  H38  1  0.91821619  0.08890370  0.48902809  1.0
  H  H39  1  0.72232758  0.13551991  0.52834406  1.0
  H  H40  1  0.77435658  0.06602076  0.58222064  1.0
  H  H41  1  0.36306390  0.95005886  0.30907893  1.0
  H  H42  1  0.45197649  0.87335310  0.32687870  1.0
  H  H43  1  0.29306251  0.86089807  0.29863853  1.0
  H  H44  1  0.32301059  0.84216124  0.42644082  1.0
  H  H45  1  0.23110971  0.91626380  0.40830105  1.0
  H  H46  1  0.61933957  0.68419470  0.40894136  1.0
  H  H47  1  0.74699889  0.90910082  0.67979955  1.0
  H  H48  1  0.66468488  0.98789921  0.65833182  1.0
  H  H49  1  0.58792264  0.90103253  0.65072906  1.0
  H  H50  1  0.71981570  0.86701810  0.55461528  1.0
  H  H51  1  0.80340582  0.95063898  0.56416464  1.0
  H  H52  1  0.11155658  0.23606404  0.60033050  1.0
  H  H53  1  0.96783817  0.19576191  0.56761318  1.0
  H  H54  1  0.10182898  0.14308900  0.57368164  1.0
  H  H55  1  0.05936223  0.17973503  0.45009018  1.0
  H  H56  1  0.19853120  0.22339065  0.48508352  1.0
  H  H57  1  0.44048021  0.69154600  0.59052007  1.0
  H  H58  1  0.86381901  0.26992047  0.30987580  1.0
  H  H59  1  0.97351158  0.20877405  0.34285062  1.0
  H  H60  1  0.81822517  0.17707592  0.32086883  1.0
  H  H61  1  0.84990960  0.19258284  0.44895835  1.0
  H  H62  1  0.74409439  0.25502339  0.41598770  1.0
  H  H63  1  0.68853892  0.61765395  0.70972413  1.0
  H  H64  1  0.66374552  0.65963232  0.79130902  1.0
  H  H65  1  0.65920080  0.73159654  0.64955609  1.0
  H  H66  1  0.61090532  0.77432517  0.72482355  1.0
  H  H67  1  0.82203647  0.76436365  0.78445400  1.0
  H  H68  1  0.21739247  0.34883443  0.51043627  1.0
  H  H69  1  0.83673712  0.80771609  0.70405569  1.0
  H  H70  1  0.87141104  0.71533498  0.71258796  1.0
  H  H71  1  0.27192501  0.57116989  0.36857376  1.0
  H  H72  1  0.17427483  0.59545159  0.29484007  1.0
  H  H73  1  0.32930168  0.70052661  0.39341687  1.0
  H  H74  1  0.23620206  0.72662366  0.32035093  1.0
  H  H75  1  0.04488739  0.67437545  0.37423295  1.0
  H  H76  1  0.12453477  0.74065341  0.42991401  1.0
  H  H77  1  0.13914890  0.64699912  0.44672581  1.0
  H  H78  1  0.23904243  0.32718533  0.76765402  1.0
  H  H79  1  0.77324211  0.37526267  0.44513255  1.0
  H  H80  1  0.38912707  0.29658518  0.75603742  1.0
  H  H81  1  0.30485523  0.26238939  0.82466114  1.0
  H  H82  1  0.46840090  0.35522417  0.86946685  1.0
  H  H83  1  0.31998236  0.38023639  0.88609959  1.0
  H  H84  1  0.42432234  0.28587370  0.21312231  1.0
  H  H85  1  0.32421000  0.30524814  0.14026834  1.0
  H  H86  1  0.45105115  0.24905725  0.13042846  1.0
  H  H87  1  0.50060961  0.37287962  0.08715539  1.0
  H  H88  1  0.60069854  0.35361121  0.15938093  1.0
  H  H89  1  0.12345068  0.38191987  0.04035637  1.0
  H  H90  1  0.44605035  0.62616327  0.84750725  1.0
  H  H91  1  0.19806853  0.39929298  0.12372526  1.0
  H  H92  1  0.03900029  0.41699214  0.10812305  1.0
  H  H93  1  0.17145552  0.53174133  0.11127285  1.0
  H  H94  1  0.09003014  0.51766060  0.03042216  1.0
  H  H95  1  0.13558754  0.42149604  0.85754503  1.0
  H  H96  1  0.05822540  0.42771663  0.93516034  1.0
  H  H97  1  0.00337939  0.47437593  0.86038092  1.0
  H  H98  1  0.11540219  0.56398163  0.94005174  1.0
  H  H99  1  0.19734188  0.55331412  0.86566659  1.0
  C  C100  1  0.49278072  0.49906512  0.36793891  1.0
  C  C101  1  0.45732009  0.49759728  0.29171178  1.0
  C  C102  1  0.51100805  0.50114115  0.96495498  1.0
  C  C103  1  0.51069695  0.49557976  0.03612486  1.0
  C  C104  1  0.39924137  0.49472006  0.06886855  1.0
  C  C105  1  0.39984341  0.50823172  0.92502351  1.0
  C  C106  1  0.28589039  0.50201185  0.02941435  1.0
  C  C107  1  0.28682714  0.51094399  0.95683934  1.0
  C  C108  1  0.53203247  0.26084133  0.55235989  1.0
  C  C109  1  0.44675626  0.26286267  0.43811522  1.0
  C  C110  1  0.53096374  0.18504394  0.54937018  1.0
  C  C111  1  0.49859656  0.50826245  0.63474135  1.0
  C  C112  1  0.45886465  0.18813067  0.43130769  1.0
  C  C113  1  0.49939925  0.14648952  0.48761287  1.0
  C  C114  1  0.27669820  0.49627598  0.51157992  1.0
  C  C115  1  0.74622860  0.49434817  0.51093376  1.0
  C  C116  1  0.40635950  0.02155663  0.45438958  1.0
  C  C117  1  0.61484266  0.03411190  0.51293200  1.0
  C  C118  1  0.41754527  0.94570352  0.45046670  1.0
  C  C119  1  0.61480073  0.95825675  0.52044111  1.0
  C  C120  1  0.51850973  0.91488582  0.48671649  1.0
  C  C121  1  0.50704897  0.06612558  0.48388666  1.0
  C  C122  1  0.41058141  0.51006948  0.84886255  1.0
  C  C123  1  0.57944901  0.79359022  0.44139285  1.0
  C  C124  1  0.47004970  0.79738433  0.54490941  1.0
  C  C125  1  0.57971317  0.71860847  0.44712989  1.0
  C  C126  1  0.47691729  0.72251524  0.54832753  1.0
  C  C127  1  0.52265395  0.83450964  0.49075820  1.0
  C  C128  1  0.12056479  0.35519576  0.49442778  1.0
  C  C129  1  0.87080141  0.36945939  0.46011956  1.0
  C  C130  1  0.04708284  0.29443491  0.47453567  1.0
  C  C131  1  0.92096246  0.30301086  0.45061431  1.0
  C  C132  1  0.94029752  0.42915201  0.49295671  1.0
  C  C133  1  0.41069321  0.49027680  0.14562351  1.0
  C  C134  1  0.07141041  0.42470751  0.50242871  1.0
  C  C135  1  0.14403976  0.48739976  0.52858623  1.0
  C  C136  1  0.88462304  0.49139242  0.51925826  1.0
  C  C137  1  0.08672026  0.54155998  0.56513591  1.0
  C  C138  1  0.95480269  0.54461044  0.55856454  1.0
  C  C139  1  0.47264073  0.57799159  0.74869655  1.0
  C  C140  1  0.39660443  0.55421217  0.25648096  1.0
  C  C141  1  0.44158465  0.57550608  0.81745130  1.0
  C  C142  1  0.37598482  0.54945496  0.18470157  1.0
  C  C143  1  0.16242957  0.58751647  0.62008176  1.0
  C  C144  1  0.40562732  0.44455080  0.80986477  1.0
  C  C145  1  0.18559591  0.66917012  0.61036829  1.0
  C  C146  1  0.89203849  0.60523321  0.59406510  1.0
  C  C147  1  0.87942219  0.67347531  0.54988187  1.0
  C  C148  1  0.58426006  0.29848785  0.61793049  1.0
  C  C149  1  0.72588786  0.29558619  0.62702142  1.0
  C  C150  1  0.38283331  0.30435818  0.38093105  1.0
  C  C151  1  0.29138947  0.25961744  0.33215573  1.0
  C  C152  1  0.28065695  0.05062716  0.43439558  1.0
  C  C153  1  0.18891656  0.03022011  0.48876450  1.0
  C  C154  1  0.73581706  0.07710409  0.52963664  1.0
  C  C155  1  0.46749468  0.43217457  0.18013685  1.0
  C  C156  1  0.82967460  0.05881086  0.47668316  1.0
  C  C157  1  0.32548531  0.89758318  0.40645978  1.0
  C  C158  1  0.36012592  0.89532854  0.33083709  1.0
  C  C159  1  0.71143172  0.92445121  0.56843213  1.0
  C  C160  1  0.67605323  0.93091205  0.64372970  1.0
  C  C161  1  0.09748673  0.22070207  0.48853095  1.0
  C  C162  1  0.06809666  0.19703062  0.56169093  1.0
  C  C163  1  0.84192826  0.24115404  0.41715894  1.0
  C  C164  1  0.87617607  0.22301146  0.34351659  1.0
  C  C165  1  0.63901009  0.66052149  0.73499730  1.0
  C  C166  1  0.43180696  0.44844604  0.74060955  1.0
  C  C167  1  0.67360220  0.73408624  0.70625715  1.0
  C  C168  1  0.80821721  0.75665980  0.72804575  1.0
  C  C169  1  0.25748907  0.61210681  0.32853745  1.0
  C  C170  1  0.24369182  0.68611258  0.36146712  1.0
  C  C171  1  0.13197540  0.68705788  0.40541036  1.0
  C  C172  1  0.38068024  0.37230947  0.84368994  1.0
  C  C173  1  0.32551774  0.31139306  0.79521424  1.0
  C  C174  1  0.50386245  0.36432128  0.14313493  1.0
  C  C175  1  0.42123226  0.29727944  0.15761515  1.0
  C  C176  1  0.16499798  0.49705487  0.06451137  1.0
  C  C177  1  0.48986871  0.43824998  0.25189751  1.0
  C  C178  1  0.12918813  0.41924987  0.08528391  1.0
  C  C179  1  0.17008476  0.52548536  0.91245786  1.0
  C  C180  1  0.08722592  0.45831925  0.89035344  1.0
  C  C181  1  0.46832974  0.51322699  0.70898553  1.0
  N  N182  1  0.48951527  0.29968583  0.49732603  1.0
  N  N183  1  0.52976343  0.68400321  0.49985862  1.0
  O  O184  1  0.53425913  0.44173788  0.39541838  1.0
  O  O185  1  0.36271859  0.61757020  0.28667362  1.0
  O  O186  1  0.46660678  0.44864940  0.60316073  1.0
  O  O187  1  0.47856248  0.55822354  0.40034691  1.0
  O  O188  1  0.55217523  0.56283183  0.60774769  1.0
  O  O189  1  0.32512546  0.44305778  0.48171137  1.0
  O  O190  1  0.68399745  0.43790877  0.52871167  1.0
  O  O191  1  0.33192206  0.55838592  0.52178700  1.0
  O  O192  1  0.70068428  0.55182731  0.48744417  1.0
  O  O193  1  0.50727655  0.64511676  0.72325765  1.0
