# generated using pymatgen
data_ZnH12C24(NO3)2
_symmetry_space_group_name_H-M   'P 1'
_cell_length_a   13.07482056
_cell_length_b   13.12989694
_cell_length_c   22.34590193
_cell_angle_alpha   90.00014573
_cell_angle_beta   90.00001771
_cell_angle_gamma   111.33155082
_symmetry_Int_Tables_number   1
_chemical_formula_structural   ZnH12C24(NO3)2
_chemical_formula_sum   'Zn4 H48 C96 N8 O24'
_cell_volume   3573.33417006
_cell_formula_units_Z   4
loop_
 _symmetry_equiv_pos_site_id
 _symmetry_equiv_pos_as_xyz
  1  'x, y, z'
loop_
 _atom_site_type_symbol
 _atom_site_label
 _atom_site_symmetry_multiplicity
 _atom_site_fract_x
 _atom_site_fract_y
 _atom_site_fract_z
 _atom_site_occupancy
  Zn  Zn0  1  0.14711295  0.24679167  0.78873632  1.0
  Zn  Zn1  1  0.13180214  0.26248531  0.91564014  1.0
  Zn  Zn2  1  0.85289015  0.75320663  0.28873770  1.0
  Zn  Zn3  1  0.86819741  0.73751359  0.41564150  1.0
  H  H4  1  0.30539154  0.35414327  0.69359727  1.0
  H  H5  1  0.30992865  0.35851448  0.58075242  1.0
  H  H6  1  0.98931339  0.10153236  0.58295986  1.0
  H  H7  1  0.99734755  0.10853846  0.69474322  1.0
  H  H8  1  0.14039338  0.98268118  0.40182834  1.0
  H  H9  1  0.13366328  0.98866994  0.28972725  1.0
  H  H10  1  0.13988441  0.50489027  0.30268363  1.0
  H  H11  1  0.14442339  0.49776248  0.41511811  1.0
  H  H12  1  0.46760759  0.31839314  0.96310081  1.0
  H  H13  1  0.65154969  0.30317351  0.97555858  1.0
  H  H14  1  0.80941773  0.26499814  0.93045186  1.0
  H  H15  1  0.82541929  0.22853526  0.74018116  1.0
  H  H16  1  0.64742831  0.25626729  0.72739090  1.0
  H  H17  1  0.48311992  0.27964621  0.77313888  1.0
  H  H18  1  0.12462713  0.94292740  0.96655289  1.0
  H  H19  1  0.13274852  0.75579526  0.97682085  1.0
  H  H20  1  0.14266677  0.58805969  0.92870362  1.0
  H  H21  1  0.15555256  0.56720139  0.73750390  1.0
  H  H22  1  0.14753054  0.75378067  0.72730485  1.0
  H  H23  1  0.13788237  0.92210850  0.77555275  1.0
  H  H24  1  0.28141081  0.38272765  0.01165256  1.0
  H  H25  1  0.28862005  0.38008834  0.12438867  1.0
  H  H26  1  0.96378480  0.13030847  0.12128730  1.0
  H  H27  1  0.96970598  0.14360134  0.00933524  1.0
  H  H28  1  0.69460996  0.64585939  0.19359801  1.0
  H  H29  1  0.69007006  0.64148917  0.08075316  1.0
  H  H30  1  0.01068864  0.89846324  0.08296175  1.0
  H  H31  1  0.00265734  0.89145858  0.19474555  1.0
  H  H32  1  0.85960460  0.01731761  0.90182988  1.0
  H  H33  1  0.86633653  0.01132994  0.78972923  1.0
  H  H34  1  0.86012225  0.49511386  0.80268454  1.0
  H  H35  1  0.85558067  0.50224056  0.91511859  1.0
  H  H36  1  0.53239473  0.68161580  0.46309934  1.0
  H  H37  1  0.34844989  0.69682976  0.47555531  1.0
  H  H38  1  0.19058485  0.73499846  0.43045041  1.0
  H  H39  1  0.17457448  0.77145613  0.24018110  1.0
  H  H40  1  0.35256588  0.74372972  0.22738814  1.0
  H  H41  1  0.51687960  0.72034627  0.27313657  1.0
  H  H42  1  0.87537794  0.05707186  0.46655323  1.0
  H  H43  1  0.86725292  0.24420236  0.47682237  1.0
  H  H44  1  0.85733618  0.41194015  0.42870674  1.0
  H  H45  1  0.84445078  0.43279990  0.23750704  1.0
  H  H46  1  0.85246751  0.24621641  0.22730682  1.0
  H  H47  1  0.86211645  0.07789291  0.27555447  1.0
  H  H48  1  0.71859024  0.61727406  0.51165497  1.0
  H  H49  1  0.71138530  0.61991891  0.62439063  1.0
  H  H50  1  0.03621786  0.86969546  0.62128683  1.0
  H  H51  1  0.03029555  0.85639956  0.50933475  1.0
  C  C52  1  0.35102363  0.29879100  0.86066411  1.0
  C  C53  1  0.12374113  0.05239557  0.86390745  1.0
  C  C54  1  0.93148197  0.22505839  0.84367665  1.0
  C  C55  1  0.15591900  0.45706996  0.83999644  1.0
  C  C56  1  0.23753436  0.30018768  0.66685048  1.0
  C  C57  1  0.23978067  0.30198057  0.60472232  1.0
  C  C58  1  0.14916574  0.23093601  0.57390900  1.0
  C  C59  1  0.06062708  0.15897530  0.60567583  1.0
  C  C60  1  0.06484963  0.16251916  0.66787337  1.0
  C  C61  1  0.14457653  0.13937362  0.47858407  1.0
  C  C62  1  0.14424157  0.14627069  0.41256347  1.0
  C  C63  1  0.14208871  0.05650425  0.37889503  1.0
  C  C64  1  0.13814881  0.05984076  0.31617347  1.0
  C  C65  1  0.13636077  0.15288601  0.28720536  1.0
  C  C66  1  0.12891107  0.15318025  0.22126665  1.0
  C  C67  1  0.13441897  0.34749270  0.22611153  1.0
  C  C68  1  0.13895505  0.34227985  0.29203100  1.0
  C  C69  1  0.14116077  0.43217154  0.32571733  1.0
  C  C70  1  0.14395690  0.42826218  0.38836685  1.0
  C  C71  1  0.14537901  0.33497049  0.41733943  1.0
  C  C72  1  0.14710703  0.33252096  0.48337525  1.0
  C  C73  1  0.14413217  0.24271381  0.38407778  1.0
  C  C74  1  0.14026120  0.24622378  0.32043882  1.0
  C  C75  1  0.46567459  0.29994631  0.86697982  1.0
  C  C76  1  0.51381465  0.30755028  0.92461053  1.0
  C  C77  1  0.61475709  0.29833767  0.93128155  1.0
  C  C78  1  0.67209103  0.27978654  0.88086425  1.0
  C  C79  1  0.77258439  0.26299278  0.88643887  1.0
  C  C80  1  0.82535611  0.24286032  0.83658632  1.0
  C  C81  1  0.78044949  0.24184834  0.77858060  1.0
  C  C82  1  0.68268018  0.25766643  0.77179725  1.0
  C  C83  1  0.62510387  0.27540654  0.82230719  1.0
  C  C84  1  0.52164095  0.28597222  0.81696796  1.0
  C  C85  1  0.12939257  0.94117261  0.86999379  1.0
  C  C86  1  0.12870545  0.89489667  0.92747052  1.0
  C  C87  1  0.13344338  0.79230414  0.93283921  1.0
  C  C88  1  0.13981132  0.73155039  0.88120196  1.0
  C  C89  1  0.14444249  0.62603121  0.88514578  1.0
  C  C90  1  0.15122706  0.56892136  0.83414220  1.0
  C  C91  1  0.15182276  0.61508432  0.77667935  1.0
  C  C92  1  0.14698934  0.71767507  0.77139747  1.0
  C  C93  1  0.14138692  0.77866730  0.82301593  1.0
  C  C94  1  0.13622531  0.88403199  0.81909717  1.0
  C  C95  1  0.21279333  0.32950681  0.03820280  1.0
  C  C96  1  0.21661736  0.32715168  0.10025399  1.0
  C  C97  1  0.12614527  0.25524904  0.13079465  1.0
  C  C98  1  0.03522328  0.18799078  0.09875561  1.0
  C  C99  1  0.03800002  0.19526036  0.03661313  1.0
  C  C100  1  0.64897530  0.70120841  0.36066358  1.0
  C  C101  1  0.87625704  0.94760385  0.36390734  1.0
  C  C102  1  0.06851684  0.77493850  0.34367613  1.0
  C  C103  1  0.84407903  0.54292689  0.34000287  1.0
  C  C104  1  0.76246678  0.69981403  0.16685177  1.0
  C  C105  1  0.76021956  0.69802080  0.10472315  1.0
  C  C106  1  0.85083567  0.76906441  0.07390996  1.0
  C  C107  1  0.93937287  0.84102525  0.10567781  1.0
  C  C108  1  0.93515374  0.83748015  0.16787534  1.0
  C  C109  1  0.85542066  0.86062719  0.97858463  1.0
  C  C110  1  0.85575575  0.85373059  0.91256447  1.0
  C  C111  1  0.85791084  0.94349689  0.87889572  1.0
  C  C112  1  0.86184742  0.94015756  0.81617370  1.0
  C  C113  1  0.86363596  0.84711379  0.78720635  1.0
  C  C114  1  0.87108867  0.84682171  0.72126764  1.0
  C  C115  1  0.86558520  0.65251099  0.72611223  1.0
  C  C116  1  0.86104583  0.65772087  0.79203170  1.0
  C  C117  1  0.85884201  0.56783020  0.82571790  1.0
  C  C118  1  0.85604555  0.57174069  0.88836698  1.0
  C  C119  1  0.85461881  0.66503001  0.91734059  1.0
  C  C120  1  0.85289305  0.66748155  0.98337642  1.0
  C  C121  1  0.85586767  0.75728818  0.88407908  1.0
  C  C122  1  0.85973561  0.75377620  0.82044012  1.0
  C  C123  1  0.53432407  0.70005232  0.36697882  1.0
  C  C124  1  0.48618501  0.69245110  0.42460817  1.0
  C  C125  1  0.38524153  0.70166292  0.43127874  1.0
  C  C126  1  0.32790863  0.72021056  0.38086145  1.0
  C  C127  1  0.22741395  0.73700269  0.38643742  1.0
  C  C128  1  0.17464191  0.75713651  0.33658624  1.0
  C  C129  1  0.21954705  0.75814655  0.27857963  1.0
  C  C130  1  0.31731749  0.74233169  0.27179494  1.0
  C  C131  1  0.37489269  0.72458614  0.32230442  1.0
  C  C132  1  0.47835666  0.71402126  0.31696608  1.0
  C  C133  1  0.87060476  0.05882438  0.36999548  1.0
  C  C134  1  0.87129433  0.10510067  0.42747138  1.0
  C  C135  1  0.86655487  0.20769320  0.43284112  1.0
  C  C136  1  0.86018478  0.26844745  0.38120351  1.0
  C  C137  1  0.85555613  0.37396508  0.38514838  1.0
  C  C138  1  0.84877229  0.43107711  0.33414668  1.0
  C  C139  1  0.84817703  0.38491548  0.27668152  1.0
  C  C140  1  0.85301254  0.28232637  0.27139994  1.0
  C  C141  1  0.85860932  0.22133106  0.32301786  1.0
  C  C142  1  0.86377198  0.11596717  0.31909850  1.0
  C  C143  1  0.78720961  0.67049589  0.53820306  1.0
  C  C144  1  0.78338728  0.67285137  0.60025516  1.0
  C  C145  1  0.87385896  0.74475498  0.63079505  1.0
  C  C146  1  0.96477856  0.81201302  0.59875657  1.0
  C  C147  1  0.96200264  0.80474151  0.53661407  1.0
  N  N148  1  0.15130223  0.23240733  0.69769814  1.0
  N  N149  1  0.14720997  0.23406595  0.50976032  1.0
  N  N150  1  0.12821928  0.25092740  0.19495630  1.0
  N  N151  1  0.12506924  0.26497554  0.00712769  1.0
  N  N152  1  0.84870045  0.76759213  0.19769954  1.0
  N  N153  1  0.85278849  0.76593489  0.00976083  1.0
  N  N154  1  0.87178607  0.74907534  0.69495760  1.0
  N  N155  1  0.87493343  0.73502862  0.50712941  1.0
  O  O156  1  0.31160934  0.28955772  0.80789111  1.0
  O  O157  1  0.30050079  0.30327668  0.90878165  1.0
  O  O158  1  0.12589613  0.08923954  0.81099531  1.0
  O  O159  1  0.11734024  0.10144766  0.91207336  1.0
  O  O160  1  0.97955891  0.21394022  0.79582313  1.0
  O  O161  1  0.96636221  0.22269266  0.89679243  1.0
  O  O162  1  0.16422926  0.40896321  0.79182247  1.0
  O  O163  1  0.14950423  0.41859509  0.89281012  1.0
  O  O164  1  0.14359483  0.05797761  0.50622039  1.0
  O  O165  1  0.12445715  0.07494838  0.18960351  1.0
  O  O166  1  0.13522057  0.42834606  0.19829262  1.0
  O  O167  1  0.14784774  0.40922391  0.51504375  1.0
  O  O168  1  0.68839052  0.71044225  0.30789061  1.0
  O  O169  1  0.69949874  0.69672218  0.40878203  1.0
  O  O170  1  0.87410277  0.91076206  0.31099470  1.0
  O  O171  1  0.88265950  0.89854960  0.41207139  1.0
  O  O172  1  0.02044007  0.78605723  0.29582351  1.0
  O  O173  1  0.03363632  0.77730775  0.39679191  1.0
  O  O174  1  0.83576971  0.59103422  0.29182942  1.0
  O  O175  1  0.85049279  0.58139877  0.39281661  1.0
  O  O176  1  0.85639929  0.94202395  0.00622251  1.0
  O  O177  1  0.87554020  0.92505337  0.68960552  1.0
  O  O178  1  0.86478276  0.57165748  0.69829186  1.0
  O  O179  1  0.85215726  0.59078033  0.01504355  1.0
