# generated using pymatgen
data_AlH6C13ClO5F
_symmetry_space_group_name_H-M   'P 1'
_cell_length_a   6.61418277
_cell_length_b   11.04508475
_cell_length_c   15.25362366
_cell_angle_alpha   89.25330309
_cell_angle_beta   78.15943837
_cell_angle_gamma   73.67539032
_symmetry_Int_Tables_number   1
_chemical_formula_structural   AlH6C13ClO5F
_chemical_formula_sum   'Al2 H12 C26 Cl2 O10 F2'
_cell_volume   1045.47883292
_cell_formula_units_Z   2
loop_
 _symmetry_equiv_pos_site_id
 _symmetry_equiv_pos_as_xyz
  1  'x, y, z'
loop_
 _atom_site_type_symbol
 _atom_site_label
 _atom_site_symmetry_multiplicity
 _atom_site_fract_x
 _atom_site_fract_y
 _atom_site_fract_z
 _atom_site_occupancy
  Al  Al0  1  0.99734964  0.50235623  0.49820111  1.0
  Al  Al1  1  0.49845750  0.50093005  0.49736350  1.0
  H  H2  1  0.34475047  0.35552310  0.43447027  1.0
  H  H3  1  0.64711234  0.65555452  0.54419650  1.0
  H  H4  1  0.56872794  0.63784309  0.22613761  1.0
  H  H5  1  0.46298560  0.45701322  0.77202891  1.0
  H  H6  1  0.79276566  0.52732955  0.76576706  1.0
  H  H7  1  0.70253229  0.52891382  0.93175412  1.0
  H  H8  1  0.18027693  0.36569824  0.22718932  1.0
  H  H9  1  0.26734985  0.35737453  0.06134893  1.0
  H  H10  1  0.56114442  0.23810114  0.62784296  1.0
  H  H11  1  0.35299307  0.12137469  0.72986028  1.0
  H  H12  1  0.80915911  0.76773764  0.62373634  1.0
  H  H13  1  0.47819556  0.88538467  0.72796054  1.0
  C  C14  1  0.86135714  0.27705087  0.50587593  1.0
  C  C15  1  0.81468179  0.50174219  0.33727815  1.0
  C  C16  1  0.13466149  0.72757145  0.49294116  1.0
  C  C17  1  0.18468172  0.49732188  0.65875020  1.0
  C  C18  1  0.86997529  0.50177308  0.23758612  1.0
  C  C19  1  0.13207518  0.49305223  0.75817514  1.0
  C  C20  1  0.72405818  0.57764994  0.19079829  1.0
  C  C21  1  0.78160077  0.57715018  0.09819670  1.0
  C  C22  1  0.29585058  0.47266440  0.80664111  1.0
  C  C23  1  0.24169358  0.47474469  0.89928151  1.0
  C  C24  1  0.91850599  0.51273780  0.80431276  1.0
  C  C25  1  0.86902911  0.51421509  0.89734446  1.0
  C  C26  1  0.06782484  0.42458975  0.19020935  1.0
  C  C27  1  0.11666550  0.42140280  0.09717827  1.0
  C  C28  1  0.97612186  0.49869751  0.04750313  1.0
  C  C29  1  0.02917203  0.49622270  0.94862666  1.0
  C  C30  1  0.93160193  0.13555081  0.50434402  1.0
  C  C31  1  0.80555421  0.07009335  0.56320735  1.0
  C  C32  1  0.11867919  0.06951899  0.44554254  1.0
  C  C33  1  0.61551759  0.13533612  0.62562586  1.0
  C  C34  1  0.49893493  0.06974023  0.68275356  1.0
  C  C35  1  0.06594534  0.86919156  0.49792252  1.0
  C  C36  1  0.18629597  0.93512511  0.44201589  1.0
  C  C37  1  0.87500192  0.93463315  0.56060511  1.0
  C  C38  1  0.75375825  0.87029251  0.62221877  1.0
  C  C39  1  0.56922258  0.93644272  0.68140049  1.0
  Cl  Cl40  1  0.41422140  0.85624690  0.36544767  1.0
  Cl  Cl41  1  0.26811522  0.14743796  0.37167774  1.0
  O  O42  1  0.98863989  0.33371384  0.52637623  1.0
  O  O43  1  0.61569864  0.52713912  0.37462944  1.0
  O  O44  1  0.31668667  0.67251519  0.51078236  1.0
  O  O45  1  0.02638881  0.52830839  0.61923910  1.0
  O  O46  1  0.00206913  0.67343683  0.47394466  1.0
  O  O47  1  0.38325729  0.47279114  0.62049350  1.0
  O  O48  1  0.68029949  0.32934996  0.48598912  1.0
  O  O49  1  0.97189073  0.47393202  0.37738356  1.0
  O  O50  1  0.29365419  0.44193468  0.45906225  1.0
  O  O51  1  0.69961198  0.56406099  0.53698001  1.0
  F  F52  1  0.64086702  0.65942253  0.05574522  1.0
  F  F53  1  0.40696639  0.45775715  0.94377444  1.0
