# generated using pymatgen
data_AlH14C22(BrO3)2
_symmetry_space_group_name_H-M   'P 1'
_cell_length_a   6.63742502
_cell_length_b   21.61370478
_cell_length_c   28.04862951
_cell_angle_alpha   101.17051732
_cell_angle_beta   90.98609793
_cell_angle_gamma   90.31646112
_symmetry_Int_Tables_number   1
_chemical_formula_structural   AlH14C22(BrO3)2
_chemical_formula_sum   'Al4 H56 C88 Br8 O24'
_cell_volume   3946.86073972
_cell_formula_units_Z   4
loop_
 _symmetry_equiv_pos_site_id
 _symmetry_equiv_pos_as_xyz
  1  'x, y, z'
loop_
 _atom_site_type_symbol
 _atom_site_label
 _atom_site_symmetry_multiplicity
 _atom_site_fract_x
 _atom_site_fract_y
 _atom_site_fract_z
 _atom_site_occupancy
  Al  Al0  1  0.19538709  0.24983227  0.74880832  1.0
  Al  Al1  1  0.79639076  0.74781956  0.25042445  1.0
  Al  Al2  1  0.69508978  0.24650537  0.75073530  1.0
  Al  Al3  1  0.29668722  0.75298392  0.24990276  1.0
  H  H4  1  0.22547049  0.38630489  0.06499906  1.0
  H  H5  1  0.01501372  0.62305399  0.92958443  1.0
  H  H6  1  0.82712783  0.09855902  0.44491077  1.0
  H  H7  1  0.17310240  0.90088700  0.55481518  1.0
  H  H8  1  0.97630365  0.46070326  0.79043028  1.0
  H  H9  1  0.21945167  0.54947850  0.20409034  1.0
  H  H10  1  0.29247794  0.04305618  0.70265551  1.0
  H  H11  1  0.70642193  0.95602254  0.29716150  1.0
  H  H12  1  0.25585190  0.44729051  0.14538866  1.0
  H  H13  1  0.99080241  0.56374847  0.84882677  1.0
  H  H14  1  0.79158546  0.05073772  0.36105693  1.0
  H  H15  1  0.20740043  0.94854676  0.63857417  1.0
  H  H16  1  0.12831277  0.37363856  0.97950128  1.0
  H  H17  1  0.01990858  0.63120931  0.01752175  1.0
  H  H18  1  0.74409433  0.10589207  0.53015691  1.0
  H  H19  1  0.25832548  0.89331926  0.46963722  1.0
  H  H20  1  0.25068710  0.03575895  0.89442933  1.0
  H  H21  1  0.74285693  0.96394922  0.10736605  1.0
  H  H22  1  0.74101048  0.46298893  0.60779796  1.0
  H  H23  1  0.25354718  0.53482903  0.39218281  1.0
  H  H24  1  0.68314556  0.17612385  0.87445600  1.0
  H  H25  1  0.31539194  0.82414902  0.12468426  1.0
  H  H26  1  0.16876790  0.32100063  0.62218079  1.0
  H  H27  1  0.81801665  0.67966579  0.37822619  1.0
  H  H28  1  0.66574137  0.01164221  0.96084895  1.0
  H  H29  1  0.32809809  0.99127465  0.04135464  1.0
  H  H30  1  0.35446321  0.39134013  0.47925266  1.0
  H  H31  1  0.63832087  0.60840876  0.52142412  1.0
  H  H32  1  0.69395336  0.94763641  0.02467549  1.0
  H  H33  1  0.29996426  0.05516990  0.97747259  1.0
  H  H34  1  0.40357622  0.45263292  0.41507395  1.0
  H  H35  1  0.58969629  0.54698224  0.58557356  1.0
  H  H36  1  0.70762121  0.21646071  0.98123951  1.0
  H  H37  1  0.82968192  0.15969548  0.01021103  1.0
  H  H38  1  0.49923079  0.12692729  0.03903227  1.0
  H  H39  1  0.53219352  0.20985273  0.05782499  1.0
  H  H40  1  0.36983691  0.17932571  0.00739768  1.0
  H  H41  1  0.16765197  0.84221704  0.99007483  1.0
  H  H42  1  0.29120334  0.78597470  0.01930759  1.0
  H  H43  1  0.62811718  0.82377136  0.99323219  1.0
  H  H44  1  0.46678288  0.79297921  0.94268515  1.0
  H  H45  1  0.49781361  0.87597079  0.96159072  1.0
  H  H46  1  0.90166277  0.34220534  0.57724247  1.0
  H  H47  1  0.06471986  0.28693146  0.54133002  1.0
  H  H48  1  0.94879018  0.32536703  0.46620399  1.0
  H  H49  1  0.73849074  0.29985732  0.49636135  1.0
  H  H50  1  0.79108141  0.38174486  0.50208577  1.0
  H  H51  1  0.93035698  0.71346005  0.45743832  1.0
  H  H52  1  0.08749357  0.65622065  0.42153166  1.0
  H  H53  1  0.20094207  0.61844077  0.49727599  1.0
  H  H54  1  0.25926415  0.69962973  0.50105735  1.0
  H  H55  1  0.04987098  0.67700583  0.53302662  1.0
  H  H56  1  0.44924733  0.28957199  0.80942056  1.0
  H  H57  1  0.53916239  0.70932746  0.19036049  1.0
  H  H58  1  0.93122871  0.25967039  0.69041273  1.0
  H  H59  1  0.05505609  0.75686513  0.31373275  1.0
  C  C60  1  0.44375167  0.31599680  0.68940523  1.0
  C  C61  1  0.54336731  0.68355275  0.31104404  1.0
  C  C62  1  0.95707166  0.17990314  0.80806954  1.0
  C  C63  1  0.04142529  0.81759470  0.19078940  1.0
  C  C64  1  0.44266263  0.15238370  0.68996177  1.0
  C  C65  1  0.55723729  0.84691259  0.30978374  1.0
  C  C66  1  0.94683229  0.34569027  0.81058275  1.0
  C  C67  1  0.04006579  0.65269362  0.19016810  1.0
  C  C68  1  0.05805411  0.59360216  0.15229124  1.0
  C  C69  1  0.95852028  0.40636729  0.84733117  1.0
  C  C70  1  0.57525777  0.90541185  0.34846834  1.0
  C  C71  1  0.42602086  0.09350768  0.65151148  1.0
  C  C72  1  0.18571826  0.48780243  0.13414104  1.0
  C  C73  1  0.98608060  0.51938674  0.86184799  1.0
  C  C74  1  0.70980130  0.01077544  0.37011366  1.0
  C  C75  1  0.29020603  0.98841842  0.62967628  1.0
  C  C76  1  0.16307047  0.54348119  0.16672478  1.0
  C  C77  1  0.97646004  0.46277073  0.82956980  1.0
  C  C78  1  0.66475401  0.95867273  0.33494510  1.0
  C  C79  1  0.33531054  0.04040301  0.66494312  1.0
  C  C80  1  0.99012320  0.58846706  0.10447851  1.0
  C  C81  1  0.95823261  0.40752876  0.89702947  1.0
  C  C82  1  0.52395572  0.90666168  0.39647456  1.0
  C  C83  1  0.47921073  0.09225053  0.60364446  1.0
  C  C84  1  0.03762087  0.53512637  0.06780285  1.0
  C  C85  1  0.98992989  0.46444502  0.93189718  1.0
  C  C86  1  0.54504819  0.96248428  0.43317418  1.0
  C  C87  1  0.45775508  0.03653867  0.56684446  1.0
  C  C88  1  0.12458267  0.48260230  0.08500834  1.0
  C  C89  1  0.99251254  0.52133902  0.91249132  1.0
  C  C90  1  0.65601423  0.01305137  0.41894417  1.0
  C  C91  1  0.34530106  0.98612587  0.58092682  1.0
  C  C92  1  0.01342449  0.53008191  0.01551145  1.0
  C  C93  1  0.02538627  0.46994222  0.98391095  1.0
  C  C94  1  0.46997575  0.97242388  0.48247107  1.0
  C  C95  1  0.53316659  0.02654129  0.51756323  1.0
  C  C96  1  0.10043291  0.41826426  0.00358642  1.0
  C  C97  1  0.00819374  0.58494724  0.99424343  1.0
  C  C98  1  0.67522547  0.06883646  0.50312359  1.0
  C  C99  1  0.32718660  0.93026527  0.49675848  1.0
  C  C100  1  0.15523483  0.42521902  0.05147569  1.0
  C  C101  1  0.00599280  0.58053269  0.94504608  1.0
  C  C102  1  0.72519379  0.06405983  0.45557120  1.0
  C  C103  1  0.27603757  0.93519573  0.54423025  1.0
  C  C104  1  0.12796409  0.10025067  0.85268827  1.0
  C  C105  1  0.86758218  0.89789333  0.14744112  1.0
  C  C106  1  0.61528963  0.39731592  0.64766316  1.0
  C  C107  1  0.37629584  0.60078135  0.35221051  1.0
  C  C108  1  0.12715854  0.06762995  0.89090806  1.0
  C  C109  1  0.86731912  0.93221107  0.11025189  1.0
  C  C110  1  0.61298864  0.43231540  0.61085322  1.0
  C  C111  1  0.37972568  0.56629218  0.38934798  1.0
  C  C112  1  0.97055411  0.07367721  0.92446672  1.0
  C  C113  1  0.02427036  0.92772645  0.07684458  1.0
  C  C114  1  0.45619645  0.42713862  0.57621193  1.0
  C  C115  1  0.53528230  0.57257377  0.42437846  1.0
  C  C116  1  0.80973087  0.11399525  0.91790458  1.0
  C  C117  1  0.18606599  0.88738664  0.08257060  1.0
  C  C118  1  0.29450345  0.38526236  0.58002997  1.0
  C  C119  1  0.69525649  0.61507375  0.42057712  1.0
  C  C120  1  0.80935202  0.14578399  0.87929803  1.0
  C  C121  1  0.18785344  0.85423145  0.12040495  1.0
  C  C122  1  0.29441732  0.35179924  0.61790351  1.0
  C  C123  1  0.69399661  0.64831438  0.38258885  1.0
  C  C124  1  0.96757626  0.14033362  0.84613601  1.0
  C  C125  1  0.02938280  0.85812432  0.15331616  1.0
  C  C126  1  0.45425975  0.35654206  0.65195157  1.0
  C  C127  1  0.53486875  0.64265003  0.34826885  1.0
  C  C128  1  0.81075327  0.00767114  0.97869499  1.0
  C  C129  1  0.18313124  0.99523967  0.02350254  1.0
  C  C130  1  0.41538322  0.43905195  0.48880541  1.0
  C  C131  1  0.57725337  0.56073230  0.51187108  1.0
  C  C132  1  0.82694750  0.97184929  0.01476073  1.0
  C  C133  1  0.16698147  0.03101057  0.98741345  1.0
  C  C134  1  0.44267880  0.47391693  0.45264832  1.0
  C  C135  1  0.55013983  0.52582866  0.54802419  1.0
  C  C136  1  0.01309436  0.96477153  0.03781124  1.0
  C  C137  1  0.98106934  0.03779931  0.96419846  1.0
  C  C138  1  0.52297889  0.53555041  0.46327838  1.0
  C  C139  1  0.46938691  0.46428033  0.53740802  1.0
  C  C140  1  0.68796770  0.17057197  0.99246420  1.0
  C  C141  1  0.51166322  0.17154867  0.02604944  1.0
  C  C142  1  0.30961423  0.83182723  0.00796877  1.0
  C  C143  1  0.48619026  0.83128380  0.97451446  1.0
  C  C144  1  0.99067660  0.33301293  0.54384242  1.0
  C  C145  1  0.85996944  0.33520742  0.49946293  1.0
  C  C146  1  0.00159617  0.66700811  0.45537372  1.0
  C  C147  1  0.13535140  0.66533440  0.49933820  1.0
  Br  Br148  1  0.88946709  0.32782962  0.91397563  1.0
  Br  Br149  1  0.81684484  0.65491705  0.09206231  1.0
  Br  Br150  1  0.54212197  0.17445303  0.59027292  1.0
  Br  Br151  1  0.46751050  0.82437824  0.41068549  1.0
  Br  Br152  1  0.35154375  0.08383025  0.81047310  1.0
  Br  Br153  1  0.64404378  0.91096516  0.18981930  1.0
  Br  Br154  1  0.84757969  0.40846650  0.68958929  1.0
  Br  Br155  1  0.14760510  0.58631420  0.30916944  1.0
  O  O156  1  0.61479190  0.16904254  0.70840014  1.0
  O  O157  1  0.38256104  0.82698317  0.29526234  1.0
  O  O158  1  0.11662095  0.32226575  0.79706311  1.0
  O  O159  1  0.86887759  0.66980918  0.20705576  1.0
  O  O160  1  0.26972937  0.30559490  0.70492494  1.0
  O  O161  1  0.71758323  0.69872006  0.29834133  1.0
  O  O162  1  0.78321164  0.19836142  0.79715942  1.0
  O  O163  1  0.21684445  0.80652989  0.20608572  1.0
  O  O164  1  0.27683535  0.17961665  0.70148201  1.0
  O  O165  1  0.72334006  0.82335680  0.29392333  1.0
  O  O166  1  0.77400251  0.32460220  0.79542812  1.0
  O  O167  1  0.20829551  0.67999295  0.20264127  1.0
  O  O168  1  0.12168747  0.19434798  0.79064249  1.0
  O  O169  1  0.87745915  0.79520403  0.20301668  1.0
  O  O170  1  0.60869148  0.29352257  0.70175163  1.0
  O  O171  1  0.37608277  0.70153861  0.29612966  1.0
  O  O172  1  0.44652048  0.25822162  0.77953482  1.0
  O  O173  1  0.54459435  0.74018639  0.22052918  1.0
  O  O174  1  0.94122511  0.24340530  0.72024891  1.0
  O  O175  1  0.04912826  0.75735202  0.27930945  1.0
  O  O176  1  0.64954801  0.12251916  0.94948707  1.0
  O  O177  1  0.34599018  0.88010407  0.05086543  1.0
  O  O178  1  0.14319916  0.38131660  0.54612560  1.0
  O  O179  1  0.84632386  0.61986649  0.45462679  1.0
