# generated using pymatgen
data_AlH12C24(NO4)3
_symmetry_space_group_name_H-M   'P 1'
_cell_length_a   4.03504062
_cell_length_b   28.50202473
_cell_length_c   28.50453976
_cell_angle_alpha   120.00291237
_cell_angle_beta   90.00104250
_cell_angle_gamma   89.99939585
_symmetry_Int_Tables_number   1
_chemical_formula_structural   AlH12C24(NO4)3
_chemical_formula_sum   'Al2 H24 C48 N6 O24'
_cell_volume   2838.93561015
_cell_formula_units_Z   2
loop_
 _symmetry_equiv_pos_site_id
 _symmetry_equiv_pos_as_xyz
  1  'x, y, z'
loop_
 _atom_site_type_symbol
 _atom_site_label
 _atom_site_symmetry_multiplicity
 _atom_site_fract_x
 _atom_site_fract_y
 _atom_site_fract_z
 _atom_site_occupancy
  Al  Al0  1  0.02259746  0.00001393  0.50000780  1.0
  Al  Al1  1  0.02256142  0.33332250  0.16665896  1.0
  H  H2  1  0.44496422  0.48303386  0.30248056  1.0
  H  H3  1  0.40024784  0.58259651  0.35135600  1.0
  H  H4  1  0.51693839  0.58118256  0.19978619  1.0
  H  H5  1  0.51690199  0.75215051  0.46689526  1.0
  H  H6  1  0.40025164  0.75074672  0.31532496  1.0
  H  H7  1  0.44493957  0.85030246  0.36419882  1.0
  H  H8  1  0.45632628  0.66548394  0.27877549  1.0
  H  H9  1  0.45626625  0.66784915  0.38790055  1.0
  H  H10  1  0.44501666  0.19747739  0.18054428  1.0
  H  H11  1  0.40028097  0.14862577  0.23124043  1.0
  H  H12  1  0.51695287  0.30022513  0.38138630  1.0
  H  H13  1  0.51704841  0.03310380  0.28527688  1.0
  H  H14  1  0.40020841  0.18470520  0.43542663  1.0
  H  H15  1  0.44491191  0.13584801  0.48611350  1.0
  H  H16  1  0.45631241  0.22124205  0.38670439  1.0
  H  H17  1  0.45639145  0.11208162  0.27995425  1.0
  H  H18  1  0.44504130  0.31944354  0.01695856  1.0
  H  H19  1  0.40030050  0.26876589  0.91741461  1.0
  H  H20  1  0.51676848  0.11858004  0.91880054  1.0
  H  H21  1  0.51679361  0.21475935  0.74786122  1.0
  H  H22  1  0.40031474  0.06456988  0.74924679  1.0
  H  H23  1  0.44503596  0.01390170  0.64970423  1.0
  H  H24  1  0.45629054  0.11328283  0.83451012  1.0
  H  H25  1  0.45626905  0.22005941  0.83215220  1.0
  C  C26  1  0.52150032  0.05148867  0.58162077  1.0
  C  C27  1  0.52150063  0.91839696  0.46986388  1.0
  C  C28  1  0.52153722  0.03016407  0.44854429  1.0
  C  C29  1  0.52146234  0.41493854  0.19680932  1.0
  C  C30  1  0.52150009  0.30316777  0.21811726  1.0
  C  C31  1  0.52151221  0.28185168  0.08504293  1.0
  C  C32  1  0.50448553  0.47549337  0.22398194  1.0
  C  C33  1  0.46077843  0.50502858  0.28036637  1.0
  C  C34  1  0.43625787  0.56113010  0.30758635  1.0
  C  C35  1  0.45856705  0.59037318  0.27978099  1.0
  C  C36  1  0.49678721  0.56071442  0.22329760  1.0
  C  C37  1  0.51937473  0.50455618  0.19646603  1.0
  C  C38  1  0.45158768  0.64925641  0.30635533  1.0
  C  C39  1  0.45157000  0.68408316  0.36032709  1.0
  C  C40  1  0.49677849  0.77262392  0.44338714  1.0
  C  C41  1  0.45857563  0.74296475  0.38690133  1.0
  C  C42  1  0.43624089  0.77220663  0.35909391  1.0
  C  C43  1  0.46074834  0.82830816  0.38631326  1.0
  C  C44  1  0.50451248  0.85784415  0.44269468  1.0
  C  C45  1  0.51941728  0.82878378  0.47021396  1.0
  C  C46  1  0.50456909  0.27599657  0.25149609  1.0
  C  C47  1  0.46088695  0.21960529  0.22465240  1.0
  C  C48  1  0.43635474  0.19239358  0.25353659  1.0
  C  C49  1  0.45867931  0.22021300  0.31058402  1.0
  C  C50  1  0.49683218  0.27670467  0.33740732  1.0
  C  C51  1  0.51940405  0.30352744  0.30807747  1.0
  C  C52  1  0.45163163  0.19364991  0.34289731  1.0
  C  C53  1  0.45165225  0.13967579  0.32375918  1.0
  C  C54  1  0.49686467  0.05662589  0.32925382  1.0
  C  C55  1  0.45864904  0.11311634  0.35607641  1.0
  C  C56  1  0.43627765  0.14093577  0.41312484  1.0
  C  C57  1  0.46079575  0.11372041  0.44200621  1.0
  C  C58  1  0.50456274  0.05733204  0.41516380  1.0
  C  C59  1  0.51942742  0.02980392  0.35858588  1.0
  C  C60  1  0.50448870  0.24846967  0.02449222  1.0
  C  C61  1  0.46086223  0.27532755  0.99496264  1.0
  C  C62  1  0.43631226  0.24645355  0.93886908  1.0
  C  C63  1  0.45856756  0.18939792  0.90961580  1.0
  C  C64  1  0.49673613  0.16256378  0.93926701  1.0
  C  C65  1  0.51930840  0.19188426  0.99542242  1.0
  C  C66  1  0.45157623  0.15709520  0.85073931  1.0
  C  C67  1  0.45157577  0.17624785  0.81591990  1.0
  C  C68  1  0.49671484  0.17077723  0.72739340  1.0
  C  C69  1  0.45853969  0.14394311  0.75704382  1.0
  C  C70  1  0.43625021  0.08688829  0.72779439  1.0
  C  C71  1  0.46077534  0.05801550  0.67169975  1.0
  C  C72  1  0.50446470  0.08486947  0.64216943  1.0
  C  C73  1  0.51925983  0.14145392  0.67123803  1.0
  N  N74  1  0.57591915  0.47612498  0.13741940  1.0
  N  N75  1  0.57594978  0.85721657  0.52926118  1.0
  N  N76  1  0.57596600  0.36257888  0.33868946  1.0
  N  N77  1  0.57602685  0.97075214  0.32797638  1.0
  N  N78  1  0.57577249  0.16125208  0.02383879  1.0
  N  N79  1  0.57576931  0.17208745  0.64282429  1.0
  O  O80  1  0.28743141  0.99824992  0.44359358  1.0
  O  O81  1  0.28744129  0.05643872  0.55464931  1.0
  O  O82  1  0.28742967  0.94536562  0.50178602  1.0
  O  O83  1  0.76090443  0.04446998  0.48180708  1.0
  O  O84  1  0.76086463  0.93734822  0.45555343  1.0
  O  O85  1  0.76087836  0.01822412  0.56266637  1.0
  O  O86  1  0.28745948  0.27690250  0.11201422  1.0
  O  O87  1  0.28739179  0.38797075  0.16489087  1.0
  O  O88  1  0.28741236  0.33508645  0.22307033  1.0
  O  O89  1  0.76091002  0.31511334  0.10399615  1.0
  O  O90  1  0.76087899  0.28886059  0.18485761  1.0
  O  O91  1  0.76083702  0.39598518  0.21111934  1.0
  O  O92  1  0.72113737  0.43188193  0.11704796  1.0
  O  O93  1  0.47917667  0.49870027  0.11239235  1.0
  O  O94  1  0.72110286  0.90146770  0.54963703  1.0
  O  O95  1  0.47928157  0.83463726  0.55428421  1.0
  O  O96  1  0.72110475  0.38294248  0.31480705  1.0
  O  O97  1  0.47938172  0.38762269  0.38629653  1.0
  O  O98  1  0.72113548  0.95038770  0.35186296  1.0
  O  O99  1  0.47946314  0.94571079  0.28036819  1.0
  O  O100  1  0.72094272  0.18510191  0.06807979  1.0
  O  O101  1  0.47895843  0.11364801  0.00124661  1.0
  O  O102  1  0.72091090  0.14823596  0.59858178  1.0
  O  O103  1  0.47905620  0.21969844  0.66542880  1.0
