# generated using pymatgen
data_ZnH10C24(N2O3)2
_symmetry_space_group_name_H-M   'P 1'
_cell_length_a   9.56724097
_cell_length_b   10.80480946
_cell_length_c   23.76422649
_cell_angle_alpha   89.81537844
_cell_angle_beta   89.63079521
_cell_angle_gamma   90.58332967
_symmetry_Int_Tables_number   1
_chemical_formula_structural   ZnH10C24(N2O3)2
_chemical_formula_sum   'Zn2 H20 C48 N8 O12'
_cell_volume   2456.36915563
_cell_formula_units_Z   2
loop_
 _symmetry_equiv_pos_site_id
 _symmetry_equiv_pos_as_xyz
  1  'x, y, z'
loop_
 _atom_site_type_symbol
 _atom_site_label
 _atom_site_symmetry_multiplicity
 _atom_site_fract_x
 _atom_site_fract_y
 _atom_site_fract_z
 _atom_site_occupancy
  Zn  Zn0  1  0.65005201  0.50198726  0.49852666  1.0
  Zn  Zn1  1  0.35088691  0.50125778  0.49984283  1.0
  H  H2  1  0.58598644  0.80304833  0.94610267  1.0
  H  H3  1  0.47282279  0.18653388  0.05302073  1.0
  H  H4  1  0.89923207  0.69975551  0.52118026  1.0
  H  H5  1  0.10122682  0.30403666  0.47410691  1.0
  H  H6  1  0.09412292  0.65098628  0.43060310  1.0
  H  H7  1  0.90649226  0.35202516  0.56407213  1.0
  H  H8  1  0.90957404  0.44445170  0.40633472  1.0
  H  H9  1  0.09134049  0.56159287  0.58870898  1.0
  H  H10  1  0.58146408  0.80285632  0.05278604  1.0
  H  H11  1  0.47452464  0.18714638  0.94636827  1.0
  H  H12  1  0.29373873  0.48066802  0.21144124  1.0
  H  H13  1  0.32088754  0.57716148  0.78942041  1.0
  H  H14  1  0.72906338  0.51802829  0.32302140  1.0
  H  H15  1  0.71571032  0.42206392  0.67404442  1.0
  H  H16  1  0.74218351  0.51127110  0.21781997  1.0
  H  H17  1  0.73062628  0.41791240  0.77930168  1.0
  H  H18  1  0.41385549  0.08007844  0.59217478  1.0
  H  H19  1  0.58367643  0.92189434  0.41153629  1.0
  H  H20  1  0.65786157  0.93239879  0.57623305  1.0
  H  H21  1  0.34147793  0.07054347  0.42754668  1.0
  C  C22  1  0.50666651  0.73823893  0.50248543  1.0
  C  C23  1  0.49090383  0.26442685  0.49876510  1.0
  C  C24  1  0.38937451  0.48811573  0.23583624  1.0
  C  C25  1  0.40737332  0.54208267  0.76431669  1.0
  C  C26  1  0.38215160  0.49029303  0.29490791  1.0
  C  C27  1  0.39848575  0.54296489  0.70531821  1.0
  C  C28  1  0.50623571  0.50137773  0.32647453  1.0
  C  C29  1  0.51079009  0.49864497  0.67249656  1.0
  C  C30  1  0.63446783  0.50909508  0.29803626  1.0
  C  C31  1  0.62953789  0.45486686  0.69997071  1.0
  C  C32  1  0.64169898  0.50549759  0.23957698  1.0
  C  C33  1  0.63798693  0.45307049  0.75841898  1.0
  C  C34  1  0.51845343  0.49550796  0.20887868  1.0
  C  C35  1  0.52613323  0.49686869  0.79025127  1.0
  C  C36  1  0.58672323  0.96383035  0.54351429  1.0
  C  C37  1  0.41217657  0.03846749  0.46030359  1.0
  C  C38  1  0.45296705  0.04392391  0.55224596  1.0
  C  C39  1  0.54554476  0.95857423  0.45151631  1.0
  C  C40  1  0.49627134  0.12651916  0.50055905  1.0
  C  C41  1  0.50328881  0.87603362  0.50370812  1.0
  C  C42  1  0.63201247  0.04677902  0.49146681  1.0
  C  C43  1  0.36684848  0.95557407  0.51218610  1.0
  C  C44  1  0.50427369  0.50450073  0.38977993  1.0
  C  C45  1  0.50678631  0.49700550  0.60910369  1.0
  C  C46  1  0.04657078  0.58515416  0.46008557  1.0
  C  C47  1  0.95425350  0.41882267  0.53502993  1.0
  C  C48  1  0.95004198  0.61286018  0.51079143  1.0
  C  C49  1  0.05076737  0.39116736  0.48435013  1.0
  C  C50  1  0.95535226  0.47001033  0.44659156  1.0
  C  C51  1  0.04524381  0.53423599  0.54863505  1.0
  C  C52  1  0.50978102  0.38037701  0.87797266  1.0
  C  C53  1  0.54472320  0.60987684  0.12110080  1.0
  C  C54  1  0.55354865  0.61055212  0.87791653  1.0
  C  C55  1  0.50518335  0.37917447  0.12129729  1.0
  C  C56  1  0.55195072  0.60793797  0.94033830  1.0
  C  C57  1  0.50810234  0.38149130  0.05886705  1.0
  C  C58  1  0.53096412  0.49481376  0.96959026  1.0
  C  C59  1  0.52915811  0.49460150  0.02959059  1.0
  C  C60  1  0.51091817  0.38201620  0.94040269  1.0
  C  C61  1  0.54774762  0.60765605  0.05872166  1.0
  C  C62  1  0.57024821  0.71759780  0.96992950  1.0
  C  C63  1  0.48916396  0.27196974  0.02923419  1.0
  C  C64  1  0.56790286  0.71747939  0.02903385  1.0
  C  C65  1  0.49030374  0.27226922  0.97010713  1.0
  C  C66  1  0.24520349  0.48377855  0.31945817  1.0
  C  C67  1  0.27158587  0.59017507  0.68263384  1.0
  C  C68  1  0.76895441  0.09500667  0.48073519  1.0
  C  C69  1  0.23080376  0.90519738  0.52257104  1.0
  N  N70  1  0.53156490  0.49568587  0.85091657  1.0
  N  N71  1  0.52359148  0.49453350  0.14819123  1.0
  N  N72  1  0.85903948  0.49777359  0.49736028  1.0
  N  N73  1  0.14178922  0.50608744  0.49793463  1.0
  N  N74  1  0.12718829  0.47974789  0.33242140  1.0
  N  N75  1  0.16206468  0.63055143  0.67179117  1.0
  N  N76  1  0.88200811  0.13300997  0.47232640  1.0
  N  N77  1  0.11937100  0.86363761  0.53099569  1.0
  O  O78  1  0.62097669  0.68729757  0.51581968  1.0
  O  O79  1  0.37514895  0.31314929  0.51238879  1.0
  O  O80  1  0.39480527  0.68481814  0.48677869  1.0
  O  O81  1  0.60235260  0.32000133  0.48357236  1.0
  O  O82  1  0.61750183  0.53686575  0.41351011  1.0
  O  O83  1  0.39253869  0.52674128  0.58596410  1.0
  O  O84  1  0.39024045  0.47381335  0.41384483  1.0
  O  O85  1  0.61877600  0.46562981  0.58413199  1.0
  O  O86  1  0.49022624  0.28574574  0.85055740  1.0
  O  O87  1  0.55880175  0.70525193  0.14850872  1.0
  O  O88  1  0.57207398  0.70578599  0.85046304  1.0
  O  O89  1  0.48769889  0.28387984  0.14882072  1.0
