# generated using pymatgen
data_Zn2H29C56N2(O4F)3
_symmetry_space_group_name_H-M   'P 1'
_cell_length_a   13.43970163
_cell_length_b   18.00540932
_cell_length_c   19.68153827
_cell_angle_alpha   90.32099433
_cell_angle_beta   90.69820083
_cell_angle_gamma   110.76764138
_symmetry_Int_Tables_number   1
_chemical_formula_structural   Zn2H29C56N2(O4F)3
_chemical_formula_sum   'Zn2 H29 C56 N2 O12 F3'
_cell_volume   4452.65124892
_cell_formula_units_Z   1
loop_
 _symmetry_equiv_pos_site_id
 _symmetry_equiv_pos_as_xyz
  1  'x, y, z'
loop_
 _atom_site_type_symbol
 _atom_site_label
 _atom_site_symmetry_multiplicity
 _atom_site_fract_x
 _atom_site_fract_y
 _atom_site_fract_z
 _atom_site_occupancy
  Zn  Zn0  1  0.93345346  0.42031767  0.49967294  1.0
  Zn  Zn1  1  0.06684874  0.57772027  0.50166681  1.0
  H  H2  1  0.82895019  0.68338692  0.42579110  1.0
  H  H3  1  0.84936952  0.40290672  0.15328538  1.0
  H  H4  1  0.84880655  0.39934412  0.28012176  1.0
  H  H5  1  0.83574113  0.49689512  0.06248600  1.0
  H  H6  1  0.16199094  0.50880720  0.06152606  1.0
  H  H7  1  0.09061365  0.62560292  0.84454876  1.0
  H  H8  1  0.09218627  0.62424917  0.71753974  1.0
  H  H9  1  0.90651733  0.37528181  0.71549762  1.0
  H  H10  1  0.46473404  0.65550759  0.38761297  1.0
  H  H11  1  0.90094202  0.37615852  0.84221700  1.0
  H  H12  1  0.74644580  0.33043079  0.41263375  1.0
  H  H13  1  0.59970316  0.19668079  0.41215774  1.0
  H  H14  1  0.73576254  0.14753723  0.59942284  1.0
  H  H15  1  0.87491321  0.28366761  0.59196367  1.0
  H  H16  1  0.59349155  0.05803890  0.39788814  1.0
  H  H17  1  0.22096208  0.87397311  0.44581844  1.0
  H  H18  1  0.65998142  0.70328286  0.39258876  1.0
  H  H19  1  0.08466168  0.73506516  0.44874026  1.0
  H  H20  1  0.29502768  0.64951900  0.54852317  1.0
  H  H21  1  0.65140146  0.45919289  0.51226681  1.0
  H  H22  1  0.17258705  0.31416223  0.54154339  1.0
  H  H23  1  0.51157763  0.37606393  0.52821705  1.0
  H  H24  1  0.33665533  0.28029214  0.55895748  1.0
  H  H25  1  0.29122835  0.56055430  0.42267540  1.0
  H  H26  1  0.14498303  0.59743335  0.28645570  1.0
  H  H27  1  0.74045826  0.49498675  0.97026070  1.0
  H  H28  1  0.17709948  0.49525674  0.87348242  1.0
  H  H29  1  0.31621015  0.87494209  0.61622485  1.0
  H  H30  1  0.40979378  0.84786029  0.37893800  1.0
  C  C31  1  0.00090070  0.49923460  0.63280949  1.0
  C  C32  1  0.45046492  0.46342158  0.48732569  1.0
  C  C33  1  0.35624558  0.48081121  0.47432403  1.0
  C  C34  1  0.55320990  0.52164810  0.46954759  1.0
  C  C35  1  0.55775232  0.59239430  0.43513631  1.0
  C  C36  1  0.46054668  0.60345517  0.41732897  1.0
  C  C37  1  0.36420617  0.55076012  0.43667138  1.0
  C  C38  1  0.64985576  0.51182860  0.48608457  1.0
  C  C39  1  0.75161476  0.63916911  0.43741046  1.0
  C  C40  1  0.25667440  0.42668209  0.49717202  1.0
  C  C41  1  0.08051289  0.55419833  0.25753201  1.0
  C  C42  1  0.15922958  0.44882502  0.49790484  1.0
  C  C43  1  0.08008915  0.55435380  0.18718421  1.0
  C  C44  1  0.99802615  0.50113238  0.14747040  1.0
  C  C45  1  0.91392134  0.44574815  0.18267700  1.0
  C  C46  1  0.91327695  0.44331955  0.25330591  1.0
  C  C47  1  0.99662390  0.49764266  0.29120184  1.0
  C  C48  1  0.90695206  0.49837192  0.03538092  1.0
  C  C49  1  0.90422645  0.49871270  0.96420293  1.0
  C  C50  1  0.99517843  0.50148505  0.92715513  1.0
  C  C51  1  0.08707771  0.50480342  0.96444414  1.0
  C  C52  1  0.08856642  0.50637457  0.03574407  1.0
  C  C53  1  0.99702554  0.49628035  0.36744075  1.0
  C  C54  1  0.99860677  0.50256880  0.07243463  1.0
  C  C55  1  0.05004650  0.57067957  0.81622132  1.0
  C  C56  1  0.05116170  0.57017201  0.74547891  1.0
  C  C57  1  0.99956491  0.49973673  0.70891803  1.0
  C  C58  1  0.94633390  0.42983729  0.74433610  1.0
  C  C59  1  0.94363891  0.43048805  0.81493060  1.0
  C  C60  1  0.99548468  0.50096751  0.85158211  1.0
  C  C61  1  0.74025762  0.28736051  0.45258086  1.0
  C  C62  1  0.65983637  0.21307451  0.45265261  1.0
  C  C63  1  0.65661773  0.16032812  0.50548655  1.0
  C  C64  1  0.84669157  0.55344637  0.48893068  1.0
  C  C65  1  0.73450877  0.18588909  0.55712756  1.0
  C  C66  1  0.81249350  0.26092554  0.55322683  1.0
  C  C67  1  0.52045496  0.04375435  0.56287462  1.0
  C  C68  1  0.44401428  0.96653639  0.56333133  1.0
  C  C69  1  0.42254242  0.92257088  0.50164239  1.0
  C  C70  1  0.47724785  0.95654297  0.44245261  1.0
  C  C71  1  0.55186070  0.03415721  0.44468577  1.0
  C  C72  1  0.57569119  0.07934555  0.50446379  1.0
  C  C73  1  0.24008147  0.82580801  0.46909659  1.0
  C  C74  1  0.16444047  0.74952277  0.47037786  1.0
  C  C75  1  0.65798630  0.64981836  0.41935073  1.0
  C  C76  1  0.28112534  0.70081262  0.52709237  1.0
  C  C77  1  0.35913036  0.77614903  0.52767647  1.0
  C  C78  1  0.34054981  0.84109874  0.49927542  1.0
  C  C79  1  0.74760578  0.56917445  0.47102936  1.0
  C  C80  1  0.25009633  0.35475262  0.52560710  1.0
  C  C81  1  0.34232557  0.33642012  0.53566273  1.0
  C  C82  1  0.44067344  0.39043888  0.51807864  1.0
  C  C83  1  0.80418712  0.50033289  0.93233327  1.0
  C  C84  1  0.18410351  0.50311675  0.92964543  1.0
  C  C85  1  0.38425327  0.93162661  0.62572049  1.0
  C  C86  1  0.46210798  0.91159302  0.37725297  1.0
  N  N87  1  0.81567093  0.31040872  0.50171838  1.0
  N  N88  1  0.18493656  0.68890560  0.49925630  1.0
  O  O89  1  0.96410684  0.43173367  0.60277388  1.0
  O  O90  1  0.03888573  0.56634271  0.60363527  1.0
  O  O91  1  0.06933762  0.39502881  0.48508163  1.0
  O  O92  1  0.17414148  0.52058333  0.51448480  1.0
  O  O93  1  0.92462219  0.43917306  0.39572946  1.0
  O  O94  1  0.06979189  0.55250826  0.39807260  1.0
  O  O95  1  0.83448468  0.48449760  0.51107320  1.0
  O  O96  1  0.93660823  0.60876241  0.48000907  1.0
  O  O97  1  0.78831851  0.50789231  0.87196747  1.0
  O  O98  1  0.26682382  0.50874012  0.95981215  1.0
  O  O99  1  0.40431560  0.95990153  0.68291460  1.0
  O  O100  1  0.50475922  0.94110901  0.32440366  1.0
  F  F101  1  0.16254756  0.61054324  0.15549187  1.0
  F  F102  1  0.53983199  0.08742569  0.62048875  1.0
  F  F103  1  0.45502492  0.78684907  0.55700327  1.0
