# generated using pymatgen
data_Zn4H23C65N21O5
_symmetry_space_group_name_H-M   'P 1'
_cell_length_a   18.49549019
_cell_length_b   19.26068857
_cell_length_c   20.33275505
_cell_angle_alpha   104.45967450
_cell_angle_beta   112.43303646
_cell_angle_gamma   107.88015101
_symmetry_Int_Tables_number   1
_chemical_formula_structural   Zn4H23C65N21O5
_chemical_formula_sum   'Zn4 H23 C65 N21 O5'
_cell_volume   5791.22419440
_cell_formula_units_Z   1
loop_
 _symmetry_equiv_pos_site_id
 _symmetry_equiv_pos_as_xyz
  1  'x, y, z'
loop_
 _atom_site_type_symbol
 _atom_site_label
 _atom_site_symmetry_multiplicity
 _atom_site_fract_x
 _atom_site_fract_y
 _atom_site_fract_z
 _atom_site_occupancy
  Zn  Zn0  1  0.89384898  0.89983855  0.49369251  1.0
  Zn  Zn1  1  0.12427591  0.12233116  0.50130502  1.0
  Zn  Zn2  1  0.11417547  0.01532448  0.60902424  1.0
  Zn  Zn3  1  0.89771369  0.00341272  0.39032670  1.0
  H  H4  1  0.85440942  0.87611001  0.63021088  1.0
  H  H5  1  0.46145099  0.67962310  0.99801177  1.0
  H  H6  1  0.90173194  0.86443739  0.00389333  1.0
  H  H7  1  0.19779017  0.17045378  0.76875971  1.0
  H  H8  1  0.67898730  0.98557305  0.32563162  1.0
  H  H9  1  0.28685748  0.29918993  0.64663957  1.0
  H  H10  1  0.73391000  0.91277404  0.51752249  1.0
  H  H11  1  0.84699733  0.10721123  0.49931944  1.0
  H  H12  1  0.12687903  0.05215204  0.77233162  1.0
  H  H13  1  0.74045959  0.72540475  0.34983144  1.0
  H  H14  1  0.17940271  0.84441858  0.71507530  1.0
  H  H15  1  0.19528857  0.03128176  0.40081470  1.0
  H  H16  1  0.20700603  0.61701912  0.75869600  1.0
  H  H17  1  0.78747395  0.39333615  0.52742921  1.0
  H  H18  1  0.55639507  0.57435965  0.16864620  1.0
  H  H19  1  0.87751774  0.83542255  0.81670972  1.0
  H  H20  1  0.89923525  0.93992936  0.23112866  1.0
  H  H21  1  0.78326945  0.86685158  0.22089636  1.0
  H  H22  1  0.16130726  0.88526847  0.52785651  1.0
  H  H23  1  0.12260683  0.48461928  0.71965678  1.0
  H  H24  1  0.87117908  0.52778779  0.56640966  1.0
  H  H25  1  0.12227495  0.27013746  0.61250148  1.0
  H  H26  1  0.39118038  0.40631242  0.99215993  1.0
  C  C27  1  0.91999355  0.92279650  0.65385110  1.0
  C  C28  1  0.95725784  0.77879829  0.53560857  1.0
  C  C29  1  0.78805598  0.84257574  0.26432271  1.0
  C  C30  1  0.05788356  0.21926873  0.57811530  1.0
  C  C31  1  0.16148280  0.92730984  0.50100620  1.0
  C  C32  1  0.72595299  0.77188165  0.25600220  1.0
  C  C33  1  0.19699459  0.94108732  0.45260448  1.0
  C  C34  1  0.02364449  0.77516438  0.59756559  1.0
  C  C35  1  0.03353772  0.02520600  0.26401815  1.0
  C  C36  1  0.58852995  0.93240805  0.41146418  1.0
  C  C37  1  0.51779916  0.92015529  0.40849201  1.0
  C  C38  1  0.97865711  0.21556025  0.57315938  1.0
  C  C39  1  0.44254996  0.90935103  0.40806517  1.0
  C  C40  1  0.37550811  0.90260540  0.41139169  1.0
  C  C41  1  0.30763803  0.90409791  0.41994017  1.0
  C  C42  1  0.21398105  0.18878002  0.72788784  1.0
  C  C43  1  0.25050815  0.91278200  0.43295377  1.0
  C  C44  1  0.08225597  0.57119050  0.69022876  1.0
  C  C45  1  0.01056800  0.58277991  0.64459005  1.0
  C  C46  1  0.92553183  0.51776298  0.60112006  1.0
  C  C47  1  0.91119841  0.44209615  0.59911382  1.0
  C  C48  1  0.98331976  0.42906340  0.64079718  1.0
  C  C49  1  0.25657596  0.26731461  0.73573552  1.0
  C  C50  1  0.06735561  0.49477262  0.68753099  1.0
  C  C51  1  0.02131752  0.65498285  0.63612577  1.0
  C  C52  1  0.97360672  0.35044503  0.62745135  1.0
  C  C53  1  0.96925415  0.28342621  0.60601437  1.0
  C  C54  1  0.70604015  0.96834381  0.37288803  1.0
  C  C55  1  0.02273067  0.71199095  0.61948610  1.0
  C  C56  1  0.40495075  0.46576022  0.99297550  1.0
  C  C57  1  0.36276418  0.47361216  0.92333155  1.0
  C  C58  1  0.37951260  0.55248533  0.92722875  1.0
  C  C59  1  0.44621109  0.61983237  0.99670358  1.0
  C  C60  1  0.66978853  0.94405340  0.41798010  1.0
  C  C61  1  0.49504932  0.61123071  0.06362703  1.0
  C  C62  1  0.46929765  0.53280148  0.06219897  1.0
  C  C63  1  0.31318396  0.40358488  0.85228906  1.0
  C  C64  1  0.57175775  0.67398247  0.13134950  1.0
  C  C65  1  0.64370509  0.71774525  0.18995557  1.0
  C  C66  1  0.25957645  0.25482922  0.66554892  1.0
  C  C67  1  0.28654411  0.34017465  0.79792513  1.0
  C  C68  1  0.96061583  0.88823260  0.99980551  1.0
  C  C69  1  0.04275557  0.93532415  0.06832655  1.0
  C  C70  1  0.11958854  0.96205006  0.06188525  1.0
  C  C71  1  0.76452233  0.77019461  0.32998160  1.0
  C  C72  1  0.11103758  0.95142401  0.98755617  1.0
  C  C73  1  0.02712920  0.91384431  0.91984487  1.0
  C  C74  1  0.95257257  0.87683666  0.92662567  1.0
  C  C75  1  0.04645259  0.96201338  0.14136336  1.0
  C  C76  1  0.01495054  0.91897497  0.84894088  1.0
  C  C77  1  0.00167857  0.93443407  0.79179595  1.0
  C  C78  1  0.73467612  0.93155058  0.47159342  1.0
  C  C79  1  0.04296653  0.99272828  0.19970481  1.0
  C  C80  1  0.91663468  0.13605233  0.52018918  1.0
  C  C81  1  0.05931473  0.01361365  0.72628582  1.0
  C  C82  1  0.17797806  0.00205734  0.43546112  1.0
  C  C83  1  0.99335284  0.95552117  0.72911955  1.0
  C  C84  1  0.17927696  0.15058042  0.36225760  1.0
  C  C85  1  0.86929379  0.72091090  0.48451358  1.0
  C  C86  1  0.32965024  0.56536005  0.86256917  1.0
  C  C87  1  0.20374306  0.00163734  0.12989950  1.0
  C  C88  1  0.18592863  0.98143936  0.97892818  1.0
  C  C89  1  0.09367846  0.85289455  0.63283497  1.0
  C  C90  1  0.95998633  0.99373335  0.27255288  1.0
  C  C91  1  0.09279737  0.09470775  0.33547767  1.0
  N  N92  1  0.94191096  0.95782736  0.61041953  1.0
  N  N93  1  0.19301732  0.13485254  0.65888537  1.0
  N  N94  1  0.78461151  0.96871476  0.39743189  1.0
  N  N95  1  0.22114875  0.17595043  0.61960584  1.0
  N  N96  1  0.80250110  0.94622820  0.45844524  1.0
  N  N97  1  0.95645668  0.09639341  0.49443817  1.0
  N  N98  1  0.02830372  0.01394016  0.65469427  1.0
  N  N99  1  0.84222820  0.83543457  0.37770589  1.0
  N  N100  1  0.25157003  0.19683172  0.38688693  1.0
  N  N101  1  0.79511537  0.67512389  0.44360386  1.0
  N  N102  1  0.28846822  0.57975216  0.81265841  1.0
  N  N103  1  0.13610743  0.02304513  0.47200451  1.0
  N  N104  1  0.27283394  0.03288467  0.18588078  1.0
  N  N105  1  0.24535224  0.00453411  0.96884295  1.0
  N  N106  1  0.07072636  0.89732945  0.59532279  1.0
  N  N107  1  0.97447281  0.03936464  0.34257452  1.0
  N  N108  1  0.05669554  0.10207376  0.38236188  1.0
  N  N109  1  0.98676393  0.85239152  0.53464358  1.0
  N  N110  1  0.85734093  0.88090778  0.33766182  1.0
  N  N111  1  0.12600172  0.97772331  0.51272387  1.0
  N  N112  1  0.04323038  0.14815699  0.53063487  1.0
  O  O113  1  0.17456964  0.88470796  0.69472766  1.0
  O  O114  1  0.16336552  0.63465809  0.73268314  1.0
  O  O115  1  0.83022547  0.37701746  0.55549109  1.0
  O  O116  1  0.51009295  0.52165379  0.12673968  1.0
  O  O117  1  0.87178188  0.83440900  0.86253824  1.0
