# generated using pymatgen
data_Zn4H25C48NO15
_symmetry_space_group_name_H-M   'P 1'
_cell_length_a   15.37697869
_cell_length_b   15.64743864
_cell_length_c   19.59214929
_cell_angle_alpha   81.03832819
_cell_angle_beta   78.32536824
_cell_angle_gamma   67.55089412
_symmetry_Int_Tables_number   1
_chemical_formula_structural   Zn4H25C48NO15
_chemical_formula_sum   'Zn4 H25 C48 N1 O15'
_cell_volume   4250.62584769
_cell_formula_units_Z   1
loop_
 _symmetry_equiv_pos_site_id
 _symmetry_equiv_pos_as_xyz
  1  'x, y, z'
loop_
 _atom_site_type_symbol
 _atom_site_label
 _atom_site_symmetry_multiplicity
 _atom_site_fract_x
 _atom_site_fract_y
 _atom_site_fract_z
 _atom_site_occupancy
  Zn  Zn0  1  0.41726492  0.59516804  0.43900441  1.0
  Zn  Zn1  1  0.43197641  0.44339250  0.57572106  1.0
  Zn  Zn2  1  0.56115095  0.56090802  0.54004572  1.0
  Zn  Zn3  1  0.59422852  0.39859655  0.44075532  1.0
  H  H4  1  0.38468653  0.61194574  0.23127257  1.0
  H  H5  1  0.43474455  0.40590624  0.79259439  1.0
  H  H6  1  0.51554486  0.64532904  0.74347773  1.0
  H  H7  1  0.46103406  0.60457738  0.99287467  1.0
  H  H8  1  0.60763054  0.33365616  0.11181853  1.0
  H  H9  1  0.43570931  0.40954273  0.91906107  1.0
  H  H10  1  0.61078827  0.34531199  0.23670307  1.0
  H  H11  1  0.52229723  0.39200905  0.00888494  1.0
  H  H12  1  0.38239563  0.60258979  0.10605324  1.0
  H  H13  1  0.51015296  0.65382060  0.87046133  1.0
  H  H14  1  0.56592666  0.15656677  0.65825548  1.0
  H  H15  1  0.53220968  0.86511110  0.66544198  1.0
  H  H16  1  0.56093063  0.99751493  0.69197359  1.0
  H  H17  1  0.52076938  0.14713798  0.45127024  1.0
  H  H18  1  0.41990110  0.85360545  0.35112644  1.0
  H  H19  1  0.46917776  0.09133486  0.39287627  1.0
  H  H20  1  0.42153304  0.01364569  0.31532082  1.0
  H  H21  1  0.49639818  0.78290427  0.58484933  1.0
  H  H22  1  0.11923932  0.71730817  0.53552813  1.0
  H  H23  1  0.82884620  0.72694002  0.47950623  1.0
  H  H24  1  0.94893958  0.76297683  0.52123411  1.0
  H  H25  1  0.17032360  0.43395752  0.51115737  1.0
  H  H26  1  0.88572805  0.28116360  0.45491454  1.0
  H  H27  1  0.11966279  0.34333370  0.49285861  1.0
  H  H28  1  0.05812028  0.23062525  0.46650727  1.0
  C  C29  1  0.54385518  0.25539256  0.53372539  1.0
  C  C30  1  0.46674851  0.74564581  0.46380480  1.0
  C  C31  1  0.25614677  0.54888482  0.52589516  1.0
  C  C32  1  0.75134181  0.44407622  0.47282634  1.0
  C  C33  1  0.47852865  0.52051436  0.68473747  1.0
  C  C34  1  0.50006649  0.48609276  0.31622220  1.0
  C  C35  1  0.49847018  0.47967404  0.24136159  1.0
  C  C36  1  0.43418467  0.55205364  0.20414680  1.0
  C  C37  1  0.43366972  0.54669283  0.13418078  1.0
  C  C38  1  0.49652016  0.46837941  0.09941117  1.0
  C  C39  1  0.55896332  0.39505378  0.13783550  1.0
  C  C40  1  0.56102832  0.40109582  0.20747577  1.0
  C  C41  1  0.45393405  0.46096405  0.88067743  1.0
  C  C42  1  0.45294174  0.45875448  0.81025708  1.0
  C  C43  1  0.49741457  0.59458596  0.78256848  1.0
  C  C44  1  0.49474323  0.59870230  0.85330618  1.0
  C  C45  1  0.47493367  0.53096949  0.90362716  1.0
  C  C46  1  0.49782972  0.46205722  0.02565313  1.0
  C  C47  1  0.47585040  0.53556942  0.97725484  1.0
  C  C48  1  0.47581431  0.52488885  0.76051380  1.0
  C  C49  1  0.55044385  0.03128500  0.63958251  1.0
  C  C50  1  0.54399722  0.15928518  0.55212430  1.0
  C  C51  1  0.43869083  0.88952651  0.38587153  1.0
  C  C52  1  0.44050558  0.97881284  0.36584799  1.0
  C  C53  1  0.46734230  0.02228948  0.40978183  1.0
  C  C54  1  0.49059117  0.97967501  0.47606353  1.0
  C  C55  1  0.48613417  0.88936983  0.49786475  1.0
  C  C56  1  0.51642909  0.02657359  0.52297938  1.0
  C  C57  1  0.53053904  0.98440717  0.59192478  1.0
  C  C58  1  0.52215203  0.89606717  0.61234551  1.0
  C  C59  1  0.50170721  0.85025431  0.56760561  1.0
  C  C60  1  0.52727946  0.11322993  0.50388843  1.0
  C  C61  1  0.55436022  0.11847266  0.62105877  1.0
  C  C62  1  0.46261512  0.84380678  0.45010073  1.0
  C  C63  1  0.99784753  0.69106749  0.51856588  1.0
  C  C64  1  0.15297983  0.57249744  0.52352191  1.0
  C  C65  1  0.91602027  0.33150072  0.46129086  1.0
  C  C66  1  0.01194860  0.30339020  0.46900710  1.0
  C  C67  1  0.04653891  0.36729459  0.48306685  1.0
  C  C68  1  0.98917328  0.46257542  0.48496297  1.0
  C  C69  1  0.89339219  0.49235456  0.47133469  1.0
  C  C70  1  0.02576175  0.52939128  0.50061966  1.0
  C  C71  1  0.96444893  0.62446735  0.50339316  1.0
  C  C72  1  0.87256555  0.65331194  0.48423275  1.0
  C  C73  1  0.84083651  0.59094369  0.46579113  1.0
  C  C74  1  0.12010240  0.50524703  0.51253297  1.0
  C  C75  1  0.09132534  0.66616138  0.52699487  1.0
  C  C76  1  0.85618012  0.42379672  0.46479618  1.0
  N  N77  1  0.75696134  0.63300836  0.42956682  1.0
  O  O78  1  0.50158468  0.49743430  0.49699075  1.0
  O  O79  1  0.57853810  0.27746762  0.47153011  1.0
  O  O80  1  0.42378940  0.71940044  0.42625473  1.0
  O  O81  1  0.30203612  0.47051897  0.55622036  1.0
  O  O82  1  0.69936410  0.50514475  0.51514948  1.0
  O  O83  1  0.43155939  0.47663467  0.66842206  1.0
  O  O84  1  0.56860197  0.42422491  0.34387125  1.0
  O  O85  1  0.52840138  0.56084385  0.64198970  1.0
  O  O86  1  0.43266310  0.55318913  0.34655164  1.0
  O  O87  1  0.28989956  0.61063458  0.49623881  1.0
  O  O88  1  0.72404012  0.39499029  0.44208330  1.0
  O  O89  1  0.50714985  0.30930483  0.58311201  1.0
  O  O90  1  0.51416865  0.69354837  0.51063562  1.0
  O  O91  1  0.69880324  0.71026925  0.44519174  1.0
  O  O92  1  0.75264417  0.59057260  0.38248955  1.0
