# generated using pymatgen
data_ZnH10C28I5NO4
_symmetry_space_group_name_H-M   'P 1'
_cell_length_a   14.46090566
_cell_length_b   15.08234921
_cell_length_c   15.08245813
_cell_angle_alpha   79.54876705
_cell_angle_beta   84.29172469
_cell_angle_gamma   84.29605753
_symmetry_Int_Tables_number   1
_chemical_formula_structural   ZnH10C28I5NO4
_chemical_formula_sum   'Zn2 H20 C56 I10 N2 O8'
_cell_volume   3207.79287539
_cell_formula_units_Z   2
loop_
 _symmetry_equiv_pos_site_id
 _symmetry_equiv_pos_as_xyz
  1  'x, y, z'
loop_
 _atom_site_type_symbol
 _atom_site_label
 _atom_site_symmetry_multiplicity
 _atom_site_fract_x
 _atom_site_fract_y
 _atom_site_fract_z
 _atom_site_occupancy
  Zn  Zn0  1  0.58192149  0.53820231  0.51858387  1.0
  Zn  Zn1  1  0.41807539  0.48139949  0.46180344  1.0
  H  H2  1  0.64573068  0.93305331  0.72107048  1.0
  H  H3  1  0.21285405  0.05861258  0.51491561  1.0
  H  H4  1  0.35424525  0.27894457  0.06695629  1.0
  H  H5  1  0.78718064  0.48501740  0.94139883  1.0
  H  H6  1  0.87723109  0.41108697  0.42193021  1.0
  H  H7  1  0.12275100  0.57796064  0.58906983  1.0
  H  H8  1  0.49730281  0.78191535  0.55648308  1.0
  H  H9  1  0.45094381  0.22613486  0.52219097  1.0
  H  H10  1  0.50268588  0.44352547  0.21807055  1.0
  H  H11  1  0.54910251  0.47773756  0.77386346  1.0
  H  H12  1  0.72756239  0.07473529  0.67225454  1.0
  H  H13  1  0.19783124  0.92398510  0.44509792  1.0
  H  H14  1  0.27243955  0.32771898  0.92527592  1.0
  H  H15  1  0.80218679  0.55488568  0.07599916  1.0
  H  H16  1  0.01387665  0.33196532  0.35444931  1.0
  H  H17  1  0.98609126  0.64542518  0.66817761  1.0
  H  H18  1  0.76897650  0.48447315  0.46683896  1.0
  H  H19  1  0.23101531  0.53313776  0.51557160  1.0
  H  H20  1  0.65194301  0.64301664  0.65177361  1.0
  H  H21  1  0.34804714  0.34822345  0.35699460  1.0
  C  C22  1  0.57581906  0.52047151  0.32775229  1.0
  C  C23  1  0.43494563  0.47543033  0.65807104  1.0
  C  C24  1  0.42417979  0.67223644  0.47953009  1.0
  C  C25  1  0.56508738  0.34193390  0.52453419  1.0
  C  C26  1  0.59147244  0.96314042  0.67697507  1.0
  C  C27  1  0.28280795  0.03094156  0.53150822  1.0
  C  C28  1  0.40851899  0.32302453  0.03687208  1.0
  C  C29  1  0.71722282  0.46843733  0.96905874  1.0
  C  C30  1  0.19683786  0.35506203  0.37297480  1.0
  C  C31  1  0.80313021  0.62701034  0.64500001  1.0
  C  C32  1  0.28346401  0.37932123  0.38599173  1.0
  C  C33  1  0.71651784  0.61401183  0.62070267  1.0
  C  C34  1  0.21721296  0.48276638  0.47637544  1.0
  C  C35  1  0.78277155  0.52365557  0.51723342  1.0
  C  C36  1  0.12596349  0.46249384  0.46749783  1.0
  C  C37  1  0.87402102  0.53252465  0.53752624  1.0
  C  C38  1  0.11448282  0.39790975  0.41153582  1.0
  C  C39  1  0.88550163  0.58845058  0.60214843  1.0
  C  C40  1  0.04510715  0.50547494  0.51210612  1.0
  C  C41  1  0.95486365  0.48793347  0.49452464  1.0
  C  C42  1  0.94617403  0.42541519  0.43575999  1.0
  C  C43  1  0.05380802  0.56416333  0.57470039  1.0
  C  C44  1  0.02262079  0.38083882  0.39739884  1.0
  C  C45  1  0.97736416  0.60253870  0.61925986  1.0
  C  C46  1  0.58260440  0.24287320  0.56172954  1.0
  C  C47  1  0.38000641  0.76448137  0.49069372  1.0
  C  C48  1  0.41742718  0.43822110  0.75712625  1.0
  C  C49  1  0.61999551  0.50930875  0.23550465  1.0
  C  C50  1  0.66528050  0.10851511  0.64176626  1.0
  C  C51  1  0.26208397  0.89156189  0.47268060  1.0
  C  C52  1  0.33473043  0.35819558  0.89149012  1.0
  C  C53  1  0.73794383  0.52729534  0.10843105  1.0
  C  C54  1  0.66237314  0.19950462  0.60389281  1.0
  C  C55  1  0.29338078  0.80450187  0.45999486  1.0
  C  C56  1  0.33765967  0.39605749  0.80049600  1.0
  C  C57  1  0.70663259  0.53999317  0.19548490  1.0
  C  C58  1  0.50873331  0.19135254  0.55876731  1.0
  C  C59  1  0.42941160  0.81291763  0.53756074  1.0
  C  C60  1  0.49131482  0.44115080  0.80863954  1.0
  C  C61  1  0.57058570  0.46243771  0.18708003  1.0
  C  C62  1  0.50791450  0.09958405  0.59773611  1.0
  C  C63  1  0.39716635  0.89907952  0.55645760  1.0
  C  C64  1  0.49211400  0.40221598  0.90041790  1.0
  C  C65  1  0.60283860  0.44352331  0.10092542  1.0
  C  C66  1  0.58925668  0.05702586  0.63912879  1.0
  C  C67  1  0.31331813  0.94074959  0.51941844  1.0
  C  C68  1  0.41073632  0.36085248  0.94298794  1.0
  C  C69  1  0.68670258  0.48055498  0.05924859  1.0
  C  C70  1  0.43312903  0.04603998  0.58815541  1.0
  C  C71  1  0.45146885  0.95033085  0.60121956  1.0
  C  C72  1  0.56689059  0.41181173  0.95396837  1.0
  C  C73  1  0.54853393  0.39875152  0.04968181  1.0
  C  C74  1  0.52509117  0.91207235  0.65802138  1.0
  C  C75  1  0.34081394  0.08178065  0.56408096  1.0
  C  C76  1  0.47490170  0.34196834  0.08793336  1.0
  C  C77  1  0.65921815  0.43585762  0.91823239  1.0
  I  I78  1  0.20948167  0.74205796  0.38643851  1.0
  I  I79  1  0.78635084  0.26327443  0.60307674  1.0
  I  I80  1  0.79052070  0.61356798  0.25791213  1.0
  I  I81  1  0.21370665  0.39680776  0.73672371  1.0
  I  I82  1  0.51933760  0.78060482  0.73666428  1.0
  I  I83  1  0.27894345  0.20452513  0.60307234  1.0
  I  I84  1  0.48062297  0.26333704  0.21941855  1.0
  I  I85  1  0.72110617  0.39688132  0.79547388  1.0
  I  I86  1  0.19128528  0.25081768  0.29859340  1.0
  I  I87  1  0.80867299  0.70138898  0.74925494  1.0
  N  N88  1  0.29245678  0.44375930  0.43600368  1.0
  N  N89  1  0.70753190  0.56402467  0.55623794  1.0
  O  O90  1  0.62990972  0.52250778  0.38870170  1.0
  O  O91  1  0.39163973  0.44433406  0.60284060  1.0
  O  O92  1  0.37009235  0.61127219  0.47750541  1.0
  O  O93  1  0.60839537  0.39716076  0.55563253  1.0
  O  O94  1  0.48718978  0.52339574  0.33831343  1.0
  O  O95  1  0.49695643  0.53192975  0.63706008  1.0
  O  O96  1  0.51280888  0.66168332  0.47659365  1.0
  O  O97  1  0.50306405  0.36295102  0.46804052  1.0
