# generated using pymatgen
data_Zn2H26C45I8N2O11
_symmetry_space_group_name_H-M   'P 1'
_cell_length_a   12.50655908
_cell_length_b   13.28832836
_cell_length_c   15.97407066
_cell_angle_alpha   89.30518512
_cell_angle_beta   75.28549189
_cell_angle_gamma   80.17009781
_symmetry_Int_Tables_number   1
_chemical_formula_structural   Zn2H26C45I8N2O11
_chemical_formula_sum   'Zn2 H26 C45 I8 N2 O11'
_cell_volume   2528.62852181
_cell_formula_units_Z   1
loop_
 _symmetry_equiv_pos_site_id
 _symmetry_equiv_pos_as_xyz
  1  'x, y, z'
loop_
 _atom_site_type_symbol
 _atom_site_label
 _atom_site_symmetry_multiplicity
 _atom_site_fract_x
 _atom_site_fract_y
 _atom_site_fract_z
 _atom_site_occupancy
  Zn  Zn0  1  0.61571949  0.51812877  0.48566919  1.0
  Zn  Zn1  1  0.38196765  0.48179445  0.52340047  1.0
  H  H2  1  0.66526613  0.54294027  0.03226701  1.0
  H  H3  1  0.53001648  0.65136460  0.92050670  1.0
  H  H4  1  0.18334010  0.00761869  0.49423200  1.0
  H  H5  1  0.54758614  0.81352936  0.51255351  1.0
  H  H6  1  0.76440759  0.20506067  0.51321530  1.0
  H  H7  1  0.80475334  0.02148931  0.54699994  1.0
  H  H8  1  0.65264702  0.55634069  0.88935537  1.0
  H  H9  1  0.14585631  0.64096015  0.32210955  1.0
  H  H10  1  0.95244404  0.69533395  0.31180244  1.0
  H  H11  1  0.27083939  0.32794302  0.61953532  1.0
  H  H12  1  0.93448427  0.36061680  0.58528068  1.0
  H  H13  1  0.27828097  0.55197733  0.40105400  1.0
  H  H14  1  0.48884133  0.33651299  0.94426374  1.0
  H  H15  1  0.64279990  0.38251923  0.04696305  1.0
  H  H16  1  0.51284080  0.34017436  0.08379820  1.0
  H  H17  1  0.34216975  0.60481122  0.96409390  1.0
  H  H18  1  0.32225713  0.47666438  0.97211038  1.0
  H  H19  1  0.68205537  0.73976134  0.98200806  1.0
  H  H20  1  0.71557594  0.68411136  0.07756041  1.0
  H  H21  1  0.61903768  0.80232331  0.08577687  1.0
  H  H22  1  0.50537908  0.30674580  0.26961783  1.0
  H  H23  1  0.48488601  0.17641350  0.26643717  1.0
  H  H24  1  0.60363173  0.20651417  0.29976240  1.0
  H  H25  1  0.73709730  0.46822196  0.69474942  1.0
  H  H26  1  0.71654762  0.59149506  0.64966189  1.0
  H  H27  1  0.85521398  0.53358612  0.65829377  1.0
  C  C28  1  0.57417190  0.30810813  0.49068074  1.0
  C  C29  1  0.57931396  0.57719987  0.02951131  1.0
  C  C30  1  0.50290300  0.50618138  0.08581171  1.0
  C  C31  1  0.37943745  0.53193558  0.07903876  1.0
  C  C32  1  0.37640739  0.52907404  0.98326153  1.0
  C  C33  1  0.51287903  0.50763162  0.17405024  1.0
  C  C34  1  0.48627986  0.49450683  0.83407769  1.0
  C  C35  1  0.47309671  0.49551510  0.76126211  1.0
  C  C36  1  0.26355503  0.96505206  0.49998963  1.0
  C  C37  1  0.37993958  0.80592056  0.51862004  1.0
  C  C38  1  0.70731858  0.15385915  0.50677627  1.0
  C  C39  1  0.47006263  0.49659748  0.67094625  1.0
  C  C40  1  0.72865070  0.05111959  0.52698820  1.0
  C  C41  1  0.64969924  0.98826718  0.52860444  1.0
  C  C42  1  0.54983891  0.02274497  0.50098577  1.0
  C  C43  1  0.53479279  0.12717134  0.47449001  1.0
  C  C44  1  0.45969111  0.96575363  0.50080474  1.0
  C  C45  1  0.35597336  0.01672964  0.48515803  1.0
  C  C46  1  0.35315155  0.11507821  0.44716285  1.0
  C  C47  1  0.44292853  0.16478121  0.43599264  1.0
  C  C48  1  0.46785448  0.86014399  0.51183143  1.0
  C  C49  1  0.27305086  0.86248344  0.51925001  1.0
  C  C50  1  0.41169707  0.69170227  0.51803417  1.0
  C  C51  1  0.60852611  0.19374662  0.48488996  1.0
  C  C52  1  0.92364615  0.64350184  0.36254432  1.0
  C  C53  1  0.20529969  0.36201968  0.58883623  1.0
  C  C54  1  0.09962706  0.33193049  0.60730468  1.0
  C  C55  1  0.01702814  0.38224607  0.57067699  1.0
  C  C56  1  0.04149674  0.46056613  0.51195186  1.0
  C  C57  1  0.15408895  0.47936611  0.48921727  1.0
  C  C58  1  0.96166851  0.52049151  0.47090580  1.0
  C  C59  1  0.00095350  0.58544596  0.40233127  1.0
  C  C60  1  0.11688559  0.59361344  0.37657591  1.0
  C  C61  1  0.52827293  0.50206117  0.33705193  1.0
  C  C62  1  0.19015902  0.54482633  0.42002740  1.0
  C  C63  1  0.84450780  0.52180940  0.49505419  1.0
  C  C64  1  0.81135533  0.63584137  0.38937643  1.0
  C  C65  1  0.56961231  0.57518552  0.93508099  1.0
  C  C66  1  0.54361104  0.39038216  0.95094503  1.0
  C  C67  1  0.55480127  0.39712702  0.04425225  1.0
  C  C68  1  0.52493075  0.50507680  0.24712746  1.0
  C  C69  1  0.49668238  0.49664043  0.92243168  1.0
  C  C70  1  0.64826270  0.72773559  0.05160547  1.0
  C  C71  1  0.51495632  0.23297308  0.30057322  1.0
  C  C72  1  0.77572013  0.51958114  0.64691600  1.0
  I  I73  1  0.28366530  0.41829190  0.15156991  1.0
  I  I74  1  0.12107672  0.80463252  0.54886431  1.0
  I  I75  1  0.22091804  0.17881246  0.39249659  1.0
  I  I76  1  0.69400175  0.84670519  0.58596535  1.0
  I  I77  1  0.70212892  0.73338686  0.33129456  1.0
  I  I78  1  0.06935012  0.20958672  0.68882434  1.0
  I  I79  1  0.70412645  0.32220960  0.86311268  1.0
  I  I80  1  0.29200686  0.68019484  0.14025686  1.0
  N  N81  1  0.77219806  0.57415381  0.45424367  1.0
  N  N82  1  0.23071682  0.43333655  0.53143738  1.0
  O  O83  1  0.65013640  0.36180529  0.46292903  1.0
  O  O84  1  0.47244586  0.34079719  0.53034956  1.0
  O  O85  1  0.56535464  0.49380591  0.61777920  1.0
  O  O86  1  0.37560532  0.50011401  0.65401871  1.0
  O  O87  1  0.51436491  0.65751213  0.51469004  1.0
  O  O88  1  0.33748637  0.63716160  0.51796008  1.0
  O  O89  1  0.61459624  0.52335072  0.35571929  1.0
  O  O90  1  0.44186829  0.47767593  0.38901140  1.0
  O  O91  1  0.55355681  0.67728639  0.06704300  1.0
  O  O92  1  0.44641227  0.25082341  0.38816360  1.0
  O  O93  1  0.79634139  0.46800963  0.56302288  1.0
