# generated using pymatgen
data_Zn3H8(C3O2)8
_symmetry_space_group_name_H-M   'P 1'
_cell_length_a   18.08204132
_cell_length_b   18.08215497
_cell_length_c   18.08221842
_cell_angle_alpha   118.45193641
_cell_angle_beta   105.17600751
_cell_angle_gamma   105.17601104
_symmetry_Int_Tables_number   1
_chemical_formula_structural   Zn3H8(C3O2)8
_chemical_formula_sum   'Zn6 H16 C48 O32'
_cell_volume   4466.19950601
_cell_formula_units_Z   2
loop_
 _symmetry_equiv_pos_site_id
 _symmetry_equiv_pos_as_xyz
  1  'x, y, z'
loop_
 _atom_site_type_symbol
 _atom_site_label
 _atom_site_symmetry_multiplicity
 _atom_site_fract_x
 _atom_site_fract_y
 _atom_site_fract_z
 _atom_site_occupancy
  Zn  Zn0  1  0.55881391  0.99999915  0.55881368  1.0
  Zn  Zn1  1  0.99999905  0.56966839  0.56966510  1.0
  Zn  Zn2  1  0.00000344  0.43033356  0.43033025  1.0
  Zn  Zn3  1  0.55881120  0.55881168  0.00000071  1.0
  Zn  Zn4  1  0.44118449  0.99999863  0.44118643  1.0
  Zn  Zn5  1  0.44118527  0.44118566  0.00000366  1.0
  H  H6  1  0.22846286  0.73980760  0.35301606  1.0
  H  H7  1  0.61321296  0.35302456  0.12455647  1.0
  H  H8  1  0.77153928  0.12456334  0.51135053  1.0
  H  H9  1  0.38679169  0.51134710  0.73981055  1.0
  H  H10  1  0.61320859  0.26019343  0.48865435  1.0
  H  H11  1  0.77154384  0.64698335  0.26019216  1.0
  H  H12  1  0.38679076  0.87544095  0.64697402  1.0
  H  H13  1  0.22846317  0.48865810  0.87544149  1.0
  H  H14  1  0.10678298  0.60929163  0.26476301  1.0
  H  H15  1  0.65547449  0.26476656  0.15798322  1.0
  H  H16  1  0.89321615  0.15798561  0.50251092  1.0
  H  H17  1  0.34452912  0.50250574  0.60928953  1.0
  H  H18  1  0.65547054  0.39071352  0.49749234  1.0
  H  H19  1  0.89322316  0.73523798  0.39071069  1.0
  H  H20  1  0.34452480  0.84201667  0.73522936  1.0
  H  H21  1  0.10678087  0.49748797  0.84201253  1.0
  C  C22  1  0.38310268  0.88310621  0.49999193  1.0
  C  C23  1  0.49997737  0.63931172  0.13934135  1.0
  C  C24  1  0.50001050  0.86065399  0.36067803  1.0
  C  C25  1  0.49998811  0.36065492  0.86065569  1.0
  C  C26  1  0.49999700  0.13934302  0.63933505  1.0
  C  C27  1  0.49999655  0.21716170  0.71714564  1.0
  C  C28  1  0.49998445  0.71713392  0.21716660  1.0
  C  C29  1  0.49999931  0.78282543  0.28285822  1.0
  C  C30  1  0.61690370  0.50000876  0.11689102  1.0
  C  C31  1  0.49999018  0.28284966  0.78283576  1.0
  C  C32  1  0.23864006  0.74490122  0.41786087  1.0
  C  C33  1  0.67297006  0.41787303  0.17922647  1.0
  C  C34  1  0.76135892  0.17923295  0.50626572  1.0
  C  C35  1  0.32704006  0.50626255  0.74490324  1.0
  C  C36  1  0.67296372  0.25510352  0.49374313  1.0
  C  C37  1  0.61689007  0.11689504  0.50000071  1.0
  C  C38  1  0.76136433  0.58213732  0.25510142  1.0
  C  C39  1  0.32703411  0.82077187  0.58212427  1.0
  C  C40  1  0.23864234  0.49373879  0.82077156  1.0
  C  C41  1  0.38310861  0.50000450  0.88311151  1.0
  C  C42  1  0.17437311  0.68062546  0.41678334  1.0
  C  C43  1  0.73616054  0.41678518  0.24240927  1.0
  C  C44  1  0.82562767  0.24241775  0.50625691  1.0
  C  C45  1  0.26384067  0.50625095  0.68062282  1.0
  C  C46  1  0.73616002  0.31938212  0.49375540  1.0
  C  C47  1  0.82562951  0.58321715  0.31937645  1.0
  C  C48  1  0.26384215  0.75758778  0.58321188  1.0
  C  C49  1  0.17436802  0.49374215  0.75757948  1.0
  C  C50  1  0.18604339  0.68604500  0.49999601  1.0
  C  C51  1  0.81395971  0.50000091  0.31395377  1.0
  C  C52  1  0.81395718  0.31396543  0.50000888  1.0
  C  C53  1  0.18604255  0.49999115  0.68603580  1.0
  C  C54  1  0.11711816  0.49998955  0.61710676  1.0
  C  C55  1  0.11711910  0.61712544  0.50000208  1.0
  C  C56  1  0.88288416  0.49999756  0.38287532  1.0
  C  C57  1  0.88288190  0.38289135  0.50000653  1.0
  C  C58  1  0.31533328  0.81533331  0.49999895  1.0
  C  C59  1  0.68467224  0.50000330  0.18466534  1.0
  C  C60  1  0.68466721  0.18467147  0.50000493  1.0
  C  C61  1  0.31533245  0.50000360  0.81533348  1.0
  C  C62  1  0.09570259  0.61200238  0.32400379  1.0
  C  C63  1  0.71200375  0.32400822  0.22830505  1.0
  C  C64  1  0.90429820  0.22830783  0.51630346  1.0
  C  C65  1  0.28800007  0.51630057  0.61200252  1.0
  C  C66  1  0.71200208  0.38800244  0.48370301  1.0
  C  C67  1  0.90430210  0.67599581  0.38799992  1.0
  C  C68  1  0.28799897  0.77169268  0.67598814  1.0
  C  C69  1  0.09569635  0.48369365  0.77168907  1.0
  O  O70  1  0.46007435  0.92401417  0.56472742  1.0
  O  O71  1  0.64073069  0.56473923  0.10465455  1.0
  O  O72  1  0.53991850  0.10465266  0.46392898  1.0
  O  O73  1  0.35928813  0.46394173  0.92401298  1.0
  O  O74  1  0.64071558  0.07599268  0.53606868  1.0
  O  O75  1  0.53993282  0.43527445  0.07598277  1.0
  O  O76  1  0.35927550  0.89534370  0.43526407  1.0
  O  O77  1  0.46008454  0.53607676  0.89534891  1.0
  O  O78  1  0.56182459  0.11967065  0.65978453  1.0
  O  O79  1  0.54008244  0.65975729  0.09794804  1.0
  O  O80  1  0.43816707  0.09795628  0.55783397  1.0
  O  O81  1  0.45987216  0.55781834  0.11968223  1.0
  O  O82  1  0.54012796  0.88032417  0.44217746  1.0
  O  O83  1  0.43816752  0.34021162  0.88032955  1.0
  O  O84  1  0.45990181  0.90204292  0.34023364  1.0
  O  O85  1  0.56182613  0.44216296  0.90204531  1.0
  O  O86  1  0.08428853  0.43163104  0.53070950  1.0
  O  O87  1  0.09908218  0.53072042  0.44642977  1.0
  O  O88  1  0.91571700  0.44642935  0.34734385  1.0
  O  O89  1  0.90091772  0.34735975  0.43164146  1.0
  O  O90  1  0.09908376  0.56835764  0.65264081  1.0
  O  O91  1  0.91571584  0.46929274  0.56837105  1.0
  O  O92  1  0.90091943  0.55356469  0.46927497  1.0
  O  O93  1  0.08428767  0.65265221  0.55356770  1.0
  O  O94  1  0.02502245  0.56404473  0.30946754  1.0
  O  O95  1  0.74542278  0.30947551  0.28445385  1.0
  O  O96  1  0.97498008  0.28445271  0.53902977  1.0
  O  O97  1  0.25458008  0.53902406  0.56404471  1.0
  O  O98  1  0.74542585  0.43596107  0.46098268  1.0
  O  O99  1  0.97498251  0.69053128  0.43595512  1.0
  O  O100  1  0.25458179  0.71554328  0.69052207  1.0
  O  O101  1  0.02501408  0.46096813  0.71554617  1.0
