# generated using pymatgen
data_AlH14(C4O)5
_symmetry_space_group_name_H-M   'P 1'
_cell_length_a   6.63787616
_cell_length_b   21.53811798
_cell_length_c   25.49129160
_cell_angle_alpha   95.82126787
_cell_angle_beta   89.99855522
_cell_angle_gamma   89.99961770
_symmetry_Int_Tables_number   1
_chemical_formula_structural   AlH14(C4O)5
_chemical_formula_sum   'Al4 H56 C80 O20'
_cell_volume   3625.62884005
_cell_formula_units_Z   4
loop_
 _symmetry_equiv_pos_site_id
 _symmetry_equiv_pos_as_xyz
  1  'x, y, z'
loop_
 _atom_site_type_symbol
 _atom_site_label
 _atom_site_symmetry_multiplicity
 _atom_site_fract_x
 _atom_site_fract_y
 _atom_site_fract_z
 _atom_site_occupancy
  Al  Al0  1  0.19234041  0.74960511  0.75194776  1.0
  Al  Al1  1  0.80767069  0.25039400  0.24805658  1.0
  Al  Al2  1  0.69233333  0.75039863  0.74805452  1.0
  Al  Al3  1  0.30766722  0.24960116  0.25194785  1.0
  H  H4  1  0.97413475  0.62414246  0.41521336  1.0
  H  H5  1  0.02586580  0.37585880  0.58478585  1.0
  H  H6  1  0.47417656  0.87585842  0.08478677  1.0
  H  H7  1  0.52580892  0.12413999  0.91521560  1.0
  H  H8  1  0.93933131  0.63362921  0.58592818  1.0
  H  H9  1  0.06068882  0.36637171  0.41406827  1.0
  H  H10  1  0.43933477  0.86636878  0.91407504  1.0
  H  H11  1  0.56066427  0.13362972  0.08592813  1.0
  H  H12  1  0.97607223  0.53954901  0.72605796  1.0
  H  H13  1  0.02392682  0.46045560  0.27394203  1.0
  H  H14  1  0.47604807  0.96044883  0.77394499  1.0
  H  H15  1  0.52396001  0.03954735  0.22605818  1.0
  H  H16  1  0.95663995  0.62946654  0.51032323  1.0
  H  H17  1  0.04336362  0.37053296  0.48967678  1.0
  H  H18  1  0.45672549  0.87052954  0.98967632  1.0
  H  H19  1  0.54327506  0.12946928  0.01032566  1.0
  H  H20  1  0.68664296  0.90406385  0.53495814  1.0
  H  H21  1  0.31335308  0.09594000  0.46504698  1.0
  H  H22  1  0.18662804  0.59593364  0.96504223  1.0
  H  H23  1  0.81336649  0.40406210  0.03495739  1.0
  H  H24  1  0.67375486  0.83621060  0.60872394  1.0
  H  H25  1  0.32625322  0.16379855  0.39128274  1.0
  H  H26  1  0.17375187  0.66378519  0.89127731  1.0
  H  H27  1  0.82624718  0.33621107  0.10872270  1.0
  H  H28  1  0.25552913  0.97761486  0.59463437  1.0
  H  H29  1  0.74446841  0.02239156  0.40536522  1.0
  H  H30  1  0.75551937  0.52238272  0.90536470  1.0
  H  H31  1  0.24447968  0.47761192  0.09463729  1.0
  H  H32  1  0.11863909  0.61163271  0.32984220  1.0
  H  H33  1  0.00275678  0.56719264  0.27552716  1.0
  H  H34  1  0.85306540  0.60378749  0.32760666  1.0
  H  H35  1  0.14693213  0.39621595  0.67239136  1.0
  H  H36  1  0.99723473  0.43280909  0.72447205  1.0
  H  H37  1  0.88135544  0.38836909  0.67015385  1.0
  H  H38  1  0.35307809  0.89621447  0.17239161  1.0
  H  H39  1  0.61865414  0.88836911  0.17015663  1.0
  H  H40  1  0.50276653  0.93281105  0.22447252  1.0
  H  H41  1  0.64692095  0.10378169  0.82760762  1.0
  H  H42  1  0.49723553  0.06718442  0.77552868  1.0
  H  H43  1  0.38134792  0.11162968  0.82984141  1.0
  H  H44  1  0.23502637  0.91782892  0.71875111  1.0
  H  H45  1  0.39170066  0.87190984  0.67497002  1.0
  H  H46  1  0.38674845  0.95444896  0.67283375  1.0
  H  H47  1  0.76497719  0.08217522  0.28124888  1.0
  H  H48  1  0.61326415  0.04555501  0.32716860  1.0
  H  H49  1  0.60829838  0.12809394  0.32503076  1.0
  H  H50  1  0.73502709  0.58216119  0.78124339  1.0
  H  H51  1  0.89169399  0.62807969  0.82502372  1.0
  H  H52  1  0.88673941  0.54554198  0.82716001  1.0
  H  H53  1  0.26495388  0.41783320  0.21875663  1.0
  H  H54  1  0.11324758  0.45445132  0.17283488  1.0
  H  H55  1  0.10829452  0.37191297  0.17497354  1.0
  H  H56  1  0.43499041  0.71260950  0.68652650  1.0
  H  H57  1  0.56500864  0.28739122  0.31347587  1.0
  H  H58  1  0.93498314  0.78739285  0.81347438  1.0
  H  H59  1  0.06501892  0.21260648  0.18652799  1.0
  C  C60  1  0.44637540  0.67834287  0.81795364  1.0
  C  C61  1  0.55363419  0.32165172  0.18204796  1.0
  C  C62  1  0.94636446  0.82165450  0.68204480  1.0
  C  C63  1  0.05364513  0.17834906  0.31795795  1.0
  C  C64  1  0.44526018  0.84682998  0.80800974  1.0
  C  C65  1  0.55475544  0.15316676  0.19199421  1.0
  C  C66  1  0.94525458  0.65316718  0.69199067  1.0
  C  C67  1  0.05474597  0.34683428  0.30801011  1.0
  C  C68  1  0.04581962  0.40789679  0.34172220  1.0
  C  C69  1  0.95418847  0.59210887  0.65827502  1.0
  C  C70  1  0.54582368  0.09210639  0.15827666  1.0
  C  C71  1  0.45417687  0.90789089  0.84172414  1.0
  C  C72  1  0.01101253  0.52061242  0.34614745  1.0
  C  C73  1  0.98898501  0.47938979  0.65384821  1.0
  C  C74  1  0.51104167  0.97938745  0.15384785  1.0
  C  C75  1  0.48895587  0.02061184  0.84615413  1.0
  C  C76  1  0.02675260  0.46314935  0.31687762  1.0
  C  C77  1  0.97324795  0.53685446  0.68311962  1.0
  C  C78  1  0.52677007  0.03685042  0.18311943  1.0
  C  C79  1  0.47322596  0.96314798  0.81688295  1.0
  C  C80  1  0.04624051  0.40990300  0.39609159  1.0
  C  C81  1  0.95377511  0.59009978  0.60390485  1.0
  C  C82  1  0.54622835  0.09009706  0.10390451  1.0
  C  C83  1  0.45376467  0.90990032  0.89609707  1.0
  C  C84  1  0.02336552  0.46729029  0.42785655  1.0
  C  C85  1  0.97664860  0.53271195  0.57214305  1.0
  C  C86  1  0.52336432  0.03270942  0.07214367  1.0
  C  C87  1  0.47662870  0.96728903  0.92785910  1.0
  C  C88  1  0.00733263  0.52329076  0.40233587  1.0
  C  C89  1  0.99266792  0.47671185  0.59766295  1.0
  C  C90  1  0.50734874  0.97671064  0.09766419  1.0
  C  C91  1  0.49263976  0.02328911  0.90233779  1.0
  C  C92  1  0.01271045  0.47068903  0.48491050  1.0
  C  C93  1  0.98730065  0.52931162  0.51508753  1.0
  C  C94  1  0.51268575  0.02931216  0.01509020  1.0
  C  C95  1  0.48729672  0.97068917  0.98491335  1.0
  C  C96  1  0.97479909  0.58397371  0.48801820  1.0
  C  C97  1  0.02520598  0.41602765  0.51198180  1.0
  C  C98  1  0.47484097  0.91602550  0.01198351  1.0
  C  C99  1  0.52515356  0.08397456  0.98801728  1.0
  C  C100  1  0.98475800  0.58115488  0.43420354  1.0
  C  C101  1  0.01524255  0.41884931  0.56579685  1.0
  C  C102  1  0.48480258  0.91884671  0.06579888  1.0
  C  C103  1  0.51518893  0.08115186  0.93420112  1.0
  C  C104  1  0.80811576  0.90498234  0.56380620  1.0
  C  C105  1  0.19188931  0.09502017  0.43619931  1.0
  C  C106  1  0.30809439  0.59501652  0.93619326  1.0
  C  C107  1  0.69190164  0.40498020  0.06380675  1.0
  C  C108  1  0.80126253  0.86729160  0.60480428  1.0
  C  C109  1  0.19874555  0.13271110  0.39520281  1.0
  C  C110  1  0.30124896  0.63270465  0.89519642  1.0
  C  C111  1  0.69874858  0.36729146  0.10480241  1.0
  C  C112  1  0.95840452  0.86711925  0.64172122  1.0
  C  C113  1  0.04160206  0.13288357  0.35828311  1.0
  C  C114  1  0.45838671  0.63287631  0.85827792  1.0
  C  C115  1  0.54160028  0.36712058  0.14171972  1.0
  C  C116  1  0.12546935  0.90768718  0.63870510  1.0
  C  C117  1  0.87454024  0.09231804  0.36129607  1.0
  C  C118  1  0.62545980  0.59230854  0.86129060  1.0
  C  C119  1  0.37453623  0.40768933  0.13870744  1.0
  C  C120  1  0.12901882  0.94580354  0.59758205  1.0
  C  C121  1  0.87098776  0.05420239  0.40242109  1.0
  C  C122  1  0.62900297  0.55419125  0.90241757  1.0
  C  C123  1  0.37099005  0.44580630  0.09758165  1.0
  C  C124  1  0.97486939  0.94478117  0.55942714  1.0
  C  C125  1  0.02513267  0.05522048  0.44057522  1.0
  C  C126  1  0.47485557  0.55521782  0.94057384  1.0
  C  C127  1  0.52513896  0.44477961  0.05942814  1.0
  C  C128  1  0.99031274  0.98330151  0.51782412  1.0
  C  C129  1  0.00968179  0.01670254  0.48217508  1.0
  C  C130  1  0.49030312  0.51670240  0.98217200  1.0
  C  C131  1  0.50968990  0.48329525  0.01782801  1.0
  C  C132  1  0.99543528  0.57881012  0.31840004  1.0
  C  C133  1  0.00455925  0.42119322  0.68159720  1.0
  C  C134  1  0.49543935  0.92119243  0.18159914  1.0
  C  C135  1  0.50455969  0.07880661  0.81840086  1.0
  C  C136  1  0.29423991  0.91331829  0.67833037  1.0
  C  C137  1  0.70576365  0.08668585  0.32166962  1.0
  C  C138  1  0.79423848  0.58667078  0.82166093  1.0
  C  C139  1  0.20575605  0.41332159  0.17833396  1.0
  O  O140  1  0.61371699  0.82408402  0.79213723  1.0
  O  O141  1  0.38626398  0.17591595  0.20786278  1.0
  O  O142  1  0.11375135  0.67591335  0.70787157  1.0
  O  O143  1  0.88626879  0.32409006  0.29213000  1.0
  O  O144  1  0.27176884  0.69651323  0.80495812  1.0
  O  O145  1  0.72822569  0.30348825  0.19504661  1.0
  O  O146  1  0.77178705  0.80350182  0.69505498  1.0
  O  O147  1  0.22824966  0.19649895  0.30494778  1.0
  O  O148  1  0.27348445  0.82262646  0.79725915  1.0
  O  O149  1  0.72650857  0.17736850  0.20274915  1.0
  O  O150  1  0.77353037  0.67738043  0.70273305  1.0
  O  O151  1  0.22648826  0.32262059  0.29726419  1.0
  O  O152  1  0.11283212  0.80258325  0.69928285  1.0
  O  O153  1  0.88719254  0.19742182  0.30072464  1.0
  O  O154  1  0.61280431  0.69740303  0.80071139  1.0
  O  O155  1  0.38717365  0.30259332  0.19928941  1.0
  O  O156  1  0.43975696  0.74258949  0.71757907  1.0
  O  O157  1  0.56024510  0.25740901  0.28242409  1.0
  O  O158  1  0.93974976  0.75740928  0.78242296  1.0
  O  O159  1  0.06024778  0.24258871  0.21757981  1.0
