# generated using pymatgen
data_Zn2H12C36N7(O6F)3
_symmetry_space_group_name_H-M   'P 1'
_cell_length_a   11.66133556
_cell_length_b   12.88876314
_cell_length_c   13.13270038
_cell_angle_alpha   86.68791195
_cell_angle_beta   81.40904052
_cell_angle_gamma   67.11443142
_symmetry_Int_Tables_number   1
_chemical_formula_structural   Zn2H12C36N7(O6F)3
_chemical_formula_sum   'Zn2 H12 C36 N7 O18 F3'
_cell_volume   1798.06936645
_cell_formula_units_Z   1
loop_
 _symmetry_equiv_pos_site_id
 _symmetry_equiv_pos_as_xyz
  1  'x, y, z'
loop_
 _atom_site_type_symbol
 _atom_site_label
 _atom_site_symmetry_multiplicity
 _atom_site_fract_x
 _atom_site_fract_y
 _atom_site_fract_z
 _atom_site_occupancy
  Zn  Zn0  1  0.10141548  0.52927069  0.49266325  1.0
  Zn  Zn1  1  0.89414015  0.46406805  0.51136940  1.0
  H  H2  1  0.27828206  0.93899767  0.31019318  1.0
  H  H3  1  0.78442072  0.08352025  0.56884107  1.0
  H  H4  1  0.68553017  0.71705822  0.39620468  1.0
  H  H5  1  0.84101869  0.53463718  0.18583922  1.0
  H  H6  1  0.24096355  0.42913968  0.17040009  1.0
  H  H7  1  0.74522951  0.55769476  0.02649038  1.0
  H  H8  1  0.26782368  0.41590521  0.98106023  1.0
  H  H9  1  0.76843815  0.54508621  0.83513117  1.0
  H  H10  1  0.34317506  0.46867657  0.36338572  1.0
  H  H11  1  0.18928034  0.63617707  0.64179824  1.0
  H  H12  1  0.40085184  0.61511189  0.68352784  1.0
  H  H13  1  0.79849954  0.37456253  0.35085315  1.0
  C  C14  1  0.97705247  0.49395519  0.69971610  1.0
  C  C15  1  0.85503599  0.71050756  0.50406647  1.0
  C  C16  1  0.02608434  0.49314131  0.30311411  1.0
  C  C17  1  0.13570225  0.28392594  0.48632072  1.0
  C  C18  1  0.30061901  0.99354509  0.35717546  1.0
  C  C19  1  0.23282645  0.16946487  0.45364997  1.0
  C  C20  1  0.81094236  0.90972376  0.55018914  1.0
  C  C21  1  0.74544617  0.02575989  0.54571392  1.0
  C  C22  1  0.63158909  0.06636488  0.50770433  1.0
  C  C23  1  0.57782493  0.99429944  0.47475646  1.0
  C  C24  1  0.65760929  0.87716899  0.46526744  1.0
  C  C25  1  0.45162006  0.02940591  0.44883334  1.0
  C  C26  1  0.42032298  0.95759395  0.38894686  1.0
  C  C27  1  0.51286440  0.84656991  0.36832552  1.0
  C  C28  1  0.62261712  0.80472279  0.40874374  1.0
  C  C29  1  0.35094921  0.12909699  0.48604903  1.0
  C  C30  1  0.21250842  0.09891974  0.38629592  1.0
  C  C31  1  0.77269811  0.83430280  0.50782270  1.0
  C  C32  1  0.03851465  0.48431127  0.18893542  1.0
  C  C33  1  0.96958176  0.49312984  0.81468024  1.0
  C  C34  1  0.83784238  0.53165307  0.98048650  1.0
  C  C35  1  0.84996406  0.52497209  0.87500272  1.0
  C  C36  1  0.07428974  0.46789556  0.86391117  1.0
  C  C37  1  0.06754011  0.47145955  0.97248543  1.0
  C  C38  1  0.94470329  0.50487008  0.03167119  1.0
  C  C39  1  0.93371459  0.50973734  0.14021767  1.0
  C  C40  1  0.15960746  0.44999710  0.13021917  1.0
  C  C41  1  0.17410615  0.44254043  0.02476061  1.0
  C  C42  1  0.59653729  0.43380314  0.37548278  1.0
  C  C43  1  0.71187946  0.41707928  0.40228535  1.0
  C  C44  1  0.62149695  0.50673120  0.55772735  1.0
  C  C45  1  0.49749083  0.52898811  0.53897308  1.0
  C  C46  1  0.48407987  0.48961379  0.44386805  1.0
  C  C47  1  0.36111637  0.50211293  0.43071005  1.0
  C  C48  1  0.27534782  0.59608217  0.58897983  1.0
  C  C49  1  0.39117728  0.58481495  0.61095893  1.0
  N  N50  1  0.26308950  0.55198668  0.50143011  1.0
  N  N51  1  0.72342013  0.45480187  0.49382061  1.0
  N  N52  1  0.09278187  0.13757526  0.34214406  1.0
  N  N53  1  0.20000219  0.43126264  0.80222861  1.0
  N  N54  1  0.59628419  0.39238131  0.27320924  1.0
  N  N55  1  0.92633562  0.86987989  0.59999818  1.0
  N  N56  1  0.58213421  0.18878461  0.48871325  1.0
  O  O57  1  0.04871949  0.53757386  0.64909469  1.0
  O  O58  1  0.90783056  0.45392145  0.66326124  1.0
  O  O59  1  0.97067241  0.68719376  0.47300139  1.0
  O  O60  1  0.80195537  0.64254278  0.53163164  1.0
  O  O61  1  0.11975468  0.49620865  0.33983448  1.0
  O  O62  1  0.92294779  0.49763336  0.35630546  1.0
  O  O63  1  0.17830602  0.35542733  0.50690645  1.0
  O  O64  1  0.02087126  0.29976211  0.48690061  1.0
  O  O65  1  0.02370216  0.08567129  0.36798903  1.0
  O  O66  1  0.07451460  0.21610585  0.27983814  1.0
  O  O67  1  0.23634920  0.34357131  0.75179188  1.0
  O  O68  1  0.26205906  0.48979855  0.80754795  1.0
  O  O69  1  0.69437243  0.31791120  0.23353004  1.0
  O  O70  1  0.49857893  0.43680500  0.23307728  1.0
  O  O71  1  0.93545777  0.79782706  0.66817804  1.0
  O  O72  1  0.00274953  0.91408014  0.57173795  1.0
  O  O73  1  0.53291410  0.22260296  0.40927333  1.0
  O  O74  1  0.59984325  0.24934903  0.54950266  1.0
  F  F75  1  0.48413833  0.77860264  0.30981946  1.0
  F  F76  1  0.63640438  0.54077105  0.64703127  1.0
  F  F77  1  0.36944696  0.18432651  0.56214633  1.0
