# generated using pymatgen
data_ZnH20C22S2N12(OF)6
_symmetry_space_group_name_H-M   'P 1'
_cell_length_a   12.39084943
_cell_length_b   15.78618128
_cell_length_c   15.78611629
_cell_angle_alpha   60.00005342
_cell_angle_beta   90.00003151
_cell_angle_gamma   89.99986424
_symmetry_Int_Tables_number   1
_chemical_formula_structural   ZnH20C22S2N12(OF)6
_chemical_formula_sum   'Zn3 H60 C66 S6 N36 O18 F18'
_cell_volume   2674.14115889
_cell_formula_units_Z   3
loop_
 _symmetry_equiv_pos_site_id
 _symmetry_equiv_pos_as_xyz
  1  'x, y, z'
loop_
 _atom_site_type_symbol
 _atom_site_label
 _atom_site_symmetry_multiplicity
 _atom_site_fract_x
 _atom_site_fract_y
 _atom_site_fract_z
 _atom_site_occupancy
  Zn  Zn0  1  0.83333438  0.42163756  0.99999917  1.0
  Zn  Zn1  1  0.49999947  0.00000039  0.57836296  1.0
  Zn  Zn2  1  0.16666627  0.57836226  0.42163722  1.0
  H  H3  1  0.83246966  0.62623427  0.81557536  1.0
  H  H4  1  0.02436285  0.51464070  0.06482673  1.0
  H  H5  1  0.22833558  0.75432668  0.05579937  1.0
  H  H6  1  0.15423744  0.82902494  0.94551024  1.0
  H  H7  1  0.23534422  0.73117420  0.95655683  1.0
  H  H8  1  0.20071215  0.66839442  0.20071589  1.0
  H  H9  1  0.93326102  0.56635501  0.38360739  1.0
  H  H10  1  0.69937938  0.66024884  0.27531532  1.0
  H  H11  1  0.76886712  0.56537947  0.37810822  1.0
  H  H12  1  0.65483058  0.53674952  0.32836880  1.0
  H  H13  1  0.49913217  0.81557832  0.55818801  1.0
  H  H14  1  0.69102900  0.06482682  0.42053258  1.0
  H  H15  1  0.89500204  0.05579756  0.18987605  1.0
  H  H16  1  0.82090560  0.94550850  0.22546611  1.0
  H  H17  1  0.90201143  0.95655632  0.31226954  1.0
  H  H18  1  0.86738141  0.20071348  0.13089376  1.0
  H  H19  1  0.59992810  0.38360505  0.05003749  1.0
  H  H20  1  0.36604600  0.27531458  0.06443452  1.0
  H  H21  1  0.43553502  0.37810687  0.05651197  1.0
  H  H22  1  0.32149774  0.32836901  0.13488045  1.0
  H  H23  1  0.16579950  0.55818962  0.62623359  1.0
  H  H24  1  0.35769057  0.42053067  0.51463832  1.0
  H  H25  1  0.56166976  0.18987749  0.75432564  1.0
  H  H26  1  0.48757059  0.22546735  0.82902448  1.0
  H  H27  1  0.56867866  0.31227140  0.73117394  1.0
  H  H28  1  0.53404621  0.13089177  0.66839432  1.0
  H  H29  1  0.26659409  0.05003859  0.56635521  1.0
  H  H30  1  0.03271263  0.06443620  0.66025024  1.0
  H  H31  1  0.10220180  0.05651152  0.56538272  1.0
  H  H32  1  0.98816353  0.13488138  0.53674961  1.0
  H  H33  1  0.16752932  0.37376497  0.44180940  1.0
  H  H34  1  0.97563753  0.48535978  0.57946804  1.0
  H  H35  1  0.77166649  0.24567288  0.81012606  1.0
  H  H36  1  0.84576412  0.17097537  0.77453496  1.0
  H  H37  1  0.76465651  0.26882472  0.68773262  1.0
  H  H38  1  0.79928676  0.33160789  0.86910822  1.0
  H  H39  1  0.06674122  0.43364415  0.94996144  1.0
  H  H40  1  0.30061959  0.33974897  0.93556409  1.0
  H  H41  1  0.23113349  0.43461824  0.94348816  1.0
  H  H42  1  0.34517080  0.46324758  0.86512101  1.0
  H  H43  1  0.50086347  0.18442265  0.37376878  1.0
  H  H44  1  0.30897066  0.93517124  0.48535973  1.0
  H  H45  1  0.10499666  0.94420308  0.24567319  1.0
  H  H46  1  0.17909469  0.05449219  0.17097469  1.0
  H  H47  1  0.09798650  0.04344494  0.26882500  1.0
  H  H48  1  0.13261810  0.79928642  0.33160865  1.0
  H  H49  1  0.40007142  0.61639483  0.43364430  1.0
  H  H50  1  0.63395188  0.72468682  0.33974944  1.0
  H  H51  1  0.56446531  0.62189373  0.43461904  1.0
  H  H52  1  0.67850101  0.67163298  0.46324895  1.0
  H  H53  1  0.83419771  0.44180780  0.18442409  1.0
  H  H54  1  0.64231089  0.57947132  0.93516731  1.0
  H  H55  1  0.43833260  0.81012502  0.94420272  1.0
  H  H56  1  0.51243230  0.77453586  0.05449116  1.0
  H  H57  1  0.43132418  0.68773190  0.04344533  1.0
  H  H58  1  0.46595608  0.86911021  0.79928525  1.0
  H  H59  1  0.73340487  0.94995998  0.61639151  1.0
  H  H60  1  0.96728639  0.93556292  0.72468780  1.0
  H  H61  1  0.89779958  0.94348850  0.62189447  1.0
  H  H62  1  0.01183705  0.86511937  0.67163184  1.0
  C  C63  1  0.91972906  0.73356011  0.83704993  1.0
  C  C64  1  0.88874021  0.63912325  0.86085037  1.0
  C  C65  1  0.99401723  0.57758800  0.99875270  1.0
  C  C66  1  0.02467434  0.67303567  0.97290098  1.0
  C  C67  1  0.18233169  0.75443254  0.99666931  1.0
  C  C68  1  0.05201532  0.65503014  0.13098846  1.0
  C  C69  1  0.11496100  0.65149484  0.20743060  1.0
  C  C70  1  0.96557351  0.59231243  0.31083626  1.0
  C  C71  1  0.90392960  0.59615129  0.23387429  1.0
  C  C72  1  0.72598785  0.58373783  0.31046689  1.0
  C  C73  1  0.04846978  0.27593511  0.29062068  1.0
  C  C74  1  0.58639407  0.83705110  0.42938839  1.0
  C  C75  1  0.55540506  0.86085287  0.50002520  1.0
  C  C76  1  0.66068171  0.99875242  0.42365935  1.0
  C  C77  1  0.69134064  0.97290037  0.35406352  1.0
  C  C78  1  0.84899965  0.99666763  0.24889984  1.0
  C  C79  1  0.71868230  0.13098771  0.21398194  1.0
  C  C80  1  0.78162942  0.20742840  0.14107729  1.0
  C  C81  1  0.63224078  0.31083399  0.09685249  1.0
  C  C82  1  0.57059704  0.23387396  0.16997500  1.0
  C  C83  1  0.39265511  0.31046639  0.10579393  1.0
  C  C84  1  0.71513436  0.29061891  0.43344188  1.0
  C  C85  1  0.25306171  0.42938989  0.73355861  1.0
  C  C86  1  0.22207096  0.50002585  0.63912091  1.0
  C  C87  1  0.32734470  0.42365819  0.57758554  1.0
  C  C88  1  0.35800618  0.35406456  0.67303380  1.0
  C  C89  1  0.51566384  0.24889976  0.75443276  1.0
  C  C90  1  0.38534925  0.21398316  0.65502900  1.0
  C  C91  1  0.44829500  0.14107678  0.65149395  1.0
  C  C92  1  0.29890577  0.09685210  0.59231270  1.0
  C  C93  1  0.23726340  0.16997572  0.59615152  1.0
  C  C94  1  0.05932170  0.10579383  0.58374007  1.0
  C  C95  1  0.38179697  0.43344042  0.27593949  1.0
  C  C96  1  0.08027159  0.26643973  0.57061088  1.0
  C  C97  1  0.11125961  0.36087663  0.49997433  1.0
  C  C98  1  0.00598347  0.42241170  0.57634138  1.0
  C  C99  1  0.97532558  0.32696400  0.64593725  1.0
  C  C100  1  0.81766988  0.24556848  0.75110180  1.0
  C  C101  1  0.94798435  0.34497156  0.78601686  1.0
  C  C102  1  0.88503872  0.34850748  0.85892273  1.0
  C  C103  1  0.03442707  0.40768758  0.90314732  1.0
  C  C104  1  0.09607012  0.40384883  0.83002482  1.0
  C  C105  1  0.27401273  0.41626071  0.89420481  1.0
  C  C106  1  0.95153471  0.72406372  0.56655692  1.0
  C  C107  1  0.41360472  0.16294933  0.26644030  1.0
  C  C108  1  0.44459136  0.13914816  0.36087799  1.0
  C  C109  1  0.33931632  0.00124715  0.42241318  1.0
  C  C110  1  0.30865814  0.02710081  0.32696445  1.0
  C  C111  1  0.15099987  0.00333223  0.24556802  1.0
  C  C112  1  0.28131563  0.86901284  0.34497135  1.0
  C  C113  1  0.21837010  0.79257074  0.34850879  1.0
  C  C114  1  0.36775875  0.68916586  0.40768815  1.0
  C  C115  1  0.42940170  0.76612805  0.40384822  1.0
  C  C116  1  0.60734442  0.68953492  0.41626010  1.0
  C  C117  1  0.28486620  0.70938040  0.72406077  1.0
  C  C118  1  0.74693876  0.57060891  0.16294976  1.0
  C  C119  1  0.77792786  0.49997305  0.13914807  1.0
  C  C120  1  0.67265565  0.57634235  0.00124345  1.0
  C  C121  1  0.64199422  0.64593660  0.02709767  1.0
  C  C122  1  0.48433820  0.75110136  0.00333165  1.0
  C  C123  1  0.61465144  0.78601732  0.86901097  1.0
  C  C124  1  0.55170566  0.85892449  0.79257029  1.0
  C  C125  1  0.70109322  0.90314785  0.68916313  1.0
  C  C126  1  0.76273723  0.83002562  0.76612563  1.0
  C  C127  1  0.94067890  0.89420612  0.68953425  1.0
  C  C128  1  0.61819949  0.56655831  0.70937797  1.0
  S  S129  1  0.04529961  0.30864109  0.15945539  1.0
  S  S130  1  0.71196451  0.15945450  0.53190559  1.0
  S  S131  1  0.37862837  0.53190398  0.30863850  1.0
  S  S132  1  0.95470400  0.69135939  0.46809556  1.0
  S  S133  1  0.28803608  0.84054477  0.69135993  1.0
  S  S134  1  0.62136977  0.46809754  0.84054244  1.0
  N  N135  1  0.98932154  0.75109823  0.89123430  1.0
  N  N136  1  0.92581449  0.56142576  0.94255962  1.0
  N  N137  1  0.09131360  0.68711137  0.03762229  1.0
  N  N138  1  0.94837280  0.62708484  0.14601921  1.0
  N  N139  1  0.06960341  0.61868656  0.29557564  1.0
  N  N140  1  0.79618078  0.56912756  0.24460079  1.0
  N  N141  1  0.65598806  0.89123413  0.35766650  1.0
  N  N142  1  0.59247826  0.94256153  0.49601333  1.0
  N  N143  1  0.75798001  0.03762158  0.27526651  1.0
  N  N144  1  0.61504048  0.14601866  0.22689641  1.0
  N  N145  1  0.73627079  0.29557336  0.08573915  1.0
  N  N146  1  0.46284655  0.24459879  0.18627146  1.0
  N  N147  1  0.32265592  0.35766845  0.75109633  1.0
  N  N148  1  0.25914184  0.49601380  0.56142400  1.0
  N  N149  1  0.42464672  0.27526790  0.68711007  1.0
  N  N150  1  0.28170580  0.22689655  0.62708504  1.0
  N  N151  1  0.40293660  0.08573810  0.61868802  1.0
  N  N152  1  0.12951289  0.18627067  0.56912983  1.0
  N  N153  1  0.01067916  0.24890150  0.64233404  1.0
  N  N154  1  0.07418536  0.43857478  0.50398501  1.0
  N  N155  1  0.90868683  0.31288901  0.72473387  1.0
  N  N156  1  0.05162687  0.37291688  0.77310188  1.0
  N  N157  1  0.93039797  0.38131418  0.91426152  1.0
  N  N158  1  0.20382056  0.43087184  0.81372796  1.0
  N  N159  1  0.34400908  0.10876565  0.24890307  1.0
  N  N160  1  0.40751738  0.05744016  0.43857580  1.0
  N  N161  1  0.24201874  0.96237895  0.31288903  1.0
  N  N162  1  0.38495827  0.85398112  0.37291722  1.0
  N  N163  1  0.26372710  0.70442726  0.38131373  1.0
  N  N164  1  0.53715140  0.75540171  0.43086906  1.0
  N  N165  1  0.67734454  0.64233038  0.10876591  1.0
  N  N166  1  0.74085611  0.50398597  0.05743802  1.0
  N  N167  1  0.57535482  0.72473320  0.96237780  1.0
  N  N168  1  0.71829326  0.77310249  0.85398055  1.0
  N  N169  1  0.59706402  0.91426254  0.70442405  1.0
  N  N170  1  0.87048693  0.81372923  0.75539968  1.0
  O  O171  1  0.13803890  0.37242450  0.11622332  1.0
  O  O172  1  0.94067397  0.36094382  0.12811355  1.0
  O  O173  1  0.04670966  0.21549378  0.16203665  1.0
  O  O174  1  0.80470478  0.11621473  0.51135682  1.0
  O  O175  1  0.60733734  0.12811663  0.51094170  1.0
  O  O176  1  0.71337687  0.16203941  0.62246853  1.0
  O  O177  1  0.47137025  0.51134824  0.37242925  1.0
  O  O178  1  0.27400201  0.51094330  0.36094166  1.0
  O  O179  1  0.38004376  0.62246639  0.21549493  1.0
  O  O180  1  0.86196227  0.62757307  0.48864966  1.0
  O  O181  1  0.05932882  0.63905521  0.48905748  1.0
  O  O182  1  0.95329230  0.78450605  0.37753098  1.0
  O  O183  1  0.19529578  0.88378460  0.62757000  1.0
  O  O184  1  0.39266403  0.87188416  0.63905805  1.0
  O  O185  1  0.28662217  0.83796043  0.78450687  1.0
  O  O186  1  0.52862954  0.48865099  0.88377726  1.0
  O  O187  1  0.72599696  0.48905961  0.87188297  1.0
  O  O188  1  0.61995676  0.37753228  0.83796155  1.0
  F  F189  1  0.96493813  0.21654347  0.34064916  1.0
  F  F190  1  0.14196790  0.22886463  0.33345204  1.0
  F  F191  1  0.04208188  0.35760287  0.29891029  1.0
  F  F192  1  0.63160167  0.34064664  0.44280881  1.0
  F  F193  1  0.80863071  0.33345393  0.43767412  1.0
  F  F194  1  0.70873846  0.29890572  0.34348572  1.0
  F  F195  1  0.29826836  0.44280769  0.21654193  1.0
  F  F196  1  0.47529578  0.43766817  0.22887791  1.0
  F  F197  1  0.37540048  0.34348587  0.35760982  1.0
  F  F198  1  0.03506637  0.78345607  0.55719356  1.0
  F  F199  1  0.85803903  0.77113198  0.56232261  1.0
  F  F200  1  0.95792667  0.64239368  0.65651300  1.0
  F  F201  1  0.36839891  0.65935189  0.78345592  1.0
  F  F202  1  0.19136906  0.66654681  0.77112796  1.0
  F  F203  1  0.29126204  0.70109300  0.64239173  1.0
  F  F204  1  0.70172968  0.55719552  0.65934739  1.0
  F  F205  1  0.52470146  0.56232478  0.66654636  1.0
  F  F206  1  0.62459117  0.65651353  0.70109331  1.0
