# generated using pymatgen
data_AlH11(C2O)8
_symmetry_space_group_name_H-M   'P 1'
_cell_length_a   6.69448895
_cell_length_b   20.42594219
_cell_length_c   24.22173878
_cell_angle_alpha   102.58390733
_cell_angle_beta   89.99847629
_cell_angle_gamma   89.99979725
_symmetry_Int_Tables_number   1
_chemical_formula_structural   AlH11(C2O)8
_chemical_formula_sum   'Al4 H44 C64 O32'
_cell_volume   3232.54715298
_cell_formula_units_Z   4
loop_
 _symmetry_equiv_pos_site_id
 _symmetry_equiv_pos_as_xyz
  1  'x, y, z'
loop_
 _atom_site_type_symbol
 _atom_site_label
 _atom_site_symmetry_multiplicity
 _atom_site_fract_x
 _atom_site_fract_y
 _atom_site_fract_z
 _atom_site_occupancy
  Al  Al0  1  0.29217654  0.25382390  0.25079892  1.0
  Al  Al1  1  0.70505369  0.74677102  0.75022656  1.0
  Al  Al2  1  0.79216443  0.24617072  0.24919459  1.0
  Al  Al3  1  0.20504652  0.75322419  0.74977220  1.0
  H  H4  1  0.28442097  0.51663728  0.89389981  1.0
  H  H5  1  0.73481371  0.47304239  0.08825149  1.0
  H  H6  1  0.78444714  0.98336928  0.60611706  1.0
  H  H7  1  0.23488071  0.02696595  0.41177012  1.0
  H  H8  1  0.71508620  0.67566873  0.90818068  1.0
  H  H9  1  0.30287445  0.32099408  0.10134546  1.0
  H  H10  1  0.21505735  0.82433791  0.59180561  1.0
  H  H11  1  0.80284081  0.17901258  0.39863180  1.0
  H  H12  1  0.57384974  0.64022890  0.81978952  1.0
  H  H13  1  0.42928675  0.43253792  0.18992498  1.0
  H  H14  1  0.07386002  0.85976090  0.68020641  1.0
  H  H15  1  0.92933057  0.06735938  0.31008430  1.0
  H  H16  1  0.52340550  0.65087311  0.04076530  1.0
  H  H17  1  0.67056218  0.70022811  0.00386553  1.0
  H  H18  1  0.83273341  0.61899043  0.08695529  1.0
  H  H19  1  0.97969890  0.66770535  0.05059173  1.0
  H  H20  1  0.79898710  0.77294221  0.10083656  1.0
  H  H21  1  0.91036611  0.73108324  0.14998802  1.0
  H  H22  1  0.64958677  0.72418374  0.13729180  1.0
  H  H23  1  0.40982852  0.36847933  0.93563221  1.0
  H  H24  1  0.14802944  0.36447785  0.94720434  1.0
  H  H25  1  0.45837532  0.26047032  0.96595035  1.0
  H  H26  1  0.20073626  0.25669230  0.98085774  1.0
  H  H27  1  0.11724919  0.24775105  0.87793831  1.0
  H  H28  1  0.28373449  0.18283809  0.88593546  1.0
  H  H29  1  0.37484785  0.25333149  0.86202543  1.0
  H  H30  1  0.02344005  0.84915407  0.45924664  1.0
  H  H31  1  0.17060607  0.79979783  0.49614939  1.0
  H  H32  1  0.33277774  0.88102410  0.41304754  1.0
  H  H33  1  0.47973013  0.83230892  0.44941200  1.0
  H  H34  1  0.29899387  0.72707259  0.39917750  1.0
  H  H35  1  0.41034882  0.76892178  0.35001903  1.0
  H  H36  1  0.14957677  0.77583099  0.36272642  1.0
  H  H37  1  0.90984098  0.13153197  0.56436018  1.0
  H  H38  1  0.64803175  0.13553974  0.55278443  1.0
  H  H39  1  0.95839643  0.23954502  0.53404467  1.0
  H  H40  1  0.70076091  0.24332659  0.51914073  1.0
  H  H41  1  0.61726884  0.25225987  0.62205899  1.0
  H  H42  1  0.78374249  0.31717628  0.61406517  1.0
  H  H43  1  0.87487904  0.24667952  0.63796934  1.0
  H  H44  1  0.56055759  0.33869378  0.26103373  1.0
  H  H45  1  0.43808605  0.66112330  0.73195955  1.0
  H  H46  1  0.06056056  0.16130331  0.23901054  1.0
  H  H47  1  0.93807960  0.83887071  0.76803644  1.0
  C  C48  1  0.53557016  0.16121223  0.16595930  1.0
  C  C49  1  0.45975109  0.83972217  0.83280452  1.0
  C  C50  1  0.03551878  0.33877524  0.33403363  1.0
  C  C51  1  0.95977561  0.66026945  0.66719713  1.0
  C  C52  1  0.53542055  0.17961442  0.31775478  1.0
  C  C53  1  0.46239549  0.81879802  0.67937713  1.0
  C  C54  1  0.03540698  0.32037521  0.18223904  1.0
  C  C55  1  0.96245200  0.68119906  0.82061409  1.0
  C  C56  1  0.15787600  0.55059726  0.89579197  1.0
  C  C57  1  0.85877725  0.43952790  0.09141506  1.0
  C  C58  1  0.65790782  0.94940661  0.60421030  1.0
  C  C59  1  0.35883004  0.06047156  0.40859651  1.0
  C  C60  1  0.14679390  0.59413688  0.85905121  1.0
  C  C61  1  0.86515612  0.40608518  0.13581865  1.0
  C  C62  1  0.64679853  0.90586376  0.64094814  1.0
  C  C63  1  0.36516312  0.09391071  0.36418565  1.0
  C  C64  1  0.98222165  0.63801879  0.86247229  1.0
  C  C65  1  0.02731717  0.36285593  0.13929212  1.0
  C  C66  1  0.48220765  0.86197216  0.63751906  1.0
  C  C67  1  0.52730151  0.13714002  0.36070400  1.0
  C  C68  1  0.83886036  0.64058101  0.90478645  1.0
  C  C69  1  0.17889593  0.35469136  0.09888686  1.0
  C  C70  1  0.33888089  0.85942282  0.59520551  1.0
  C  C71  1  0.67888405  0.14531502  0.40110109  1.0
  C  C72  1  0.84985280  0.59732905  0.94187707  1.0
  C  C73  1  0.17494736  0.38885167  0.05494777  1.0
  C  C74  1  0.34989311  0.90268105  0.55812460  1.0
  C  C75  1  0.67498287  0.11116499  0.44505094  1.0
  C  C76  1  0.00877288  0.55043709  0.93699948  1.0
  C  C77  1  0.01357933  0.43270623  0.05096418  1.0
  C  C78  1  0.50881044  0.94957282  0.56300162  1.0
  C  C79  1  0.51363621  0.06731172  0.44904514  1.0
  C  C80  1  0.01590991  0.50680596  0.97473659  1.0
  C  C81  1  0.01272400  0.47146947  0.00938322  1.0
  C  C82  1  0.51593887  0.99321490  0.52527562  1.0
  C  C83  1  0.51277819  0.02855505  0.49063340  1.0
  C  C84  1  0.96554329  0.60969746  0.61571967  1.0
  C  C85  1  0.02603014  0.38870558  0.38614703  1.0
  C  C86  1  0.46550631  0.89028899  0.88428267  1.0
  C  C87  1  0.52604615  0.11127087  0.11384954  1.0
  C  C88  1  0.97649214  0.56697596  0.57157676  1.0
  C  C89  1  0.01473774  0.43105164  0.43049923  1.0
  C  C90  1  0.47645010  0.93301817  0.92842228  1.0
  C  C91  1  0.51473189  0.06893526  0.06949428  1.0
  C  C92  1  0.98910243  0.52022613  0.52339510  1.0
  C  C93  1  0.00164797  0.47742279  0.47892083  1.0
  C  C94  1  0.48908296  0.97977157  0.97659550  1.0
  C  C95  1  0.50162250  0.02256911  0.02107374  1.0
  C  C96  1  0.31296764  0.59685452  0.81767378  1.0
  C  C97  1  0.70871166  0.42020506  0.18073277  1.0
  C  C98  1  0.81294889  0.90314128  0.68233126  1.0
  C  C99  1  0.20871589  0.07977868  0.31928097  1.0
  C  C100  1  0.67309902  0.65648453  0.02371470  1.0
  C  C101  1  0.83171701  0.66465187  0.06982208  1.0
  C  C102  1  0.79554468  0.72662402  0.11697376  1.0
  C  C103  1  0.29511059  0.34911598  0.96036183  1.0
  C  C104  1  0.30899692  0.27330072  0.95249023  1.0
  C  C105  1  0.26897117  0.23738360  0.89125437  1.0
  C  C106  1  0.17312562  0.84353495  0.47629333  1.0
  C  C107  1  0.33174918  0.83536441  0.43018206  1.0
  C  C108  1  0.29554257  0.77338919  0.38303567  1.0
  C  C109  1  0.79513736  0.15090411  0.53962915  1.0
  C  C110  1  0.80902163  0.22671544  0.54750646  1.0
  C  C111  1  0.76898750  0.26262936  0.60874510  1.0
  O  O112  1  0.70802971  0.19001318  0.29897713  1.0
  O  O113  1  0.28609832  0.80769050  0.69642413  1.0
  O  O114  1  0.20805794  0.30996169  0.20100023  1.0
  O  O115  1  0.78611284  0.69230215  0.80357054  1.0
  O  O116  1  0.36884737  0.18450752  0.18638143  1.0
  O  O117  1  0.62775253  0.81573705  0.81369191  1.0
  O  O118  1  0.86881523  0.31547196  0.31362586  1.0
  O  O119  1  0.12777127  0.68425821  0.68630833  1.0
  O  O120  1  0.37108293  0.20298950  0.30475274  1.0
  O  O121  1  0.62327479  0.79738794  0.69636625  1.0
  O  O122  1  0.87111324  0.29701550  0.19525043  1.0
  O  O123  1  0.12328045  0.70259401  0.80362533  1.0
  O  O124  1  0.20884951  0.32340282  0.31383777  1.0
  O  O125  1  0.78869738  0.67633568  0.68896509  1.0
  O  O126  1  0.70887530  0.17659577  0.18614261  1.0
  O  O127  1  0.28868072  0.82365491  0.81103752  1.0
  O  O128  1  0.54629079  0.29017976  0.25301331  1.0
  O  O129  1  0.45138169  0.70926343  0.74687404  1.0
  O  O130  1  0.04629494  0.20981625  0.24698224  1.0
  O  O131  1  0.95137748  0.79073365  0.75311980  1.0
  O  O132  1  0.30795768  0.57320484  0.76671579  1.0
  O  O133  1  0.46924257  0.62941798  0.84564028  1.0
  O  O134  1  0.73754068  0.42762517  0.23162310  1.0
  O  O135  1  0.52487578  0.42591045  0.15850739  1.0
  O  O136  1  0.80794763  0.92678688  0.73328879  1.0
  O  O137  1  0.96922807  0.87058090  0.65436271  1.0
  O  O138  1  0.23750889  0.07238951  0.26838979  1.0
  O  O139  1  0.02491654  0.07400708  0.34150773  1.0
  O  O140  1  0.70469935  0.59561215  0.98127174  1.0
  O  O141  1  0.33377664  0.38208698  0.01883375  1.0
  O  O142  1  0.20474211  0.90441394  0.51873567  1.0
  O  O143  1  0.83381339  0.11794834  0.48115816  1.0
