# generated using pymatgen
data_Zn2H5C9O7F
_symmetry_space_group_name_H-M   'P 1'
_cell_length_a   18.70826721
_cell_length_b   18.79390954
_cell_length_c   26.45859235
_cell_angle_alpha   89.90215283
_cell_angle_beta   90.15271481
_cell_angle_gamma   89.93600249
_symmetry_Int_Tables_number   1
_chemical_formula_structural   Zn2H5C9O7F
_chemical_formula_sum   'Zn16 H40 C72 O56 F8'
_cell_volume   9302.82781012
_cell_formula_units_Z   8
loop_
 _symmetry_equiv_pos_site_id
 _symmetry_equiv_pos_as_xyz
  1  'x, y, z'
loop_
 _atom_site_type_symbol
 _atom_site_label
 _atom_site_symmetry_multiplicity
 _atom_site_fract_x
 _atom_site_fract_y
 _atom_site_fract_z
 _atom_site_occupancy
  Zn  Zn0  1  0.83442245  0.24975697  0.79364280  1.0
  Zn  Zn1  1  0.74857552  0.33619135  0.29428239  1.0
  Zn  Zn2  1  0.24810709  0.83650745  0.20635705  1.0
  Zn  Zn3  1  0.24757102  0.83649374  0.79383151  1.0
  Zn  Zn4  1  0.74640647  0.16577670  0.70729082  1.0
  Zn  Zn5  1  0.74698456  0.16613077  0.29288950  1.0
  Zn  Zn6  1  0.24620640  0.66655126  0.20796246  1.0
  Zn  Zn7  1  0.24677982  0.66600410  0.79306927  1.0
  Zn  Zn8  1  0.83431153  0.24983320  0.20636991  1.0
  Zn  Zn9  1  0.33440764  0.74979779  0.29431203  1.0
  Zn  Zn10  1  0.33482814  0.74899682  0.70738001  1.0
  Zn  Zn11  1  0.66428935  0.25048707  0.79261567  1.0
  Zn  Zn12  1  0.66429375  0.25196181  0.20695664  1.0
  Zn  Zn13  1  0.16434128  0.75153232  0.29385543  1.0
  Zn  Zn14  1  0.16442345  0.75167555  0.70667610  1.0
  Zn  Zn15  1  0.74799521  0.33628552  0.70585033  1.0
  H  H16  1  0.09957103  0.00819200  0.80301791  1.0
  H  H17  1  0.85849980  0.24871184  0.95387021  1.0
  H  H18  1  0.36087471  0.76020317  0.54639610  1.0
  H  H19  1  0.35947248  0.74176860  0.45402641  1.0
  H  H20  1  0.69488021  0.26196813  0.04143925  1.0
  H  H21  1  0.69395729  0.24157000  0.95808875  1.0
  H  H22  1  0.19785906  0.73682611  0.54198105  1.0
  H  H23  1  0.19721376  0.76985575  0.45923032  1.0
  H  H24  1  0.01670337  0.93307817  0.71752353  1.0
  H  H25  1  0.01402412  0.92950789  0.27847397  1.0
  H  H26  1  0.51674565  0.43253099  0.21973681  1.0
  H  H27  1  0.10121742  0.01113372  0.19844276  1.0
  H  H28  1  0.51439623  0.42874002  0.77887964  1.0
  H  H29  1  0.01071094  0.10351542  0.79984266  1.0
  H  H30  1  0.00817249  0.10229081  0.19827539  1.0
  H  H31  1  0.51113206  0.60498321  0.29989572  1.0
  H  H32  1  0.50302533  0.59729082  0.69485545  1.0
  H  H33  1  0.06518756  0.51974508  0.77915915  1.0
  H  H34  1  0.06299605  0.52230033  0.22001665  1.0
  H  H35  1  0.56671256  0.01897697  0.27842555  1.0
  H  H36  1  0.57042287  0.01346915  0.72557649  1.0
  H  H37  1  0.90603254  0.49943473  0.69100616  1.0
  H  H38  1  0.60162140  0.51140797  0.30247238  1.0
  H  H39  1  0.90556891  0.49884767  0.30865872  1.0
  H  H40  1  0.40581236  0.99900173  0.19188449  1.0
  H  H41  1  0.39457008  0.01020355  0.79689925  1.0
  H  H42  1  0.75710132  0.35570086  0.45386464  1.0
  H  H43  1  0.74124921  0.35546837  0.54633550  1.0
  H  H44  1  0.24920019  0.85728871  0.95409106  1.0
  H  H45  1  0.25607214  0.85673363  0.04658118  1.0
  H  H46  1  0.96779982  0.39180772  0.81150692  1.0
  H  H47  1  0.96769407  0.39243548  0.18826576  1.0
  H  H48  1  0.46829844  0.89194835  0.31238671  1.0
  H  H49  1  0.59881064  0.50888547  0.69663412  1.0
  H  H50  1  0.49175124  0.86700844  0.71282325  1.0
  H  H51  1  0.73328599  0.19349661  0.45867012  1.0
  H  H52  1  0.76925367  0.19386544  0.54197263  1.0
  H  H53  1  0.25825059  0.69355110  0.95825059  1.0
  H  H54  1  0.24228636  0.69335809  0.04219056  1.0
  H  H55  1  0.85801938  0.23902206  0.04637380  1.0
  C  C56  1  0.61143220  0.11549703  0.75043382  1.0
  C  C57  1  0.99966972  0.55249018  0.28118156  1.0
  C  C58  1  0.50018184  0.05223199  0.21946083  1.0
  C  C59  1  0.49636331  0.05557038  0.77641420  1.0
  C  C60  1  0.05731734  0.56049302  0.75053153  1.0
  C  C61  1  0.05681896  0.56094969  0.25015470  1.0
  C  C62  1  0.55872467  0.05936127  0.24954066  1.0
  C  C63  1  0.55866099  0.05817213  0.75016119  1.0
  C  C64  1  0.94624075  0.49825181  0.72079286  1.0
  C  C65  1  0.94597074  0.49807096  0.27914961  1.0
  C  C66  1  0.44647326  0.99778411  0.22134395  1.0
  C  C67  1  0.61324644  0.11498437  0.24737703  1.0
  C  C68  1  0.44362557  0.00017276  0.77609848  1.0
  C  C69  1  0.94059094  0.44446894  0.75496492  1.0
  C  C70  1  0.94030831  0.44481254  0.24466794  1.0
  C  C71  1  0.44078082  0.94441588  0.25583660  1.0
  C  C72  1  0.44807987  0.93628137  0.75234132  1.0
  C  C73  1  0.75046734  0.30435206  0.47274852  1.0
  C  C74  1  0.74937317  0.30430396  0.52759142  1.0
  C  C75  1  0.25183300  0.80546269  0.97282885  1.0
  C  C76  1  0.25214390  0.80517774  0.02772339  1.0
  C  C77  1  0.74240084  0.24648833  0.44309875  1.0
  C  C78  1  0.11183715  0.61603091  0.25259642  1.0
  C  C79  1  0.75860069  0.24660500  0.55739578  1.0
  C  C80  1  0.25472297  0.74737359  0.94294292  1.0
  C  C81  1  0.24728623  0.74697321  0.05751956  1.0
  C  C82  1  0.80645182  0.24586502  0.02745282  1.0
  C  C83  1  0.80651444  0.24675334  0.97259076  1.0
  C  C84  1  0.30908241  0.75320343  0.52783743  1.0
  C  C85  1  0.30836090  0.75042022  0.47299041  1.0
  C  C86  1  0.74825364  0.25357448  0.05704104  1.0
  C  C87  1  0.74790026  0.24480205  0.94274697  1.0
  C  C88  1  0.25098548  0.74638773  0.55761597  1.0
  C  C89  1  0.11152347  0.61644898  0.74898951  1.0
  C  C90  1  0.24989676  0.75881548  0.44350824  1.0
  C  C91  1  0.88337768  0.38880608  0.75116507  1.0
  C  C92  1  0.88294260  0.38932604  0.24816264  1.0
  C  C93  1  0.38312483  0.88914781  0.25248094  1.0
  C  C94  1  0.38801244  0.88352402  0.75347006  1.0
  C  C95  1  0.75141664  0.24730052  0.88703215  1.0
  C  C96  1  0.75155320  0.25139393  0.11279222  1.0
  C  C97  1  0.25212722  0.75431268  0.38778853  1.0
  C  C98  1  0.25362802  0.75020274  0.61334514  1.0
  C  C99  1  0.75462795  0.24994884  0.61310438  1.0
  C  C100  1  0.93943910  0.05791424  0.75035415  1.0
  C  C101  1  0.74517836  0.24995788  0.38734221  1.0
  C  C102  1  0.24847349  0.75065349  0.11328639  1.0
  C  C103  1  0.25223344  0.75119088  0.88719491  1.0
  C  C104  1  0.61461209  0.38865668  0.74956570  1.0
  C  C105  1  0.61565706  0.39037521  0.25032868  1.0
  C  C106  1  0.11393650  0.88866804  0.24904531  1.0
  C  C107  1  0.11491389  0.88986110  0.74879532  1.0
  C  C108  1  0.88506152  0.11603859  0.75176456  1.0
  C  C109  1  0.88958323  0.12041008  0.25312971  1.0
  C  C110  1  0.38687900  0.61811198  0.25030035  1.0
  C  C111  1  0.94487309  0.06309832  0.25520283  1.0
  C  C112  1  0.38595459  0.61576685  0.75069818  1.0
  C  C113  1  0.05564948  0.00174009  0.77610292  1.0
  C  C114  1  0.05650536  0.00308195  0.22433436  1.0
  C  C115  1  0.55723719  0.50379119  0.27608377  1.0
  C  C116  1  0.55458259  0.50082417  0.72293890  1.0
  C  C117  1  0.05739350  0.94356826  0.74594639  1.0
  C  C118  1  0.05656475  0.94247236  0.25212535  1.0
  C  C119  1  0.55834968  0.44432907  0.24721334  1.0
  C  C120  1  0.55639631  0.44151135  0.75206047  1.0
  C  C121  1  0.00190033  0.05689650  0.77617513  1.0
  C  C122  1  0.44164670  0.56030812  0.24876274  1.0
  C  C123  1  0.00284745  0.05834785  0.22494630  1.0
  C  C124  1  0.50320833  0.55875767  0.27568680  1.0
  C  C125  1  0.49942112  0.55454805  0.72264179  1.0
  C  C126  1  0.44195229  0.55930948  0.75335839  1.0
  C  C127  1  0.99947570  0.55321739  0.71978572  1.0
  O  O128  1  0.75071563  0.25201500  0.74966212  1.0
  O  O129  1  0.74162800  0.18980140  0.36490210  1.0
  O  O130  1  0.24854604  0.69034607  0.13583252  1.0
  O  O131  1  0.24912134  0.69089587  0.86492725  1.0
  O  O132  1  0.60590804  0.16609594  0.78241795  1.0
  O  O133  1  0.60495295  0.16831944  0.21781277  1.0
  O  O134  1  0.10776462  0.66540472  0.28571421  1.0
  O  O135  1  0.10291084  0.67027978  0.71999083  1.0
  O  O136  1  0.83666405  0.39342213  0.71664325  1.0
  O  O137  1  0.83624432  0.39413841  0.28247629  1.0
  O  O138  1  0.33626210  0.89395897  0.21809569  1.0
  O  O139  1  0.75083726  0.25228959  0.25026865  1.0
  O  O140  1  0.33250562  0.89716343  0.77889029  1.0
  O  O141  1  0.66106618  0.10902774  0.71710466  1.0
  O  O142  1  0.66678191  0.10467513  0.27717667  1.0
  O  O143  1  0.16157109  0.60932521  0.21940658  1.0
  O  O144  1  0.16512438  0.60586630  0.77874025  1.0
  O  O145  1  0.88895138  0.34036059  0.78530686  1.0
  O  O146  1  0.88844861  0.34087548  0.21415365  1.0
  O  O147  1  0.38855267  0.84083572  0.28673515  1.0
  O  O148  1  0.40078045  0.82772301  0.72694657  1.0
  O  O149  1  0.69105449  0.25106556  0.86452646  1.0
  O  O150  1  0.25057122  0.75252971  0.25049384  1.0
  O  O151  1  0.69132835  0.25620679  0.13517472  1.0
  O  O152  1  0.19185674  0.76084707  0.36543281  1.0
  O  O153  1  0.19307698  0.74571894  0.63529341  1.0
  O  O154  1  0.74713069  0.31085587  0.63400350  1.0
  O  O155  1  0.75078913  0.31099972  0.36621480  1.0
  O  O156  1  0.24926977  0.81191987  0.13433281  1.0
  O  O157  1  0.25305171  0.81241572  0.86591895  1.0
  O  O158  1  0.60668479  0.33516945  0.77896349  1.0
  O  O159  1  0.60800035  0.33780903  0.22018171  1.0
  O  O160  1  0.10499442  0.83441828  0.27756842  1.0
  O  O161  1  0.25047584  0.75208852  0.75037009  1.0
  O  O162  1  0.11014814  0.83967786  0.71633616  1.0
  O  O163  1  0.82898482  0.10510939  0.72597980  1.0
  O  O164  1  0.83692483  0.11248126  0.28266261  1.0
  O  O165  1  0.33185258  0.60819757  0.22315004  1.0
  O  O166  1  0.33553161  0.61041403  0.78237985  1.0
  O  O167  1  0.66698741  0.39939733  0.71935242  1.0
  O  O168  1  0.66708102  0.39939568  0.28179125  1.0
  O  O169  1  0.16678232  0.89956409  0.21926625  1.0
  O  O170  1  0.16381825  0.89683561  0.78242926  1.0
  O  O171  1  0.90032070  0.17054377  0.77860390  1.0
  O  O172  1  0.81302625  0.24570740  0.86595555  1.0
  O  O173  1  0.90060280  0.17102976  0.22174170  1.0
  O  O174  1  0.40081439  0.67135256  0.27871150  1.0
  O  O175  1  0.39439038  0.66344548  0.71673648  1.0
  O  O176  1  0.98538937  0.43531014  0.79452427  1.0
  O  O177  1  0.98524543  0.43583455  0.20535415  1.0
  O  O178  1  0.48597920  0.93521269  0.29515597  1.0
  O  O179  1  0.50527741  0.91466998  0.72542286  1.0
  O  O180  1  0.81288088  0.24499871  0.13406978  1.0
  O  O181  1  0.31282721  0.74448944  0.36650518  1.0
  O  O182  1  0.31459804  0.75737522  0.63504653  1.0
  O  O183  1  0.75892424  0.18983093  0.63573707  1.0
  F  F184  1  0.92032552  0.00317203  0.72005277  1.0
  F  F185  1  0.93121646  0.01307745  0.29072733  1.0
  F  F186  1  0.42384686  0.50646238  0.21727074  1.0
  F  F187  1  0.43026467  0.51093215  0.79034525  1.0
  F  F188  1  0.98709729  0.60076519  0.68191990  1.0
  F  F189  1  0.98845247  0.59812125  0.32023600  1.0
  F  F190  1  0.48747264  0.09945060  0.18143693  1.0
  F  F191  1  0.47667988  0.11055771  0.80674832  1.0
