# generated using pymatgen
data_AlH9C14NClO5
_symmetry_space_group_name_H-M   'P 1'
_cell_length_a   6.65540206
_cell_length_b   11.03251696
_cell_length_c   17.02857377
_cell_angle_alpha   84.91171827
_cell_angle_beta   82.30113039
_cell_angle_gamma   73.54766585
_symmetry_Int_Tables_number   1
_chemical_formula_structural   AlH9C14NClO5
_chemical_formula_sum   'Al2 H18 C28 N2 Cl2 O10'
_cell_volume   1186.63848893
_cell_formula_units_Z   2
loop_
 _symmetry_equiv_pos_site_id
 _symmetry_equiv_pos_as_xyz
  1  'x, y, z'
loop_
 _atom_site_type_symbol
 _atom_site_label
 _atom_site_symmetry_multiplicity
 _atom_site_fract_x
 _atom_site_fract_y
 _atom_site_fract_z
 _atom_site_occupancy
  Al  Al0  1  0.48927247  0.50025502  0.49437240  1.0
  Al  Al1  1  0.98740985  0.50199776  0.49727572  1.0
  H  H2  1  0.17740423  0.65559090  0.45804511  1.0
  H  H3  1  0.80285016  0.34658556  0.53287572  1.0
  H  H4  1  0.90654799  0.42281273  0.73995850  1.0
  H  H5  1  0.85120043  0.41917991  0.88864841  1.0
  H  H6  1  0.37596366  0.57518366  0.88576022  1.0
  H  H7  1  0.67339286  0.38030310  0.10728490  1.0
  H  H8  1  0.15074177  0.57447546  0.10716047  1.0
  H  H9  1  0.07679412  0.57990057  0.25563241  1.0
  H  H10  1  0.84954080  0.77123483  0.61651887  1.0
  H  H11  1  0.61493610  0.24025261  0.59912575  1.0
  H  H12  1  0.18296666  0.11416151  0.43588601  1.0
  H  H13  1  0.29978690  0.87808710  0.44492459  1.0
  H  H14  1  0.20380266  0.88832284  0.69027136  1.0
  H  H15  1  0.06588060  0.77091644  0.71239625  1.0
  H  H16  1  0.00006601  0.90623516  0.77002287  1.0
  H  H17  1  0.88600092  0.13379669  0.75900099  1.0
  H  H18  1  0.85394266  0.25421570  0.68107304  1.0
  H  H19  1  0.09081522  0.12854027  0.68066052  1.0
  C  C20  1  0.61927078  0.72713390  0.51107983  1.0
  C  C21  1  0.79337991  0.50061399  0.35261013  1.0
  C  C22  1  0.35085523  0.27393346  0.49336310  1.0
  C  C23  1  0.19308078  0.49481742  0.64039852  1.0
  C  C24  1  0.17268105  0.49792400  0.72888539  1.0
  C  C25  1  0.00980211  0.45431509  0.77303967  1.0
  C  C26  1  0.97816969  0.45248078  0.85504261  1.0
  C  C27  1  0.11151706  0.49686228  0.89574376  1.0
  C  C28  1  0.27518569  0.54030072  0.85334325  1.0
  C  C29  1  0.30662123  0.54071110  0.77065162  1.0
  C  C30  1  0.75944590  0.42528366  0.14026706  1.0
  C  C31  1  0.91512109  0.47700153  0.09887609  1.0
  C  C32  1  0.03057670  0.53434014  0.14006995  1.0
  C  C33  1  0.98805750  0.53798791  0.22178794  1.0
  C  C34  1  0.83035530  0.48804010  0.26465437  1.0
  C  C35  1  0.71689040  0.43037663  0.22253642  1.0
  C  C36  1  0.54650433  0.86726314  0.51634105  1.0
  C  C37  1  0.64661034  0.93495216  0.55929290  1.0
  C  C38  1  0.37773581  0.93172732  0.47526329  1.0
  C  C39  1  0.80090351  0.87427375  0.61066160  1.0
  C  C40  1  0.88925523  0.94131755  0.65449872  1.0
  C  C41  1  0.41491083  0.13351280  0.50616423  1.0
  C  C42  1  0.31180896  0.06444142  0.47014663  1.0
  C  C43  1  0.57899820  0.07097066  0.55404125  1.0
  C  C44  1  0.67123690  0.13743608  0.60000773  1.0
  C  C45  1  0.82428692  0.07656631  0.64834152  1.0
  C  C46  1  0.04785055  0.87295281  0.70947755  1.0
  C  C47  1  0.91819725  0.15248374  0.69460003  1.0
  N  N48  1  0.09209789  0.50450569  0.97899538  1.0
  N  N49  1  0.94072764  0.46670917  0.01591170  1.0
  Cl  Cl50  1  0.50649841  0.60183415  0.72401292  1.0
  Cl  Cl51  1  0.52917448  0.35895794  0.26873705  1.0
  O  O52  1  0.47678308  0.67035387  0.51219901  1.0
  O  O53  1  0.95476584  0.49646377  0.38645585  1.0
  O  O54  1  0.15380521  0.32891737  0.49750591  1.0
  O  O55  1  0.37742892  0.47625431  0.60372662  1.0
  O  O56  1  0.49587747  0.32985116  0.47888947  1.0
  O  O57  1  0.02400557  0.50738845  0.60914424  1.0
  O  O58  1  0.81715279  0.67378908  0.50266989  1.0
  O  O59  1  0.60544255  0.51805080  0.38596475  1.0
  O  O60  1  0.21839936  0.56397003  0.46462361  1.0
  O  O61  1  0.75712781  0.43844939  0.52781235  1.0
