# generated using pymatgen
data_ZnH8C18N(O2F)2
_symmetry_space_group_name_H-M   'P 1'
_cell_length_a   13.97538814
_cell_length_b   15.30425326
_cell_length_c   16.23638650
_cell_angle_alpha   89.73270865
_cell_angle_beta   89.98304145
_cell_angle_gamma   89.98461673
_symmetry_Int_Tables_number   1
_chemical_formula_structural   ZnH8C18N(O2F)2
_chemical_formula_sum   'Zn2 H16 C36 N2 O8 F4'
_cell_volume   3472.64703286
_cell_formula_units_Z   2
loop_
 _symmetry_equiv_pos_site_id
 _symmetry_equiv_pos_as_xyz
  1  'x, y, z'
loop_
 _atom_site_type_symbol
 _atom_site_label
 _atom_site_symmetry_multiplicity
 _atom_site_fract_x
 _atom_site_fract_y
 _atom_site_fract_z
 _atom_site_occupancy
  Zn  Zn0  1  0.60037421  0.49988051  0.49995799  1.0
  Zn  Zn1  1  0.39950392  0.49992907  0.50003226  1.0
  H  H2  1  0.64517985  0.05825568  0.54683428  1.0
  H  H3  1  0.35653822  0.93903609  0.54598970  1.0
  H  H4  1  0.64522189  0.94150075  0.45317000  1.0
  H  H5  1  0.35654357  0.06085099  0.45399768  1.0
  H  H6  1  0.64633818  0.22103681  0.54567051  1.0
  H  H7  1  0.35788270  0.77603752  0.54406188  1.0
  H  H8  1  0.64639624  0.77871482  0.45430391  1.0
  H  H9  1  0.35788738  0.22385379  0.45593623  1.0
  H  H10  1  0.06847052  0.43204916  0.61732395  1.0
  H  H11  1  0.93149495  0.62677070  0.44057338  1.0
  H  H12  1  0.06852206  0.56780559  0.38271700  1.0
  H  H13  1  0.93153846  0.37308629  0.55945211  1.0
  H  H14  1  0.24756147  0.43538792  0.61216255  1.0
  H  H15  1  0.75224098  0.62082766  0.44307712  1.0
  H  H16  1  0.24760937  0.56446423  0.38788610  1.0
  H  H17  1  0.75227860  0.37898956  0.55690633  1.0
  C  C18  1  0.50317313  0.33015836  0.50068140  1.0
  C  C19  1  0.50316636  0.66966417  0.49930059  1.0
  C  C20  1  0.50079544  0.04807919  0.50034086  1.0
  C  C21  1  0.50080000  0.95174196  0.49963743  1.0
  C  C22  1  0.10480833  0.46148305  0.56467990  1.0
  C  C23  1  0.89513429  0.56988185  0.46629200  1.0
  C  C24  1  0.10483340  0.53835891  0.43535732  1.0
  C  C25  1  0.89515410  0.42995921  0.53372623  1.0
  C  C26  1  0.20418457  0.46310071  0.56268041  1.0
  C  C27  1  0.79577688  0.56758087  0.46758003  1.0
  C  C28  1  0.20421086  0.53674636  0.43736767  1.0
  C  C29  1  0.79579789  0.43223943  0.53241074  1.0
  C  C30  1  0.05284592  0.49993025  0.50002678  1.0
  C  C31  1  0.94718389  0.49993146  0.50002120  1.0
  C  C32  1  0.49633976  0.49884069  0.66102183  1.0
  C  C33  1  0.49633928  0.50107888  0.33897459  1.0
  C  C34  1  0.58456716  0.49985502  0.04273557  1.0
  C  C35  1  0.41236496  0.50075990  0.95727207  1.0
  C  C36  1  0.58457000  0.49967713  0.95724233  1.0
  C  C37  1  0.41236207  0.50127566  0.04273549  1.0
  C  C38  1  0.49844362  0.50067371  0.08809087  1.0
  C  C39  1  0.49847562  0.49994580  0.91190813  1.0
  C  C40  1  0.49812255  0.50089679  0.17476434  1.0
  C  C41  1  0.49817492  0.49949672  0.82523101  1.0
  C  C42  1  0.49710014  0.49908715  0.75025418  1.0
  C  C43  1  0.49707935  0.50103740  0.24974461  1.0
  C  C44  1  0.58252159  0.09438988  0.52552888  1.0
  C  C45  1  0.41970236  0.90401676  0.52444018  1.0
  C  C46  1  0.58256198  0.90538252  0.47446739  1.0
  C  C47  1  0.41969722  0.09583923  0.47553972  1.0
  C  C48  1  0.58326455  0.18520655  0.52560818  1.0
  C  C49  1  0.42033902  0.81312195  0.52414780  1.0
  C  C50  1  0.58329090  0.81456701  0.47437065  1.0
  C  C51  1  0.42034067  0.18672996  0.47583317  1.0
  C  C52  1  0.50221149  0.23240729  0.50079123  1.0
  C  C53  1  0.50223038  0.76740830  0.49918671  1.0
  N  N54  1  0.25288402  0.49993000  0.50002517  1.0
  N  N55  1  0.74704849  0.49989979  0.49998164  1.0
  O  O56  1  0.58287593  0.36772110  0.51547179  1.0
  O  O57  1  0.42434235  0.63085558  0.51434573  1.0
  O  O58  1  0.58287811  0.63205787  0.48446586  1.0
  O  O59  1  0.42433568  0.36899789  0.48567240  1.0
  O  O60  1  0.57592557  0.51397850  0.62590317  1.0
  O  O61  1  0.41600787  0.51630026  0.37308447  1.0
  O  O62  1  0.57593762  0.48584272  0.37401891  1.0
  O  O63  1  0.41600514  0.48357866  0.62698562  1.0
  F  F64  1  0.66878004  0.49902250  0.91675555  1.0
  F  F65  1  0.32813197  0.50216156  0.08324262  1.0
  F  F66  1  0.66876050  0.49938159  0.08319382  1.0
  F  F67  1  0.32815088  0.50119615  0.91677881  1.0
