# generated using pymatgen
data_CuSiH16C24(N2F3)2
_symmetry_space_group_name_H-M   'P 1'
_cell_length_a   8.14634693
_cell_length_b   13.72101905
_cell_length_c   13.72108371
_cell_angle_alpha   89.99932217
_cell_angle_beta   89.99959728
_cell_angle_gamma   89.99844638
_symmetry_Int_Tables_number   1
_chemical_formula_structural   CuSiH16C24(N2F3)2
_chemical_formula_sum   'Cu1 Si1 H16 C24 N4 F6'
_cell_volume   1533.69034126
_cell_formula_units_Z   1
loop_
 _symmetry_equiv_pos_site_id
 _symmetry_equiv_pos_as_xyz
  1  'x, y, z'
loop_
 _atom_site_type_symbol
 _atom_site_label
 _atom_site_symmetry_multiplicity
 _atom_site_fract_x
 _atom_site_fract_y
 _atom_site_fract_z
 _atom_site_occupancy
  Cu  Cu0  1  0.50001506  0.49999033  0.50000616  1.0
  Si  Si1  1  0.00001303  0.49999489  0.50000565  1.0
  H  H2  1  0.24451768  0.65519068  0.49998459  1.0
  H  H3  1  0.23425352  0.83662844  0.50000322  1.0
  H  H4  1  0.76576169  0.83662292  0.50000367  1.0
  H  H5  1  0.75550746  0.65518604  0.49997852  1.0
  H  H6  1  0.23425983  0.16335921  0.49998023  1.0
  H  H7  1  0.24452143  0.34479755  0.49997695  1.0
  H  H8  1  0.75551121  0.34478708  0.50008603  1.0
  H  H9  1  0.76576800  0.16334858  0.50007543  1.0
  H  H10  1  0.24451917  0.50001397  0.65520576  1.0
  H  H11  1  0.23425450  0.49998965  0.83664261  1.0
  H  H12  1  0.76576268  0.49998922  0.83664379  1.0
  H  H13  1  0.75550649  0.50001443  0.65520625  1.0
  H  H14  1  0.23426007  0.50002278  0.16337072  1.0
  H  H15  1  0.24452117  0.50002528  0.34480753  1.0
  H  H16  1  0.75550972  0.49991569  0.34480511  1.0
  H  H17  1  0.76577071  0.49992689  0.16336825  1.0
  C  C18  1  0.35690936  0.69821359  0.49999068  1.0
  C  C19  1  0.35212074  0.79931399  0.50000030  1.0
  C  C20  1  0.50000907  0.85246124  0.50000553  1.0
  C  C21  1  0.64789626  0.79930954  0.49999974  1.0
  C  C22  1  0.64311249  0.69820921  0.49998796  1.0
  C  C23  1  0.50001274  0.95553740  0.50001294  1.0
  C  C24  1  0.50001247  0.04444254  0.50001979  1.0
  C  C25  1  0.50001491  0.14751797  0.50002355  1.0
  C  C26  1  0.35212649  0.20067259  0.49999947  1.0
  C  C27  1  0.35691517  0.30177073  0.49999959  1.0
  C  C28  1  0.64311708  0.30176490  0.50005443  1.0
  C  C29  1  0.64790201  0.20066814  0.50005138  1.0
  C  C30  1  0.35691160  0.50000556  0.69822911  1.0
  C  C31  1  0.35212230  0.49999261  0.79932828  1.0
  C  C32  1  0.50000910  0.49998461  0.85247686  1.0
  C  C33  1  0.64789659  0.49999181  0.79932918  1.0
  C  C34  1  0.64311227  0.50000629  0.69822857  1.0
  C  C35  1  0.50000966  0.49997671  0.95555546  1.0
  C  C36  1  0.50001554  0.49997554  0.04445760  1.0
  C  C37  1  0.50001611  0.49997711  0.14753182  1.0
  C  C38  1  0.35212861  0.50000344  0.20068460  1.0
  C  C39  1  0.35691293  0.50000281  0.30178229  1.0
  C  C40  1  0.64311729  0.49994814  0.30178175  1.0
  C  C41  1  0.64790291  0.49995016  0.20068404  1.0
  N  N42  1  0.50001273  0.64857842  0.49998560  1.0
  N  N43  1  0.50001493  0.35140297  0.50002745  1.0
  N  N44  1  0.50001410  0.50001059  0.64859647  1.0
  N  N45  1  0.50001479  0.49997445  0.35141659  1.0
  F  F46  1  0.21402306  0.49998669  0.50000379  1.0
  F  F47  1  0.78600337  0.50000345  0.50000708  1.0
  F  F48  1  0.00002008  0.58812006  0.41189110  1.0
  F  F49  1  0.00000720  0.41187045  0.58811948  1.0
  F  F50  1  0.00002140  0.58810954  0.58812718  1.0
  F  F51  1  0.00000098  0.41188242  0.41188267  1.0
