# generated using pymatgen
data_Zn4H10C26S4Br2O13
_symmetry_space_group_name_H-M   'P 1'
_cell_length_a   19.69188479
_cell_length_b   19.68859253
_cell_length_c   33.39931754
_cell_angle_alpha   79.11892387
_cell_angle_beta   79.11331785
_cell_angle_gamma   63.89787498
_symmetry_Int_Tables_number   1
_chemical_formula_structural   Zn4H10C26S4Br2O13
_chemical_formula_sum   'Zn16 H40 C104 S16 Br8 O52'
_cell_volume   11336.86965558
_cell_formula_units_Z   4
loop_
 _symmetry_equiv_pos_site_id
 _symmetry_equiv_pos_as_xyz
  1  'x, y, z'
loop_
 _atom_site_type_symbol
 _atom_site_label
 _atom_site_symmetry_multiplicity
 _atom_site_fract_x
 _atom_site_fract_y
 _atom_site_fract_z
 _atom_site_occupancy
  Zn  Zn0  1  0.60041365  0.94407492  0.52211981  1.0
  Zn  Zn1  1  0.51648891  0.01529147  0.44005117  1.0
  Zn  Zn2  1  0.43953357  0.94121079  0.51840521  1.0
  Zn  Zn3  1  0.44402812  0.09915031  0.52034488  1.0
  Zn  Zn4  1  0.65003012  0.30585096  0.72814188  1.0
  Zn  Zn5  1  0.81047016  0.31126314  0.73342895  1.0
  Zn  Zn6  1  0.73257914  0.23119200  0.80955696  1.0
  Zn  Zn7  1  0.80698911  0.15259985  0.72866549  1.0
  Zn  Zn8  1  0.23362051  0.73322424  0.31102693  1.0
  Zn  Zn9  1  0.30369238  0.65089155  0.22853808  1.0
  Zn  Zn10  1  0.15093494  0.80788165  0.22912175  1.0
  Zn  Zn11  1  0.31065331  0.80831397  0.23198707  1.0
  Zn  Zn12  1  0.93879564  0.43988101  0.01652699  1.0
  Zn  Zn13  1  0.94464228  0.59941667  0.02232413  1.0
  Zn  Zn14  1  0.09830342  0.44287603  0.02090266  1.0
  Zn  Zn15  1  0.01769240  0.51866761  0.94022639  1.0
  H  H16  1  0.55204684  0.24984635  0.65106752  1.0
  H  H17  1  0.69763841  0.00020318  0.59945786  1.0
  H  H18  1  0.29998739  0.79949852  0.39857631  1.0
  H  H19  1  0.44995539  0.95069869  0.35150805  1.0
  H  H20  1  0.76089102  0.53632019  0.65892608  1.0
  H  H21  1  0.29735089  0.52039023  0.39889850  1.0
  H  H22  1  0.02084542  0.79675645  0.39916095  1.0
  H  H23  1  0.02939842  0.05154815  0.65230636  1.0
  H  H24  1  0.85116464  0.35177579  0.95037376  1.0
  H  H25  1  0.89866659  0.39819068  0.79971917  1.0
  H  H26  1  0.22855585  0.45348957  0.85153682  1.0
  H  H27  1  0.85760450  0.83840349  0.96001375  1.0
  H  H28  1  0.00054016  0.69763009  0.09908697  1.0
  H  H29  1  0.24989306  0.55196072  0.15091251  1.0
  H  H30  1  0.71962647  0.69965369  0.09794979  1.0
  H  H31  1  0.98871266  0.21316868  0.09125655  1.0
  H  H32  1  0.42441386  0.76810249  0.60111016  1.0
  H  H33  1  0.44937413  0.66872136  0.60310521  1.0
  H  H34  1  0.46417140  0.72377141  0.55604728  1.0
  H  H35  1  0.52338649  0.17896037  0.34577600  1.0
  H  H36  1  0.46347301  0.24289677  0.30839450  1.0
  H  H37  1  0.43633801  0.17594971  0.34341915  1.0
  H  H38  1  0.67685142  0.93575495  0.34330585  1.0
  H  H39  1  0.74395683  0.96307300  0.30858605  1.0
  H  H40  1  0.67952561  0.02290165  0.34587799  1.0
  H  H41  1  0.27797086  0.20240348  0.61012917  1.0
  H  H42  1  0.18002731  0.26861601  0.61403403  1.0
  H  H43  1  0.23277368  0.24257450  0.56535753  1.0
  H  H44  1  0.57062791  0.22711001  0.90374967  1.0
  H  H45  1  0.50657465  0.28730459  0.94100112  1.0
  H  H46  1  0.57367469  0.31420206  0.90599796  1.0
  H  H47  1  0.85212680  0.92747857  0.75992699  1.0
  H  H48  1  0.93018431  0.84148778  0.77592965  1.0
  H  H49  1  0.93945024  0.92955417  0.76264240  1.0
  H  H50  1  0.51763475  0.50698726  0.18465878  1.0
  H  H51  1  0.57049824  0.48089235  0.13601727  1.0
  H  H52  1  0.47252503  0.54697450  0.13985030  1.0
  H  H53  1  0.28597314  0.02656543  0.19394193  1.0
  H  H54  1  0.30123804  0.08141407  0.14687841  1.0
  H  H55  1  0.32565330  0.98211680  0.14893582  1.0
  C  C56  1  0.68399538  0.93857531  0.43810594  1.0
  C  C57  1  0.43010845  0.93078381  0.43163066  1.0
  C  C58  1  0.56133432  0.81589791  0.56187285  1.0
  C  C59  1  0.31528154  0.06243778  0.56151344  1.0
  C  C60  1  0.56789191  0.07036221  0.56904873  1.0
  C  C61  1  0.43836448  0.18354294  0.43772513  1.0
  C  C62  1  0.68906686  0.43453685  0.68856391  1.0
  C  C63  1  0.81868061  0.31795365  0.81962903  1.0
  C  C64  1  0.56529025  0.31094739  0.81141346  1.0
  C  C65  1  0.81169775  0.06501196  0.81107553  1.0
  C  C66  1  0.68208545  0.17990818  0.68120921  1.0
  C  C67  1  0.93497969  0.18861507  0.68877560  1.0
  C  C68  1  0.31118302  0.56584390  0.31201486  1.0
  C  C69  1  0.17975697  0.68208316  0.18113774  1.0
  C  C70  1  0.06631689  0.81155843  0.31238887  1.0
  C  C71  1  0.18910867  0.93484404  0.18854674  1.0
  C  C72  1  0.31972318  0.81946655  0.31846090  1.0
  C  C73  1  0.43395592  0.68725195  0.18822493  1.0
  C  C74  1  0.81552801  0.56230805  0.06159122  1.0
  C  C75  1  0.07045728  0.56759070  0.06896664  1.0
  C  C76  1  0.06015495  0.31527559  0.06110804  1.0
  C  C77  1  0.18423430  0.43872436  0.93822181  1.0
  C  C78  1  0.93138675  0.43184396  0.93043981  1.0
  C  C79  1  0.93837570  0.68551369  0.93933030  1.0
  C  C80  1  0.59400985  0.10145281  0.59799232  1.0
  C  C81  1  0.65561161  0.14854940  0.65258316  1.0
  C  C82  1  0.55264854  0.17277314  0.61300618  1.0
  C  C83  1  0.69680826  0.07710242  0.63771175  1.0
  C  C84  1  0.58378180  0.19478532  0.63958867  1.0
  C  C85  1  0.66580821  0.05518781  0.61101435  1.0
  C  C86  1  0.40026720  0.90063948  0.40410133  1.0
  C  C87  1  0.34950951  0.84972883  0.34598159  1.0
  C  C88  1  0.35734605  0.85725577  0.41729766  1.0
  C  C89  1  0.39245716  0.89308744  0.33278450  1.0
  C  C90  1  0.33307881  0.83294517  0.38842384  1.0
  C  C91  1  0.41675340  0.91736217  0.36165248  1.0
  C  C92  1  0.54464457  0.69624380  0.59869634  1.0
  C  C93  1  0.70404887  0.55374699  0.65091382  1.0
  C  C94  1  0.58543379  0.74096948  0.58630991  1.0
  C  C95  1  0.66384380  0.50919190  0.66345713  1.0
  C  C96  1  0.66132691  0.62191791  0.62727820  1.0
  C  C97  1  0.58912963  0.62825687  0.62218555  1.0
  C  C98  1  0.42492629  0.27257438  0.36981282  1.0
  C  C99  1  0.32651652  0.47551949  0.37900591  1.0
  C  C100  1  0.41430982  0.25766823  0.41250758  1.0
  C  C101  1  0.33668407  0.49072824  0.33663936  1.0
  C  C102  1  0.35843659  0.39631630  0.39145093  1.0
  C  C103  1  0.39249019  0.35236997  0.35831465  1.0
  C  C104  1  0.77307343  0.92445694  0.37010272  1.0
  C  C105  1  0.97595128  0.82584584  0.37928576  1.0
  C  C106  1  0.75817335  0.91403927  0.41284363  1.0
  C  C107  1  0.99117382  0.83618322  0.33693111  1.0
  C  C108  1  0.89676997  0.85775673  0.39172331  1.0
  C  C109  1  0.85285759  0.89183583  0.35858164  1.0
  C  C110  1  0.19997735  0.15748574  0.60252200  1.0
  C  C111  1  0.05031745  0.09554892  0.64759776  1.0
  C  C112  1  0.24097691  0.08814664  0.58645546  1.0
  C  C113  1  0.00949889  0.16427823  0.66367107  1.0
  C  C114  1  0.11984900  0.09230399  0.62529301  1.0
  C  C115  1  0.13074001  0.15875253  0.62470854  1.0
  C  C116  1  0.84596708  0.34576210  0.84963704  1.0
  C  C117  1  0.90388245  0.40420262  0.90045588  1.0
  C  C118  1  0.83252771  0.33293471  0.89282267  1.0
  C  C119  1  0.91707085  0.41728552  0.85726947  1.0
  C  C120  1  0.86140964  0.36183110  0.91709240  1.0
  C  C121  1  0.88838623  0.38818040  0.83300098  1.0
  C  C122  1  0.47696145  0.32556517  0.87959982  1.0
  C  C123  1  0.27381865  0.42429403  0.87117383  1.0
  C  C124  1  0.49131775  0.33606914  0.83683290  1.0
  C  C125  1  0.25917363  0.41373141  0.91356174  1.0
  C  C126  1  0.35286517  0.39242841  0.85842415  1.0
  C  C127  1  0.39725536  0.35820011  0.89136601  1.0
  C  C128  1  0.87581948  0.91869437  0.82150476  1.0
  C  C129  1  0.87412295  0.83099463  0.92761992  1.0
  C  C130  1  0.83649656  0.99012434  0.83547459  1.0
  C  C131  1  0.91324483  0.75989468  0.91404867  1.0
  C  C132  1  0.86011385  0.88920326  0.89422390  1.0
  C  C133  1  0.88884157  0.86151723  0.85566697  1.0
  C  C134  1  0.14872443  0.65572649  0.15228134  1.0
  C  C135  1  0.10173419  0.59395485  0.09769177  1.0
  C  C136  1  0.07741346  0.69702842  0.13725790  1.0
  C  C137  1  0.17308214  0.55266784  0.11267184  1.0
  C  C138  1  0.05553204  0.66583815  0.11063292  1.0
  C  C139  1  0.19495497  0.58383128  0.13931953  1.0
  C  C140  1  0.55016055  0.59223564  0.14745758  1.0
  C  C141  1  0.69923561  0.65526668  0.10261301  1.0
  C  C142  1  0.50861724  0.66156093  0.16349430  1.0
  C  C143  1  0.74070205  0.58660906  0.08654531  1.0
  C  C144  1  0.62980773  0.65797067  0.12485479  1.0
  C  C145  1  0.61944433  0.59123597  0.12540073  1.0
  C  C146  1  0.20560527  0.05434913  0.15122604  1.0
  C  C147  1  0.04557709  0.19606917  0.09913925  1.0
  C  C148  1  0.16499278  0.00952939  0.16388044  1.0
  C  C149  1  0.08548338  0.24082727  0.08633210  1.0
  C  C150  1  0.08872333  0.12811673  0.12277925  1.0
  C  C151  1  0.16091090  0.12214989  0.12765347  1.0
  C  C152  1  0.46646730  0.71492858  0.58933111  1.0
  C  C153  1  0.46404732  0.21476121  0.34008725  1.0
  C  C154  1  0.71551978  0.96357220  0.34021960  1.0
  C  C155  1  0.22366288  0.22140839  0.59786317  1.0
  C  C156  1  0.53482674  0.28650347  0.90931899  1.0
  C  C157  1  0.90089752  0.90307069  0.77770478  1.0
  C  C158  1  0.52676729  0.52810901  0.15214063  1.0
  C  C159  1  0.28378821  0.03544959  0.16064364  1.0
  S  S160  1  0.67537980  0.70064790  0.60285697  1.0
  S  S161  1  0.57433068  0.54970481  0.64667065  1.0
  S  S162  1  0.36613740  0.33897544  0.43768350  1.0
  S  S163  1  0.38489015  0.40927862  0.31179832  1.0
  S  S164  1  0.83949809  0.86573582  0.43796904  1.0
  S  S165  1  0.90977870  0.88438928  0.31207066  1.0
  S  S166  1  0.19598785  0.02659202  0.59822976  1.0
  S  S167  1  0.05494977  0.22507397  0.65178083  1.0
  S  S168  1  0.40963054  0.38461592  0.81201328  1.0
  S  S169  1  0.34095232  0.36527197  0.93807179  1.0
  S  S170  1  0.81612726  0.98715838  0.88872218  1.0
  S  S171  1  0.93315968  0.76333810  0.86088063  1.0
  S  S172  1  0.55327552  0.72342562  0.15187168  1.0
  S  S173  1  0.69576737  0.52526123  0.09834631  1.0
  S  S174  1  0.07497376  0.04938277  0.14747484  1.0
  S  S175  1  0.17521028  0.20081233  0.10287654  1.0
  Br  Br176  1  0.45448253  0.24511688  0.59982939  1.0
  Br  Br177  1  0.79482864  0.00454434  0.65103965  1.0
  Br  Br178  1  0.32822989  0.82742120  0.47302821  1.0
  Br  Br179  1  0.42197598  0.92258827  0.27703717  1.0
  Br  Br180  1  0.77639910  0.27768669  0.92241005  1.0
  Br  Br181  1  0.97226461  0.47335348  0.82767245  1.0
  Br  Br182  1  0.00523747  0.79517423  0.15038001  1.0
  Br  Br183  1  0.24529083  0.45450729  0.09952651  1.0
  O  O184  1  0.50146167  0.99934465  0.50016963  1.0
  O  O185  1  0.68468573  0.92258485  0.47711345  1.0
  O  O186  1  0.46854586  0.96847869  0.41382967  1.0
  O  O187  1  0.49466770  0.84461794  0.55060092  1.0
  O  O188  1  0.62493342  0.97385188  0.41910225  1.0
  O  O189  1  0.60886052  0.84637256  0.55392569  1.0
  O  O190  1  0.41498416  0.91671955  0.47006724  1.0
  O  O191  1  0.34284345  0.99493541  0.55118914  1.0
  O  O192  1  0.50268525  0.11161469  0.55742494  1.0
  O  O193  1  0.34645121  0.10912647  0.55205267  1.0
  O  O194  1  0.61366796  0.00476344  0.55851172  1.0
  O  O195  1  0.47425198  0.12416559  0.41904991  1.0
  O  O196  1  0.42113200  0.18473093  0.47667288  1.0
  O  O197  1  0.74947043  0.25164645  0.74949564  1.0
  O  O198  1  0.64215125  0.40348473  0.69654578  1.0
  O  O199  1  0.83662168  0.33550170  0.78155044  1.0
  O  O200  1  0.62431955  0.27423855  0.83029372  1.0
  O  O201  1  0.75529083  0.40752021  0.70012640  1.0
  O  O202  1  0.56463577  0.32766652  0.77240280  1.0
  O  O203  1  0.78027799  0.27951200  0.83433184  1.0
  O  O204  1  0.77428886  0.12298848  0.83093579  1.0
  O  O205  1  0.74709439  0.13842087  0.69301055  1.0
  O  O206  1  0.82941794  0.06659193  0.77215119  1.0
  O  O207  1  0.63682736  0.24597124  0.69127626  1.0
  O  O208  1  0.90694694  0.25519669  0.70017120  1.0
  O  O209  1  0.90493344  0.14099703  0.69703286  1.0
  O  O210  1  0.24968493  0.74922607  0.25071723  1.0
  O  O211  1  0.27599532  0.62401363  0.33159497  1.0
  O  O212  1  0.24563499  0.63632091  0.19142860  1.0
  O  O213  1  0.06631176  0.82850540  0.27343735  1.0
  O  O214  1  0.32675751  0.56586722  0.27298517  1.0
  O  O215  1  0.12456391  0.77583002  0.33190992  1.0
  O  O216  1  0.13868252  0.74709966  0.19296467  1.0
  O  O217  1  0.14081190  0.90527246  0.19713015  1.0
  O  O218  1  0.33399185  0.83454901  0.28003093  1.0
  O  O219  1  0.25610809  0.90519461  0.19942031  1.0
  O  O220  1  0.28229095  0.78080379  0.33624343  1.0
  O  O221  1  0.40194342  0.64121870  0.19701865  1.0
  O  O222  1  0.40692670  0.75436507  0.19900784  1.0
  O  O223  1  0.99866274  0.50071461  0.00035687  1.0
  O  O224  1  0.84295709  0.49591114  0.04999176  1.0
  O  O225  1  0.00436213  0.61306021  0.05894647  1.0
  O  O226  1  0.10773091  0.34555735  0.05261862  1.0
  O  O227  1  0.84628510  0.60930304  0.05375434  1.0
  O  O228  1  0.99362195  0.34306704  0.04988592  1.0
  O  O229  1  0.11177903  0.50270569  0.05700661  1.0
  O  O230  1  0.18399267  0.42059607  0.97713752  1.0
  O  O231  1  0.97002079  0.47004800  0.91569575  1.0
  O  O232  1  0.12605163  0.47626786  0.91881687  1.0
  O  O233  1  0.91346910  0.41438793  0.96853340  1.0
  O  O234  1  0.92200245  0.68544077  0.97823305  1.0
  O  O235  1  0.97475604  0.62719742  0.91977089  1.0
