# generated using pymatgen
data_ZnH14C21(N2O3)2
_symmetry_space_group_name_H-M   'P 1'
_cell_length_a   8.70149970
_cell_length_b   10.33772627
_cell_length_c   27.04515053
_cell_angle_alpha   89.99996732
_cell_angle_beta   90.00001414
_cell_angle_gamma   95.58072771
_symmetry_Int_Tables_number   1
_chemical_formula_structural   ZnH14C21(N2O3)2
_chemical_formula_sum   'Zn4 H56 C84 N16 O24'
_cell_volume   2421.28083120
_cell_formula_units_Z   4
loop_
 _symmetry_equiv_pos_site_id
 _symmetry_equiv_pos_as_xyz
  1  'x, y, z'
loop_
 _atom_site_type_symbol
 _atom_site_label
 _atom_site_symmetry_multiplicity
 _atom_site_fract_x
 _atom_site_fract_y
 _atom_site_fract_z
 _atom_site_occupancy
  Zn  Zn0  1  0.30862235  0.42782204  0.43285428  1.0
  Zn  Zn1  1  0.19137899  0.57217844  0.93285443  1.0
  Zn  Zn2  1  0.69138003  0.57217716  0.56714526  1.0
  Zn  Zn3  1  0.80862131  0.42782270  0.06714585  1.0
  H  H4  1  0.94736689  0.34375015  0.57817315  1.0
  H  H5  1  0.55263342  0.65625067  0.07817293  1.0
  H  H6  1  0.05263445  0.65625003  0.42182639  1.0
  H  H7  1  0.44736792  0.34374950  0.92182735  1.0
  H  H8  1  0.99597114  0.29388483  0.48901115  1.0
  H  H9  1  0.50402816  0.70611442  0.98901126  1.0
  H  H10  1  0.00402894  0.70611437  0.51098839  1.0
  H  H11  1  0.49597307  0.29388478  0.01098865  1.0
  H  H12  1  0.36369768  0.66332577  0.61286471  1.0
  H  H13  1  0.13630324  0.33667323  0.11286493  1.0
  H  H14  1  0.63630251  0.33667440  0.38713520  1.0
  H  H15  1  0.86369684  0.66332597  0.88713535  1.0
  H  H16  1  0.35269493  0.57717450  0.53275276  1.0
  H  H17  1  0.14730376  0.42282559  0.03275408  1.0
  H  H18  1  0.64730526  0.42282568  0.46724604  1.0
  H  H19  1  0.85269528  0.57717458  0.96724694  1.0
  H  H20  1  0.41723175  0.71704858  0.69903949  1.0
  H  H21  1  0.08276934  0.28295127  0.19903972  1.0
  H  H22  1  0.58276844  0.28295159  0.30096042  1.0
  H  H23  1  0.91723085  0.71704890  0.80096056  1.0
  H  H24  1  0.06188682  0.41832486  0.74424207  1.0
  H  H25  1  0.43811085  0.58167493  0.24424300  1.0
  H  H26  1  0.93811096  0.58167434  0.25575673  1.0
  H  H27  1  0.56188808  0.41832427  0.75575765  1.0
  H  H28  1  0.00868686  0.36403762  0.65744833  1.0
  H  H29  1  0.49131420  0.63596229  0.15744962  1.0
  H  H30  1  0.99131426  0.63596061  0.34255048  1.0
  H  H31  1  0.50868703  0.36403691  0.84255140  1.0
  H  H32  1  0.25437781  0.92245519  0.42825081  1.0
  H  H33  1  0.24562030  0.07754724  0.92825107  1.0
  H  H34  1  0.74562249  0.07754596  0.57174910  1.0
  H  H35  1  0.75437781  0.92245487  0.07174884  1.0
  H  H36  1  0.68805423  0.75410851  0.42364114  1.0
  H  H37  1  0.81194514  0.24589181  0.92364064  1.0
  H  H38  1  0.31194700  0.24589069  0.57635914  1.0
  H  H39  1  0.18805539  0.75411128  0.07635927  1.0
  H  H40  1  0.68165678  0.16633770  0.44557194  1.0
  H  H41  1  0.81834272  0.83366356  0.94557242  1.0
  H  H42  1  0.31834457  0.83366247  0.55442760  1.0
  H  H43  1  0.18165666  0.16633953  0.05442712  1.0
  H  H44  1  0.45525791  0.75671846  0.77644782  1.0
  H  H45  1  0.04473967  0.24328030  0.27644806  1.0
  H  H46  1  0.54473976  0.24327976  0.22355135  1.0
  H  H47  1  0.95525926  0.75671890  0.72355222  1.0
  H  H48  1  0.12112230  0.46467704  0.82783783  1.0
  H  H49  1  0.37887635  0.53532068  0.32783840  1.0
  H  H50  1  0.87887641  0.53532022  0.17216208  1.0
  H  H51  1  0.62112247  0.46467755  0.67216151  1.0
  H  H52  1  0.05470570  0.09830653  0.44673812  1.0
  H  H53  1  0.44529335  0.90169393  0.94673860  1.0
  H  H54  1  0.94529461  0.90169462  0.55326142  1.0
  H  H55  1  0.55470603  0.09830915  0.05326206  1.0
  H  H56  1  0.45144006  0.76916342  0.87053900  1.0
  H  H57  1  0.04855872  0.23083521  0.37053960  1.0
  H  H58  1  0.54855887  0.23083578  0.12946017  1.0
  H  H59  1  0.95144136  0.76916399  0.62946068  1.0
  C  C60  1  0.18130117  0.51027687  0.62817911  1.0
  C  C61  1  0.31869988  0.48972308  0.12817969  1.0
  C  C62  1  0.81870017  0.48972330  0.37182006  1.0
  C  C63  1  0.68130031  0.51027709  0.87182096  1.0
  C  C64  1  0.24337607  0.57203109  0.72903194  1.0
  C  C65  1  0.25662263  0.42796774  0.22903252  1.0
  C  C66  1  0.75662149  0.42796617  0.27096760  1.0
  C  C67  1  0.74337630  0.57203146  0.77096813  1.0
  C  C68  1  0.06807373  0.36269887  0.51118477  1.0
  C  C69  1  0.43192599  0.63730028  0.01118495  1.0
  C  C70  1  0.93192739  0.63729936  0.48881477  1.0
  C  C71  1  0.56807421  0.36269990  0.98881533  1.0
  C  C72  1  0.29532498  0.61033631  0.64146467  1.0
  C  C73  1  0.20467608  0.38966363  0.14146488  1.0
  C  C74  1  0.70467522  0.38966387  0.35853524  1.0
  C  C75  1  0.79532515  0.61033558  0.85853540  1.0
  C  C76  1  0.27383710  0.60086155  0.78094254  1.0
  C  C77  1  0.22616163  0.39913721  0.28094312  1.0
  C  C78  1  0.72616172  0.39913668  0.21905700  1.0
  C  C79  1  0.77383719  0.60086102  0.71905753  1.0
  C  C80  1  0.15882575  0.47547584  0.57645857  1.0
  C  C81  1  0.34117537  0.52452516  0.07645950  1.0
  C  C82  1  0.84117559  0.52452433  0.42354060  1.0
  C  C83  1  0.65882597  0.47547502  0.92354115  1.0
  C  C84  1  0.24958679  0.50981296  0.53543754  1.0
  C  C85  1  0.25041294  0.49018616  0.03543810  1.0
  C  C86  1  0.75041444  0.49018624  0.46456164  1.0
  C  C87  1  0.74958725  0.50981402  0.96456255  1.0
  C  C88  1  0.32561800  0.64025806  0.69075779  1.0
  C  C89  1  0.17438193  0.35974180  0.19075838  1.0
  C  C90  1  0.67438219  0.35974211  0.30924175  1.0
  C  C91  1  0.82561815  0.64025740  0.80924190  1.0
  C  C92  1  0.12851147  0.47267763  0.71558443  1.0
  C  C93  1  0.37148847  0.52732220  0.21558537  1.0
  C  C94  1  0.87148861  0.52732157  0.28441437  1.0
  C  C95  1  0.62851057  0.47267798  0.78441528  1.0
  C  C96  1  0.09778870  0.44216470  0.66633161  1.0
  C  C97  1  0.40221467  0.55783520  0.16633144  1.0
  C  C98  1  0.90221242  0.55783353  0.33366830  1.0
  C  C99  1  0.59778678  0.44216594  0.83366847  1.0
  C  C100  1  0.37172748  0.17477350  0.44082912  1.0
  C  C101  1  0.12827168  0.82522794  0.94082921  1.0
  C  C102  1  0.62827386  0.82522667  0.55917042  1.0
  C  C103  1  0.87172633  0.17477320  0.05917070  1.0
  C  C104  1  0.38021798  0.93418720  0.43059097  1.0
  C  C105  1  0.11977991  0.06581329  0.93059049  1.0
  C  C106  1  0.61978210  0.06581200  0.56940931  1.0
  C  C107  1  0.88021820  0.93418883  0.06940905  1.0
  C  C108  1  0.87548189  0.97675874  0.43218055  1.0
  C  C109  1  0.62451989  0.02324254  0.93218193  1.0
  C  C110  1  0.12452186  0.02324241  0.56781825  1.0
  C  C111  1  0.37548030  0.97675763  0.06782094  1.0
  C  C112  1  0.46245034  0.82472281  0.42610885  1.0
  C  C113  1  0.03754881  0.17527865  0.92610797  1.0
  C  C114  1  0.53755100  0.17527736  0.57389217  1.0
  C  C115  1  0.96245057  0.82472444  0.07389231  1.0
  C  C116  1  0.45901655  0.05732675  0.43771397  1.0
  C  C117  1  0.04098260  0.94267470  0.93771441  1.0
  C  C118  1  0.54098479  0.94267342  0.56228594  1.0
  C  C119  1  0.95901666  0.05732742  0.06228514  1.0
  C  C120  1  0.62384520  0.83883081  0.42770323  1.0
  C  C121  1  0.87615428  0.16117048  0.92770238  1.0
  C  C122  1  0.37615614  0.16116937  0.57229779  1.0
  C  C123  1  0.12384257  0.83883067  0.07229790  1.0
  C  C124  1  0.70332200  0.96231788  0.43399492  1.0
  C  C125  1  0.79667875  0.03768437  0.93399520  1.0
  C  C126  1  0.29668060  0.03768327  0.56600536  1.0
  C  C127  1  0.20332189  0.96231969  0.06600545  1.0
  C  C128  1  0.62051734  0.07072438  0.43982970  1.0
  C  C129  1  0.87948215  0.92927688  0.93982979  1.0
  C  C130  1  0.37948285  0.92927579  0.56017021  1.0
  C  C131  1  0.12051952  0.07072621  0.06017012  1.0
  C  C132  1  0.20948837  0.54514873  0.82359529  1.0
  C  C133  1  0.29051027  0.45484900  0.32359587  1.0
  C  C134  1  0.79051034  0.45484853  0.17640425  1.0
  C  C135  1  0.70948740  0.54514923  0.67640441  1.0
  C  C136  1  0.37389603  0.69400672  0.41876892  1.0
  C  C137  1  0.12610393  0.30599184  0.91876875  1.0
  C  C138  1  0.62610509  0.30599151  0.58123137  1.0
  C  C139  1  0.87389637  0.69400931  0.08123116  1.0
  C  C140  1  0.37973414  0.70112634  0.84788762  1.0
  C  C141  1  0.12026452  0.29887135  0.34788785  1.0
  C  C142  1  0.62026457  0.29887092  0.15211192  1.0
  C  C143  1  0.87973327  0.70112785  0.65211243  1.0
  N  N144  1  0.19239850  0.43826078  0.49543629  1.0
  N  N145  1  0.30760058  0.56173961  0.99543682  1.0
  N  N146  1  0.80760169  0.56173939  0.50456326  1.0
  N  N147  1  0.69239857  0.43826153  0.00456383  1.0
  N  N148  1  0.04488294  0.38336435  0.55939600  1.0
  N  N149  1  0.45511703  0.61663667  0.05939618  1.0
  N  N150  1  0.95511726  0.61663582  0.44060355  1.0
  N  N151  1  0.54488328  0.38336447  0.94060410  1.0
  N  N152  1  0.38117686  0.69949559  0.79782541  1.0
  N  N153  1  0.11882188  0.30050314  0.29782564  1.0
  N  N154  1  0.61882070  0.30050166  0.20217450  1.0
  N  N155  1  0.88117820  0.69949606  0.70217464  1.0
  N  N156  1  0.27549114  0.60838579  0.86434640  1.0
  N  N157  1  0.22450753  0.39161187  0.36434662  1.0
  N  N158  1  0.72450653  0.39161243  0.13565351  1.0
  N  N159  1  0.77549233  0.60838538  0.63565366  1.0
  O  O160  1  0.22617968  0.16423908  0.44197165  1.0
  O  O161  1  0.27381948  0.83576236  0.94197175  1.0
  O  O162  1  0.77382155  0.83576012  0.55802863  1.0
  O  O163  1  0.72617634  0.16423975  0.05802816  1.0
  O  O164  1  0.45222928  0.28654547  0.44042645  1.0
  O  O165  1  0.04777195  0.71345403  0.94042656  1.0
  O  O166  1  0.54777310  0.71345373  0.55957346  1.0
  O  O167  1  0.95222698  0.28654517  0.05957335  1.0
  O  O168  1  0.93805521  0.09217168  0.44953718  1.0
  O  O169  1  0.56194533  0.90782860  0.94953688  1.0
  O  O170  1  0.06194613  0.90782849  0.55046310  1.0
  O  O171  1  0.43805394  0.09217352  0.05046340  1.0
  O  O172  1  0.95265404  0.89333877  0.41555207  1.0
  O  O173  1  0.54734659  0.10666253  0.91555232  1.0
  O  O174  1  0.04735131  0.10666626  0.58444784  1.0
  O  O175  1  0.45265197  0.89334347  0.08444796  1.0
  O  O176  1  0.44572252  0.59375242  0.42943812  1.0
  O  O177  1  0.05427767  0.40624807  0.92943794  1.0
  O  O178  1  0.55427997  0.40624776  0.57056253  1.0
  O  O179  1  0.94572159  0.59375404  0.07056235  1.0
  O  O180  1  0.23769875  0.68871115  0.40281707  1.0
  O  O181  1  0.26230212  0.31128549  0.90281765  1.0
  O  O182  1  0.76230318  0.31128416  0.59718284  1.0
  O  O183  1  0.73769714  0.68871663  0.09718300  1.0
