# generated using pymatgen
data_Al2H15C30(ClO4)3
_symmetry_space_group_name_H-M   'P 1'
_cell_length_a   4.00312677
_cell_length_b   17.23052499
_cell_length_c   17.23060749
_cell_angle_alpha   119.99988534
_cell_angle_beta   90.00002880
_cell_angle_gamma   90.00001132
_symmetry_Int_Tables_number   1
_chemical_formula_structural   Al2H15C30(ClO4)3
_chemical_formula_sum   'Al2 H15 C30 Cl3 O12'
_cell_volume   1029.27061993
_cell_formula_units_Z   1
loop_
 _symmetry_equiv_pos_site_id
 _symmetry_equiv_pos_as_xyz
  1  'x, y, z'
loop_
 _atom_site_type_symbol
 _atom_site_label
 _atom_site_symmetry_multiplicity
 _atom_site_fract_x
 _atom_site_fract_y
 _atom_site_fract_z
 _atom_site_occupancy
  Al  Al0  1  0.99060082  0.50000062  0.00000032  1.0
  Al  Al1  1  0.99854794  0.83333384  0.66666515  1.0
  H  H2  1  0.53497504  0.83610259  0.41790763  1.0
  H  H3  1  0.26140128  0.52630099  0.41255503  1.0
  H  H4  1  0.70634848  0.52816454  0.41597683  1.0
  H  H5  1  0.72595794  0.44731244  0.24754747  1.0
  H  H6  1  0.28166773  0.44470881  0.24352186  1.0
  H  H7  1  0.53496915  0.58180413  0.66389558  1.0
  H  H8  1  0.26139594  0.88625319  0.97369526  1.0
  H  H9  1  0.70634063  0.88781140  0.97183096  1.0
  H  H10  1  0.72596285  0.80023329  0.05268313  1.0
  H  H11  1  0.28167015  0.79880995  0.05528727  1.0
  H  H12  1  0.53496426  0.08209172  0.91819560  1.0
  H  H13  1  0.26139279  0.08744487  0.61374979  1.0
  H  H14  1  0.70634247  0.08402154  0.61218907  1.0
  H  H15  1  0.72596228  0.25245208  0.69976692  1.0
  H  H16  1  0.28166459  0.25647937  0.70119027  1.0
  C  C17  1  0.49338688  0.36293299  0.93448558  1.0
  C  C18  1  0.49337967  0.57155226  0.13706889  1.0
  C  C19  1  0.49338194  0.56551476  0.92844633  1.0
  C  C20  1  0.49913566  0.76681174  0.52938673  1.0
  C  C21  1  0.49914087  0.76257652  0.73318826  1.0
  C  C22  1  0.49914844  0.97061183  0.73742233  1.0
  C  C23  1  0.50094412  0.71713649  0.42980531  1.0
  C  C24  1  0.50125614  0.62308154  0.23679841  1.0
  C  C25  1  0.48811406  0.62405859  0.37936218  1.0
  C  C26  1  0.50892773  0.71751418  0.28813216  1.0
  C  C27  1  0.49928521  0.57908031  0.28605465  1.0
  C  C28  1  0.51837795  0.76323611  0.38184982  1.0
  C  C29  1  0.48684003  0.53814641  0.38364504  1.0
  C  C30  1  0.49918275  0.48701877  0.27763023  1.0
  C  C31  1  0.50094342  0.71266773  0.78286095  1.0
  C  C32  1  0.50125575  0.61371729  0.87691630  1.0
  C  C33  1  0.48811856  0.75530122  0.87593727  1.0
  C  C34  1  0.50892963  0.57061546  0.78248427  1.0
  C  C35  1  0.49928237  0.70697325  0.92091599  1.0
  C  C36  1  0.51838221  0.61861237  0.73676103  1.0
  C  C37  1  0.48683719  0.84549717  0.96184912  1.0
  C  C38  1  0.49918257  0.79061101  0.01297841  1.0
  C  C39  1  0.50094821  0.07019454  0.78733321  1.0
  C  C40  1  0.50125564  0.26320124  0.88628274  1.0
  C  C41  1  0.48812071  0.12063803  0.74469934  1.0
  C  C42  1  0.50892717  0.21186970  0.92938304  1.0
  C  C43  1  0.49928207  0.21394410  0.79302547  1.0
  C  C44  1  0.51837970  0.11815202  0.88138862  1.0
  C  C45  1  0.48683661  0.11635417  0.65450330  1.0
  C  C46  1  0.49918455  0.22236981  0.70939016  1.0
  Cl  Cl47  1  0.52340637  0.78054110  0.23518277  1.0
  Cl  Cl48  1  0.52343069  0.45464116  0.71945918  1.0
  Cl  Cl49  1  0.52342098  0.26481859  0.04535820  1.0
  O  O50  1  0.72491852  0.58460398  0.98601241  1.0
  O  O51  1  0.72492088  0.40141140  0.91539657  1.0
  O  O52  1  0.72492361  0.51398567  0.09858922  1.0
  O  O53  1  0.25380418  0.51139566  0.91350073  1.0
  O  O54  1  0.25380191  0.58649957  0.09789426  1.0
  O  O55  1  0.25381172  0.40210662  0.98860373  1.0
  O  O56  1  0.73230369  0.93052818  0.75399030  1.0
  O  O57  1  0.73230095  0.82346100  0.56947211  1.0
  O  O58  1  0.73230104  0.74600907  0.67653698  1.0
  O  O59  1  0.26339265  0.93243284  0.68101156  1.0
  O  O60  1  0.26338769  0.81898994  0.75142020  1.0
  O  O61  1  0.26338498  0.74857758  0.56756615  1.0
