# generated using pymatgen
data_ZnH12C28(N5O13)2
_symmetry_space_group_name_H-M   'P 1'
_cell_length_a   12.34751613
_cell_length_b   13.04557474
_cell_length_c   23.28763452
_cell_angle_alpha   88.33667582
_cell_angle_beta   86.68001256
_cell_angle_gamma   84.82760374
_symmetry_Int_Tables_number   1
_chemical_formula_structural   ZnH12C28(N5O13)2
_chemical_formula_sum   'Zn2 H24 C56 N20 O52'
_cell_volume   3728.56825132
_cell_formula_units_Z   2
loop_
 _symmetry_equiv_pos_site_id
 _symmetry_equiv_pos_as_xyz
  1  'x, y, z'
loop_
 _atom_site_type_symbol
 _atom_site_label
 _atom_site_symmetry_multiplicity
 _atom_site_fract_x
 _atom_site_fract_y
 _atom_site_fract_z
 _atom_site_occupancy
  Zn  Zn0  1  0.62063832  0.50872921  0.49725294  1.0
  Zn  Zn1  1  0.38893534  0.50225755  0.50279313  1.0
  H  H2  1  0.17119724  0.72373299  0.11864909  1.0
  H  H3  1  0.13759036  0.78551556  0.05024990  1.0
  H  H4  1  0.18671687  0.85811042  0.10633154  1.0
  H  H5  1  0.31721139  0.19503393  0.90273894  1.0
  H  H6  1  0.32367392  0.14426637  0.97604690  1.0
  H  H7  1  0.40719379  0.08292968  0.91914962  1.0
  H  H8  1  0.61635774  0.28485996  0.36356709  1.0
  H  H9  1  0.56909589  0.22238474  0.30250498  1.0
  H  H10  1  0.51986821  0.18909342  0.37391072  1.0
  H  H11  1  0.35050689  0.80904143  0.63626531  1.0
  H  H12  1  0.48917537  0.75616010  0.64486030  1.0
  H  H13  1  0.39782202  0.78487142  0.70708849  1.0
  H  H14  1  0.41697693  0.71519716  0.36720297  1.0
  H  H15  1  0.43050572  0.78644143  0.29990001  1.0
  H  H16  1  0.52145121  0.80252300  0.35600549  1.0
  H  H17  1  0.65930089  0.23326324  0.64738412  1.0
  H  H18  1  0.52190160  0.28768269  0.63928877  1.0
  H  H19  1  0.55986342  0.22857425  0.70717152  1.0
  H  H20  1  0.21678979  0.09901593  0.58470459  1.0
  H  H21  1  0.15817950  0.97789195  0.57774872  1.0
  H  H22  1  0.10269678  0.09262829  0.54113794  1.0
  H  H23  1  0.67329517  0.93571266  0.63471625  1.0
  H  H24  1  0.75196288  0.04661582  0.63048810  1.0
  H  H25  1  0.81728277  0.91942068  0.61818603  1.0
  C  C26  1  0.46781770  0.69950004  0.50731469  1.0
  C  C27  1  0.53052076  0.30948197  0.50037940  1.0
  C  C28  1  0.51233370  0.50614139  0.39136951  1.0
  C  C29  1  0.50811162  0.50437856  0.60905680  1.0
  C  C30  1  0.39454384  0.40748855  0.87916983  1.0
  C  C31  1  0.36282602  0.57256848  0.13025492  1.0
  C  C32  1  0.39492165  0.59999667  0.88169100  1.0
  C  C33  1  0.47090268  0.40052001  0.12158403  1.0
  C  C34  1  0.37377964  0.59159801  0.94463996  1.0
  C  C35  1  0.43986522  0.39932267  0.06133976  1.0
  C  C36  1  0.39083282  0.49448638  0.97334233  1.0
  C  C37  1  0.39625505  0.49150449  0.03419907  1.0
  C  C38  1  0.40615417  0.40224792  0.94183860  1.0
  C  C39  1  0.36258248  0.58015061  0.06684416  1.0
  C  C40  1  0.34753235  0.67831012  0.97738715  1.0
  C  C41  1  0.46100855  0.31162515  0.02896600  1.0
  C  C42  1  0.33351816  0.67424654  0.03836391  1.0
  C  C43  1  0.43778094  0.30855589  0.97001689  1.0
  C  C44  1  0.43538430  0.40784420  0.24976306  1.0
  C  C45  1  0.37580879  0.57672310  0.75476727  1.0
  C  C46  1  0.46675187  0.40823915  0.30697185  1.0
  C  C47  1  0.41081436  0.58511400  0.69610534  1.0
  C  C48  1  0.50155505  0.49876247  0.32760473  1.0
  C  C49  1  0.48968189  0.51058242  0.67348208  1.0
  C  C50  1  0.51535327  0.58475728  0.29151547  1.0
  C  C51  1  0.54363519  0.43780169  0.70962492  1.0
  C  C52  1  0.49771691  0.57691650  0.23259846  1.0
  C  C53  1  0.52022247  0.44296955  0.76943739  1.0
  C  C54  1  0.45346573  0.49071486  0.21178329  1.0
  C  C55  1  0.43306131  0.50855284  0.79227708  1.0
  C  C56  1  0.53403261  0.19408958  0.50789949  1.0
  C  C57  1  0.45891297  0.81440625  0.51392045  1.0
  C  C58  1  0.34568469  0.97953317  0.51124205  1.0
  C  C59  1  0.63576867  0.03063851  0.53537810  1.0
  C  C60  1  0.35779799  0.87312656  0.50989932  1.0
  C  C61  1  0.63104427  0.13513119  0.52241031  1.0
  C  C62  1  0.54838025  0.86715168  0.52412673  1.0
  C  C63  1  0.44098195  0.14208426  0.50540044  1.0
  C  C64  1  0.54267797  0.97609470  0.52619171  1.0
  C  C65  1  0.44097651  0.03392768  0.51470390  1.0
  C  C66  1  0.04997824  0.43025279  0.56231275  1.0
  C  C67  1  0.96362353  0.53081505  0.41953376  1.0
  C  C68  1  0.15850907  0.44737621  0.55709461  1.0
  C  C69  1  0.85212629  0.53951846  0.43086360  1.0
  C  C70  1  0.14978616  0.49397977  0.46206229  1.0
  C  C71  1  0.86676686  0.48403853  0.52392967  1.0
  C  C72  1  0.03372933  0.49666260  0.46392110  1.0
  C  C73  1  0.98220154  0.46659277  0.51778013  1.0
  C  C74  1  0.19132589  0.78284793  0.08637836  1.0
  C  C75  1  0.36931362  0.15662751  0.93489230  1.0
  C  C76  1  0.54718775  0.25141058  0.34576310  1.0
  C  C77  1  0.40447540  0.75858862  0.66262452  1.0
  C  C78  1  0.47407205  0.74828681  0.33544555  1.0
  C  C79  1  0.58754785  0.27321507  0.66930015  1.0
  C  C80  1  0.17685253  0.05052622  0.55608973  1.0
  C  C81  1  0.74308656  0.97062668  0.61323017  1.0
  N  N82  1  0.40632552  0.50612253  0.85252317  1.0
  N  N83  1  0.42897808  0.48761597  0.15283470  1.0
  N  N84  1  0.80299953  0.51792952  0.48270944  1.0
  N  N85  1  0.20933066  0.47851821  0.50758544  1.0
  N  N86  1  0.32911084  0.78299067  0.95115445  1.0
  N  N87  1  0.50814564  0.21263673  0.05363780  1.0
  N  N88  1  0.81575060  0.47597906  0.58303319  1.0
  N  N89  1  0.21032860  0.50933538  0.40607461  1.0
  N  N90  1  0.78207414  0.58559930  0.38487036  1.0
  N  N91  1  0.21798861  0.43878260  0.61123402  1.0
  N  N92  1  0.01199114  0.37017447  0.61391477  1.0
  N  N93  1  0.00452654  0.56045216  0.36044975  1.0
  N  N94  1  0.37476395  0.32271946  0.23214316  1.0
  N  N95  1  0.27089734  0.63089549  0.77447472  1.0
  N  N96  1  0.53042573  0.65956575  0.19256401  1.0
  N  N97  1  0.59191943  0.38010956  0.80778839  1.0
  N  N98  1  0.33799027  0.19892171  0.48688378  1.0
  N  N99  1  0.65532599  0.80687992  0.53104343  1.0
  N  N100  1  0.73763055  0.18002648  0.51871998  1.0
  N  N101  1  0.25785535  0.82236887  0.49966382  1.0
  O  O102  1  0.55954760  0.65881225  0.48880817  1.0
  O  O103  1  0.44254427  0.35419204  0.48326277  1.0
  O  O104  1  0.38233438  0.65473844  0.52056492  1.0
  O  O105  1  0.61393990  0.35210038  0.51349324  1.0
  O  O106  1  0.60359350  0.48089305  0.41262395  1.0
  O  O107  1  0.43131636  0.46813601  0.58409092  1.0
  O  O108  1  0.42497129  0.53782006  0.41930212  1.0
  O  O109  1  0.59477908  0.53313092  0.58455024  1.0
  O  O110  1  0.38132822  0.33415514  0.84955460  1.0
  O  O111  1  0.31439991  0.63512877  0.16294422  1.0
  O  O112  1  0.40423116  0.68238163  0.85597332  1.0
  O  O113  1  0.52970961  0.33135808  0.14355533  1.0
  O  O114  1  0.23524819  0.80911929  0.93759644  1.0
  O  O115  1  0.40688071  0.83582224  0.94819942  1.0
  O  O116  1  0.44214541  0.15602221  0.07622042  1.0
  O  O117  1  0.60724338  0.19411428  0.04657211  1.0
  O  O118  1  0.81600206  0.55458319  0.61091758  1.0
  O  O119  1  0.78357303  0.39249635  0.59793787  1.0
  O  O120  1  0.21213266  0.59887302  0.38823242  1.0
  O  O121  1  0.25038412  0.42970412  0.38365948  1.0
  O  O122  1  0.72677346  0.66502979  0.39810165  1.0
  O  O123  1  0.79112769  0.54145373  0.33863311  1.0
  O  O124  1  0.22357986  0.52276116  0.63289445  1.0
  O  O125  1  0.24823571  0.35265065  0.62979903  1.0
  O  O126  1  0.00184706  0.27943462  0.60403614  1.0
  O  O127  1  0.99855112  0.41417005  0.66006185  1.0
  O  O128  1  0.04625588  0.48878170  0.33116985  1.0
  O  O129  1  0.99094037  0.65232062  0.34705727  1.0
  O  O130  1  0.30402233  0.76411627  0.06456336  1.0
  O  O131  1  0.45988535  0.21749979  0.94402555  1.0
  O  O132  1  0.29137822  0.34769283  0.20588439  1.0
  O  O133  1  0.40874217  0.23415933  0.24577280  1.0
  O  O134  1  0.20952296  0.57930915  0.80516463  1.0
  O  O135  1  0.24921262  0.72063747  0.75787270  1.0
  O  O136  1  0.45410475  0.32772189  0.34445573  1.0
  O  O137  1  0.36544278  0.65732647  0.65945212  1.0
  O  O138  1  0.55455403  0.66856555  0.31344796  1.0
  O  O139  1  0.62324086  0.36973164  0.68691463  1.0
  O  O140  1  0.58402599  0.63212953  0.14801753  1.0
  O  O141  1  0.50413153  0.74935460  0.20617714  1.0
  O  O142  1  0.62591519  0.42525001  0.84842487  1.0
  O  O143  1  0.61439611  0.28858266  0.79664621  1.0
  O  O144  1  0.27577340  0.24006195  0.52472712  1.0
  O  O145  1  0.32356070  0.19815480  0.43521572  1.0
  O  O146  1  0.66801246  0.76425238  0.57867501  1.0
  O  O147  1  0.72112162  0.80403241  0.48941822  1.0
  O  O148  1  0.78432167  0.18728221  0.56360472  1.0
  O  O149  1  0.77399208  0.20035090  0.46962482  1.0
  O  O150  1  0.24653451  0.79814001  0.44979599  1.0
  O  O151  1  0.19344224  0.81145803  0.54149970  1.0
  O  O152  1  0.24592532  0.02974746  0.50401508  1.0
  O  O153  1  0.73043174  0.97961004  0.55137707  1.0
