# generated using pymatgen
data_ZnH12C11N3O5
_symmetry_space_group_name_H-M   'P 1'
_cell_length_a   9.64291317
_cell_length_b   10.93975207
_cell_length_c   10.94691168
_cell_angle_alpha   89.94262980
_cell_angle_beta   90.26035818
_cell_angle_gamma   89.84068950
_symmetry_Int_Tables_number   1
_chemical_formula_structural   ZnH12C11N3O5
_chemical_formula_sum   'Zn2 H24 C22 N6 O10'
_cell_volume   1154.78454805
_cell_formula_units_Z   2
loop_
 _symmetry_equiv_pos_site_id
 _symmetry_equiv_pos_as_xyz
  1  'x, y, z'
loop_
 _atom_site_type_symbol
 _atom_site_label
 _atom_site_symmetry_multiplicity
 _atom_site_fract_x
 _atom_site_fract_y
 _atom_site_fract_z
 _atom_site_occupancy
  Zn  Zn0  1  0.34815613  0.49532468  0.50533668  1.0
  Zn  Zn1  1  0.64632142  0.49937096  0.50112985  1.0
  H  H2  1  0.28020877  0.50241742  0.88520783  1.0
  H  H3  1  0.82154846  0.58371283  0.88691340  1.0
  H  H4  1  0.82035254  0.41960145  0.88842523  1.0
  H  H5  1  0.81942252  0.42026735  0.11449910  1.0
  H  H6  1  0.82098536  0.58428894  0.11484651  1.0
  H  H7  1  0.87284213  0.33301815  0.39857800  1.0
  H  H8  1  0.87304364  0.46955088  0.31183681  1.0
  H  H9  1  0.11513791  0.47116825  0.31172726  1.0
  H  H10  1  0.12063451  0.33361883  0.39712287  1.0
  H  H11  1  0.11771368  0.66509365  0.41520925  1.0
  H  H12  1  0.11721300  0.66986779  0.57740081  1.0
  H  H13  1  0.87323945  0.66457422  0.41421331  1.0
  H  H14  1  0.87307878  0.67052480  0.57518307  1.0
  H  H15  1  0.87346752  0.34084304  0.61555019  1.0
  H  H16  1  0.87313033  0.48299777  0.69211967  1.0
  H  H17  1  0.11923560  0.48378670  0.69312007  1.0
  H  H18  1  0.12050861  0.34103130  0.61750352  1.0
  H  H19  1  0.27941778  0.11593390  0.50128311  1.0
  H  H20  1  0.82034274  0.11377937  0.58102884  1.0
  H  H21  1  0.81986886  0.11398175  0.41715446  1.0
  H  H22  1  0.81922336  0.88641816  0.41732893  1.0
  H  H23  1  0.81941683  0.88648616  0.58102981  1.0
  H  H24  1  0.28156203  0.50441813  0.21022156  1.0
  H  H25  1  0.27888839  0.79089338  0.50078982  1.0
  C  C26  1  0.50234410  0.50374210  0.26008343  1.0
  C  C27  1  0.49866604  0.50303873  0.73932575  1.0
  C  C28  1  0.49797824  0.26154087  0.49913684  1.0
  C  C29  1  0.50067540  0.74059483  0.49896641  1.0
  C  C30  1  0.61880425  0.50340328  0.93808020  1.0
  C  C31  1  0.37415023  0.50390665  0.05972987  1.0
  C  C32  1  0.61823426  0.50395538  0.06087757  1.0
  C  C33  1  0.37674318  0.50270761  0.93605374  1.0
  C  C34  1  0.77458735  0.50234959  0.92857975  1.0
  C  C35  1  0.77392562  0.50285100  0.07320856  1.0
  C  C36  1  0.91572366  0.42565672  0.39374439  1.0
  C  C37  1  0.07619588  0.42599826  0.39384155  1.0
  C  C38  1  0.07598183  0.62148697  0.49746832  1.0
  C  C39  1  0.91599293  0.62147362  0.49666028  1.0
  C  C40  1  0.91628985  0.43367691  0.61399955  1.0
  C  C41  1  0.07690601  0.43375691  0.61471373  1.0
  C  C42  1  0.61792329  0.06292704  0.49879972  1.0
  C  C43  1  0.37299210  0.94118026  0.50015032  1.0
  C  C44  1  0.61719493  0.94002452  0.49867272  1.0
  C  C45  1  0.37577331  0.06492529  0.50051897  1.0
  C  C46  1  0.77365660  0.07276385  0.49899577  1.0
  C  C47  1  0.77297221  0.92798403  0.49896601  1.0
  N  N48  1  0.50031776  0.50264887  0.86550008  1.0
  N  N49  1  0.49846471  0.50404931  0.13372188  1.0
  N  N50  1  0.13004886  0.49400316  0.50193637  1.0
  N  N51  1  0.86307277  0.49409817  0.50132054  1.0
  N  N52  1  0.49948821  0.13542499  0.49963242  1.0
  N  N53  1  0.49720582  0.86713462  0.49926022  1.0
  O  O54  1  0.37807045  0.31264426  0.49994504  1.0
  O  O55  1  0.61605247  0.31497040  0.49772181  1.0
  O  O56  1  0.38199669  0.68460695  0.50034597  1.0
  O  O57  1  0.61823513  0.68866586  0.49722318  1.0
  O  O58  1  0.38380187  0.50250349  0.31626916  1.0
  O  O59  1  0.61658020  0.50463783  0.68597631  1.0
  O  O60  1  0.62014237  0.50469807  0.31191942  1.0
  O  O61  1  0.37876461  0.50178208  0.68824471  1.0
  O  O62  1  0.25289281  0.50546817  0.12033426  1.0
  O  O63  1  0.25139579  0.88088800  0.50046246  1.0
