# generated using pymatgen
data_ZnSiH16C24N4(O4F3)2
_symmetry_space_group_name_H-M   'P 1'
_cell_length_a   7.89418094
_cell_length_b   13.96076070
_cell_length_c   13.96071099
_cell_angle_alpha   89.99926686
_cell_angle_beta   89.99961601
_cell_angle_gamma   89.99973372
_symmetry_Int_Tables_number   1
_chemical_formula_structural   ZnSiH16C24N4(O4F3)2
_chemical_formula_sum   'Zn1 Si1 H16 C24 N4 O8 F6'
_cell_volume   1538.59280068
_cell_formula_units_Z   1
loop_
 _symmetry_equiv_pos_site_id
 _symmetry_equiv_pos_as_xyz
  1  'x, y, z'
loop_
 _atom_site_type_symbol
 _atom_site_label
 _atom_site_symmetry_multiplicity
 _atom_site_fract_x
 _atom_site_fract_y
 _atom_site_fract_z
 _atom_site_occupancy
  Zn  Zn0  1  0.50001600  0.49999264  0.50000624  1.0
  Si  Si1  1  0.00001353  0.49999606  0.50000214  1.0
  H  H2  1  0.23440693  0.66135735  0.49999280  1.0
  H  H3  1  0.76561720  0.66135032  0.49998324  1.0
  H  H4  1  0.23440214  0.33863712  0.49995117  1.0
  H  H5  1  0.76561494  0.33862579  0.50011209  1.0
  H  H6  1  0.23441684  0.50000910  0.66136241  1.0
  H  H7  1  0.76562584  0.50001496  0.66136717  1.0
  H  H8  1  0.23439729  0.50005199  0.33865033  1.0
  H  H9  1  0.76560630  0.49987949  0.33864364  1.0
  H  H10  1  0.78590688  0.91573758  0.49997513  1.0
  H  H11  1  0.21413509  0.91574609  0.50004422  1.0
  H  H12  1  0.78588045  0.08423920  0.50016454  1.0
  H  H13  1  0.21410359  0.08424914  0.49990126  1.0
  H  H14  1  0.78589743  0.50002047  0.91575962  1.0
  H  H15  1  0.21413071  0.49994660  0.91575636  1.0
  H  H16  1  0.78587850  0.49982451  0.08425255  1.0
  H  H17  1  0.21410923  0.50010163  0.08425860  1.0
  C  C18  1  0.35163232  0.70252547  0.49999376  1.0
  C  C19  1  0.34683844  0.80237247  0.50000101  1.0
  C  C20  1  0.50002064  0.85491600  0.49999896  1.0
  C  C21  1  0.65320081  0.80236712  0.49999400  1.0
  C  C22  1  0.64839522  0.70252156  0.49998749  1.0
  C  C23  1  0.50001256  0.95595419  0.50000619  1.0
  C  C24  1  0.49999791  0.04403397  0.50001346  1.0
  C  C25  1  0.49999616  0.14507860  0.50002356  1.0
  C  C26  1  0.34681472  0.19761531  0.49997193  1.0
  C  C27  1  0.35162412  0.29747161  0.49998059  1.0
  C  C28  1  0.64838828  0.29746698  0.50006959  1.0
  C  C29  1  0.65318090  0.19761282  0.50008025  1.0
  C  C30  1  0.35164090  0.50000727  0.70253345  1.0
  C  C31  1  0.34683548  0.49999876  0.80238152  1.0
  C  C32  1  0.50001761  0.50000183  0.85491868  1.0
  C  C33  1  0.65319785  0.50000630  0.80238598  1.0
  C  C34  1  0.64840507  0.50000909  0.70253219  1.0
  C  C35  1  0.50000812  0.49999259  0.95596440  1.0
  C  C36  1  0.49999475  0.49998768  0.04403950  1.0
  C  C37  1  0.49999666  0.49997701  0.14509237  1.0
  C  C38  1  0.34681768  0.50002985  0.19762579  1.0
  C  C39  1  0.35161680  0.50002204  0.29748316  1.0
  C  C40  1  0.64838223  0.49992573  0.29748262  1.0
  C  C41  1  0.65317625  0.49991562  0.19762237  1.0
  N  N42  1  0.50001526  0.65517043  0.49998806  1.0
  N  N43  1  0.50000787  0.34481629  0.50002443  1.0
  N  N44  1  0.50002138  0.50001242  0.65518315  1.0
  N  N45  1  0.50000429  0.49997573  0.34483005  1.0
  O  O46  1  0.80612590  0.84674347  0.49999416  1.0
  O  O47  1  0.19391039  0.84675131  0.50001031  1.0
  O  O48  1  0.80610388  0.15323756  0.50012323  1.0
  O  O49  1  0.19388584  0.15324612  0.49991447  1.0
  O  O50  1  0.80612415  0.50000012  0.84676167  1.0
  O  O51  1  0.19390864  0.49998646  0.84675848  1.0
  O  O52  1  0.80610183  0.49986488  0.15325401  1.0
  O  O53  1  0.19388505  0.50008402  0.15325870  1.0
  F  F54  1  0.22641447  0.49999438  0.50000531  1.0
  F  F55  1  0.77361627  0.49999807  0.50000002  1.0
  F  F56  1  0.00003138  0.58583291  0.41417072  1.0
  F  F57  1  0.00000327  0.41415778  0.58583499  1.0
  F  F58  1  0.00001512  0.58582608  0.58583962  1.0
  F  F59  1  0.00002460  0.41416533  0.41416537  1.0
