# generated using pymatgen
data_Al3H23C41SO18
_symmetry_space_group_name_H-M   'P 1'
_cell_length_a   12.12248461
_cell_length_b   12.33280156
_cell_length_c   28.00396334
_cell_angle_alpha   90.75803354
_cell_angle_beta   90.31688664
_cell_angle_gamma   118.97957606
_symmetry_Int_Tables_number   1
_chemical_formula_structural   Al3H23C41SO18
_chemical_formula_sum   'Al6 H46 C82 S2 O36'
_cell_volume   3661.84066880
_cell_formula_units_Z   2
loop_
 _symmetry_equiv_pos_site_id
 _symmetry_equiv_pos_as_xyz
  1  'x, y, z'
loop_
 _atom_site_type_symbol
 _atom_site_label
 _atom_site_symmetry_multiplicity
 _atom_site_fract_x
 _atom_site_fract_y
 _atom_site_fract_z
 _atom_site_occupancy
  Al  Al0  1  0.19538792  0.59951652  0.50574341  1.0
  Al  Al1  1  0.93295950  0.34362287  0.50305989  1.0
  Al  Al2  1  0.92387915  0.58300856  0.50294002  1.0
  Al  Al3  1  0.15711752  0.08938671  0.01540593  1.0
  Al  Al4  1  0.41306161  0.07350134  0.01885823  1.0
  Al  Al5  1  0.43196011  0.32660778  0.01917903  1.0
  H  H6  1  0.51757638  0.16120887  0.70093861  1.0
  H  H7  1  0.36775511  0.53712858  0.80049753  1.0
  H  H8  1  0.02260306  0.19060187  0.81549136  1.0
  H  H9  1  0.75620942  0.20212014  0.38282835  1.0
  H  H10  1  0.76335457  0.50424786  0.22245873  1.0
  H  H11  1  0.71763295  0.48134641  0.13505733  1.0
  H  H12  1  0.51229842  0.11254838  0.23845390  1.0
  H  H13  1  0.48104260  0.08872235  0.15099798  1.0
  H  H14  1  0.64186777  0.48134653  0.29579038  1.0
  H  H15  1  0.47615928  0.12451669  0.78732945  1.0
  H  H16  1  0.69577871  0.51686318  0.38259127  1.0
  H  H17  1  0.92821844  0.71211163  0.37015032  1.0
  H  H18  1  0.32147127  0.80430891  0.22497708  1.0
  H  H19  1  0.34912191  0.85574034  0.13877805  1.0
  H  H20  1  0.96111654  0.76910087  0.28446930  1.0
  H  H21  1  0.04191278  0.92448816  0.23325318  1.0
  H  H22  1  0.06812149  0.97161467  0.14648249  1.0
  H  H23  1  0.35615574  0.88005145  0.30114650  1.0
  H  H24  1  0.31906389  0.81434645  0.38582891  1.0
  H  H25  1  0.26975889  0.55760086  0.37719350  1.0
  H  H26  1  0.81762940  0.46649854  0.81960034  1.0
  H  H27  1  0.99898120  0.21279346  0.22034306  1.0
  H  H28  1  0.30329699  0.53623255  0.29052040  1.0
  H  H29  1  0.40007881  0.44583801  0.24007182  1.0
  H  H30  1  0.42877470  0.43186418  0.15251685  1.0
  H  H31  1  0.05434921  0.14288872  0.29696741  1.0
  H  H32  1  0.01574266  0.16655504  0.38352877  1.0
  H  H33  1  0.04476558  0.93093511  0.71255643  1.0
  H  H34  1  0.07189669  0.95668765  0.80097342  1.0
  H  H35  1  0.33266082  0.81280152  0.79727275  1.0
  H  H36  1  0.30701678  0.78872695  0.70848143  1.0
  H  H37  1  0.32548218  0.52874780  0.71257601  1.0
  H  H38  1  0.90911404  0.27249855  0.68609780  1.0
  H  H39  1  0.81463360  0.19964264  0.73692386  1.0
  H  H40  1  0.73055314  0.99225194  0.69424291  1.0
  H  H41  1  0.70192221  0.09752810  0.66016345  1.0
  H  H42  1  0.82661615  0.06814658  0.64414677  1.0
  H  H43  1  0.89463796  0.16384817  0.32216725  1.0
  H  H44  1  0.85167691  0.16203897  0.16247091  1.0
  H  H45  1  0.89422528  0.04291156  0.16644274  1.0
  H  H46  1  0.85498224  0.00577893  0.07576680  1.0
  H  H47  1  0.71523813  0.97271779  0.10876118  1.0
  H  H48  1  0.79625947  0.11234319  0.07621587  1.0
  H  H49  1  0.04650949  0.49784440  0.72036164  1.0
  H  H50  1  0.40350434  0.65952804  0.48458109  1.0
  H  H51  1  0.95273646  0.97599303  0.98391236  1.0
  C  C52  1  0.10882691  0.38525870  0.57326902  1.0
  C  C53  1  0.75126212  0.39905422  0.79393789  1.0
  C  C54  1  0.77342280  0.41914448  0.74544995  1.0
  C  C55  1  0.68943032  0.33475721  0.71052414  1.0
  C  C56  1  0.64337203  0.29303214  0.80987239  1.0
  C  C57  1  0.62098360  0.27770141  0.85956465  1.0
  C  C58  1  0.71280202  0.35252271  0.66097605  1.0
  C  C59  1  0.60421007  0.27161573  0.90254344  1.0
  C  C60  1  0.13075626  0.80087626  0.61356004  1.0
  C  C61  1  0.10947109  0.90776037  0.73119502  1.0
  C  C62  1  0.12413826  0.92144628  0.78038434  1.0
  C  C63  1  0.78704752  0.39236317  0.57108457  1.0
  C  C64  1  0.27164854  0.84028300  0.77831393  1.0
  C  C65  1  0.25753273  0.82706528  0.72908921  1.0
  C  C66  1  0.17487055  0.85894546  0.70490763  1.0
  C  C67  1  0.20408002  0.88651199  0.80474637  1.0
  C  C68  1  0.21474499  0.89714955  0.85508518  1.0
  C  C69  1  0.15251454  0.83276424  0.65544794  1.0
  C  C70  1  0.22255120  0.90836221  0.89848700  1.0
  C  C71  1  0.12445688  0.35703068  0.62153779  1.0
  C  C72  1  0.25953670  0.45647322  0.73582301  1.0
  C  C73  1  0.28324158  0.46095876  0.78445130  1.0
  C  C74  1  0.10383956  0.73796990  0.56812538  1.0
  C  C75  1  0.08884707  0.26506805  0.79312742  1.0
  C  C76  1  0.06436863  0.26028973  0.74434342  1.0
  C  C77  1  0.15132124  0.35607083  0.71464450  1.0
  C  C78  1  0.19860829  0.36411271  0.81355493  1.0
  C  C79  1  0.22334696  0.36140142  0.86275148  1.0
  C  C80  1  0.13398189  0.35220340  0.66469876  1.0
  C  C81  1  0.24039452  0.34836788  0.90468861  1.0
  C  C82  1  0.72707643  0.35988875  0.38825270  1.0
  C  C83  1  0.72888751  0.26152387  0.36356286  1.0
  C  C84  1  0.70293562  0.24435895  0.31469907  1.0
  C  C85  1  0.11294652  0.38343373  0.43541952  1.0
  C  C86  1  0.67081043  0.32333212  0.28875628  1.0
  C  C87  1  0.66769269  0.42021133  0.31483541  1.0
  C  C88  1  0.69605823  0.43953480  0.36345988  1.0
  C  C89  1  0.69878540  0.41336653  0.20700223  1.0
  C  C90  1  0.67554566  0.40069717  0.15790954  1.0
  C  C91  1  0.54250737  0.17951576  0.16693080  1.0
  C  C92  1  0.56106511  0.19328025  0.21606136  1.0
  C  C93  1  0.64297047  0.30963489  0.23675785  1.0
  C  C94  1  0.59969789  0.28278689  0.13741942  1.0
  C  C95  1  0.12155729  0.75944330  0.38299175  1.0
  C  C96  1  0.77469025  0.38614596  0.43844254  1.0
  C  C97  1  0.02141598  0.74927611  0.35455769  1.0
  C  C98  1  0.04072564  0.78220080  0.30682943  1.0
  C  C99  1  0.16069972  0.82812329  0.28640954  1.0
  C  C100  1  0.26144444  0.84103735  0.31566832  1.0
  C  C101  1  0.24182836  0.80604251  0.36318489  1.0
  C  C102  1  0.26617109  0.84176958  0.20811821  1.0
  C  C103  1  0.28129550  0.86935597  0.15980257  1.0
  C  C104  1  0.12178569  0.93366085  0.16422806  1.0
  C  C105  1  0.10736797  0.90648291  0.21249426  1.0
  C  C106  1  0.17879069  0.85961713  0.23536017  1.0
  C  C107  1  0.09928659  0.71239795  0.43251879  1.0
  C  C108  1  0.20914689  0.91544971  0.13747370  1.0
  C  C109  1  0.13936649  0.36386764  0.38520503  1.0
  C  C110  1  0.22307954  0.46720557  0.35921459  1.0
  C  C111  1  0.24184750  0.45463380  0.31096586  1.0
  C  C112  1  0.17892404  0.33866141  0.28745841  1.0
  C  C113  1  0.09814030  0.23440086  0.31427350  1.0
  C  C114  1  0.07783145  0.24688950  0.36256245  1.0
  C  C115  1  0.09350964  0.25796277  0.20570547  1.0
  C  C116  1  0.10913680  0.25272235  0.15619573  1.0
  C  C117  1  0.33497097  0.38575139  0.16783294  1.0
  C  C118  1  0.73582113  0.36621241  0.61847784  1.0
  C  C119  1  0.31880712  0.39322667  0.21655187  1.0
  C  C120  1  0.19737194  0.32850991  0.23585223  1.0
  C  C121  1  0.23249514  0.31608463  0.13687611  1.0
  C  C122  1  0.23891725  0.94726228  0.94777947  1.0
  C  C123  1  0.56216766  0.25850624  0.95120849  1.0
  C  C124  1  0.25816000  0.30772979  0.95052759  1.0
  C  C125  1  0.23019698  0.95554557  0.08699365  1.0
  C  C126  1  0.56641456  0.26312119  0.08570059  1.0
  C  C127  1  0.25755619  0.30010282  0.08630500  1.0
  C  C128  1  0.58264258  0.22816945  0.72709024  1.0
  C  C129  1  0.55970334  0.20735965  0.77559638  1.0
  C  C130  1  0.86384146  0.18612550  0.70630379  1.0
  C  C131  1  0.77564815  0.07907972  0.67445387  1.0
  C  C132  1  0.88793441  0.10947734  0.14206547  1.0
  C  C133  1  0.80873594  0.04569861  0.09807049  1.0
  S  S134  1  0.72301414  0.12521136  0.28544487  1.0
  S  S135  1  0.90970541  0.55926186  0.72977303  1.0
  O  O136  1  0.18457502  0.70957963  0.55291320  1.0
  O  O137  1  0.80315608  0.30924668  0.45764276  1.0
  O  O138  1  0.79235938  0.48752422  0.45820653  1.0
  O  O139  1  0.99370341  0.68948470  0.45188162  1.0
  O  O140  1  0.01440908  0.50660290  0.50358561  1.0
  O  O141  1  0.17740302  0.19885237  0.96126794  1.0
  O  O142  1  0.15911509  0.97416507  0.96514987  1.0
  O  O143  1  0.33762639  0.95727940  0.96974859  1.0
  O  O144  1  0.54112730  0.15970991  0.97255676  1.0
  O  O145  1  0.54330178  0.34495643  0.96794035  1.0
  O  O146  1  0.35619743  0.38272200  0.97554461  1.0
  O  O147  1  0.18511632  0.49265816  0.55955111  1.0
  O  O148  1  0.17369409  0.21292158  0.06135261  1.0
  O  O149  1  0.15697402  0.98988285  0.06887128  1.0
  O  O150  1  0.32573904  0.95791791  0.06556919  1.0
  O  O151  1  0.53371672  0.15534754  0.06799879  1.0
  O  O152  1  0.56377278  0.35081022  0.06266552  1.0
  O  O153  1  0.36991684  0.37447723  0.07094131  1.0
  O  O154  1  0.33737455  0.16402258  0.01704084  1.0
  O  O155  1  0.01507942  0.30058172  0.54869899  1.0
  O  O156  1  0.81245198  0.31233704  0.55201521  1.0
  O  O157  1  0.80871218  0.49509871  0.55305475  1.0
  O  O158  1  0.99784498  0.71103762  0.54731397  1.0
  O  O159  1  0.18279961  0.69358027  0.45181729  1.0
  O  O160  1  0.19251635  0.48113507  0.45689915  1.0
  O  O161  1  0.00688916  0.30155675  0.45289597  1.0
  O  O162  1  0.96014627  0.15986301  0.72565760  1.0
  O  O163  1  0.60493031  0.01186478  0.28255799  1.0
  O  O164  1  0.79847662  0.17686985  0.24370531  1.0
  O  O165  1  0.80506433  0.09838531  0.32366582  1.0
  O  O166  1  0.01287899  0.19278459  0.12524082  1.0
  O  O167  1  0.87299225  0.62426573  0.69694266  1.0
  O  O168  1  0.97879486  0.61589198  0.77327198  1.0
  O  O169  1  0.99050236  0.51177587  0.69881976  1.0
  O  O170  1  0.36058102  0.68245079  0.50829555  1.0
  O  O171  1  0.99152781  0.01766700  0.01377094  1.0
