# generated using pymatgen
data_CuH14(C11N6)2
_symmetry_space_group_name_H-M   'P 1'
_cell_length_a   9.00026843
_cell_length_b   15.99382593
_cell_length_c   15.99297635
_cell_angle_alpha   116.56254838
_cell_angle_beta   100.81947000
_cell_angle_gamma   100.79793077
_symmetry_Int_Tables_number   1
_chemical_formula_structural   CuH14(C11N6)2
_chemical_formula_sum   'Cu3 H42 C66 N36'
_cell_volume   1923.71963566
_cell_formula_units_Z   3
loop_
 _symmetry_equiv_pos_site_id
 _symmetry_equiv_pos_as_xyz
  1  'x, y, z'
loop_
 _atom_site_type_symbol
 _atom_site_label
 _atom_site_symmetry_multiplicity
 _atom_site_fract_x
 _atom_site_fract_y
 _atom_site_fract_z
 _atom_site_occupancy
  Cu  Cu0  1  0.50000210  0.50000045  0.50000163  1.0
  Cu  Cu1  1  0.00000059  0.49999586  0.99999909  1.0
  Cu  Cu2  1  0.00000017  0.00000361  0.50000120  1.0
  H  H3  1  0.02134728  0.36645847  0.14209719  1.0
  H  H4  1  0.87923537  0.85791418  0.22443019  1.0
  H  H5  1  0.65485877  0.77563718  0.63358450  1.0
  H  H6  1  0.97865396  0.63353875  0.85790473  1.0
  H  H7  1  0.12076660  0.14208451  0.77556434  1.0
  H  H8  1  0.34514204  0.22436371  0.36641714  1.0
  H  H9  1  0.17292205  0.24938143  0.14888514  1.0
  H  H10  1  0.02402062  0.85110620  0.10059050  1.0
  H  H11  1  0.92346931  0.89949492  0.75059459  1.0
  H  H12  1  0.82707955  0.75061652  0.85111777  1.0
  H  H13  1  0.97598132  0.14889469  0.89940501  1.0
  H  H14  1  0.07653110  0.10050744  0.24940579  1.0
  H  H15  1  0.40561491  0.29365613  0.96376927  1.0
  H  H16  1  0.44171524  0.03637035  0.33000682  1.0
  H  H17  1  0.11201422  0.67011813  0.70632886  1.0
  H  H18  1  0.59438819  0.70634256  0.03623413  1.0
  H  H19  1  0.55828673  0.96362834  0.66999083  1.0
  H  H20  1  0.88799031  0.32988570  0.29367136  1.0
  H  H21  1  0.46868726  0.36073951  0.73297174  1.0
  H  H22  1  0.73595591  0.26689254  0.62780577  1.0
  H  H23  1  0.10828441  0.37222857  0.63918422  1.0
  H  H24  1  0.53131544  0.63926065  0.26703040  1.0
  H  H25  1  0.26404569  0.73310542  0.37219214  1.0
  H  H26  1  0.89172509  0.62777159  0.36081800  1.0
  H  H27  1  0.54165533  0.37631010  0.59542239  1.0
  H  H28  1  0.94626407  0.40450734  0.78090033  1.0
  H  H29  1  0.16548807  0.21911210  0.62375614  1.0
  H  H30  1  0.45835114  0.62369079  0.40458048  1.0
  H  H31  1  0.05374095  0.59548841  0.21909946  1.0
  H  H32  1  0.83451653  0.78088732  0.37624462  1.0
  H  H33  1  0.40265030  0.62656253  0.66817137  1.0
  H  H34  1  0.73451200  0.33187322  0.95843067  1.0
  H  H35  1  0.77613352  0.04167839  0.37358380  1.0
  H  H36  1  0.59735580  0.37343763  0.33183113  1.0
  H  H37  1  0.26548700  0.66812179  0.04156565  1.0
  H  H38  1  0.22386689  0.95832397  0.62641846  1.0
  H  H39  1  0.31917098  0.61887364  0.80592915  1.0
  H  H40  1  0.51328331  0.19413579  0.81300747  1.0
  H  H41  1  0.70042603  0.18711932  0.38121896  1.0
  H  H42  1  0.68083359  0.38112799  0.19407196  1.0
  H  H43  1  0.48671264  0.80586216  0.18698984  1.0
  H  H44  1  0.29957814  0.81288378  0.61878340  1.0
  C  C45  1  0.10733168  0.34927677  0.10191259  1.0
  C  C46  1  0.00538514  0.89815156  0.24745695  1.0
  C  C47  1  0.75803650  0.75263499  0.65077689  1.0
  C  C48  1  0.89266843  0.65072045  0.89808921  1.0
  C  C49  1  0.99461642  0.10184860  0.75253882  1.0
  C  C50  1  0.24196617  0.24736737  0.34922560  1.0
  C  C51  1  0.19135891  0.28513251  0.10565758  1.0
  C  C52  1  0.08566795  0.89438289  0.17956821  1.0
  C  C53  1  0.90620179  0.82052539  0.71487234  1.0
  C  C54  1  0.80864233  0.71486471  0.89434434  1.0
  C  C55  1  0.91433362  0.10561727  0.82042819  1.0
  C  C56  1  0.09380089  0.17947698  0.28512890  1.0
  C  C57  1  0.31867679  0.30838325  0.00345716  1.0
  C  C58  1  0.31510561  0.99666639  0.30502612  1.0
  C  C59  1  0.01033944  0.69509436  0.69165411  1.0
  C  C60  1  0.68132557  0.69161397  0.99654425  1.0
  C  C61  1  0.68489635  0.00333230  0.69497090  1.0
  C  C62  1  0.98966436  0.30490800  0.30834663  1.0
  C  C63  1  0.23401522  0.37242156  0.99842034  1.0
  C  C64  1  0.23551349  0.00172629  0.37409199  1.0
  C  C65  1  0.86165668  0.62602977  0.62769836  1.0
  C  C66  1  0.76598678  0.62757492  0.00157945  1.0
  C  C67  1  0.76448544  0.99827313  0.62590442  1.0
  C  C68  1  0.13834676  0.37397186  0.37230326  1.0
  C  C69  1  0.25411449  0.42060567  0.94095659  1.0
  C  C70  1  0.31313069  0.05915766  0.47972753  1.0
  C  C71  1  0.83364539  0.52039857  0.57951345  1.0
  C  C72  1  0.74588714  0.57939008  0.05904158  1.0
  C  C73  1  0.68686788  0.94084102  0.52026851  1.0
  C  C74  1  0.16636068  0.47960380  0.42048941  1.0
  C  C75  1  0.32005472  0.47372001  0.85027438  1.0
  C  C76  1  0.46991744  0.14969134  0.62348429  1.0
  C  C77  1  0.84664035  0.37662736  0.52628963  1.0
  C  C78  1  0.67994652  0.52627721  0.14972566  1.0
  C  C79  1  0.53008113  0.85030735  0.37651238  1.0
  C  C80  1  0.15336835  0.62337574  0.47371321  1.0
  C  C81  1  0.38382804  0.48722988  0.77864704  1.0
  C  C82  1  0.60536161  0.22127314  0.70862411  1.0
  C  C83  1  0.89687668  0.29146816  0.51276346  1.0
  C  C84  1  0.61617430  0.51276954  0.22135473  1.0
  C  C85  1  0.39463623  0.77872407  0.29137308  1.0
  C  C86  1  0.10313202  0.70853493  0.48723938  1.0
  C  C87  1  0.45275297  0.42045237  0.72045246  1.0
  C  C88  1  0.73249820  0.27942271  0.70002258  1.0
  C  C89  1  0.03258668  0.30001913  0.57952106  1.0
  C  C90  1  0.54724937  0.57954705  0.27955056  1.0
  C  C91  1  0.26750266  0.72057377  0.29997397  1.0
  C  C92  1  0.96742016  0.69998250  0.42048155  1.0
  C  C93  1  0.49354807  0.42910416  0.64457378  1.0
  C  C94  1  0.84909970  0.35533838  0.78456572  1.0
  C  C95  1  0.06462014  0.21547125  0.57093096  1.0
  C  C96  1  0.50645653  0.57089526  0.35542698  1.0
  C  C97  1  0.15090306  0.64465737  0.21543320  1.0
  C  C98  1  0.93538406  0.78452965  0.42906979  1.0
  C  C99  1  0.41475358  0.56870944  0.68491328  1.0
  C  C100  1  0.72992624  0.31507268  0.88384779  1.0
  C  C101  1  0.84614719  0.11625330  0.43138797  1.0
  C  C102  1  0.58525175  0.43129145  0.31508821  1.0
  C  C103  1  0.27007276  0.68492233  0.11614978  1.0
  C  C104  1  0.15385662  0.88374907  0.56861402  1.0
  C  C105  1  0.36871827  0.56420466  0.76101973  1.0
  C  C106  1  0.60781521  0.23895607  0.80322400  1.0
  C  C107  1  0.80469435  0.19688220  0.43585413  1.0
  C  C108  1  0.63128520  0.43579476  0.23898404  1.0
  C  C109  1  0.39218340  0.76104041  0.19677231  1.0
  C  C110  1  0.19531209  0.80312090  0.56414847  1.0
  N  N111  1  0.12780487  0.39246170  0.04836330  1.0
  N  N112  1  0.07935636  0.95174728  0.34418713  1.0
  N  N113  1  0.73535168  0.65592080  0.60765531  1.0
  N  N114  1  0.87219336  0.60753405  0.95163640  1.0
  N  N115  1  0.92064221  0.04825141  0.65580829  1.0
  N  N116  1  0.26465063  0.34408083  0.39234744  1.0
  N  N117  1  0.29727649  0.26454352  0.05634390  1.0
  N  N118  1  0.24085785  0.94374906  0.20830517  1.0
  N  N119  1  0.03274750  0.79180785  0.73545154  1.0
  N  N120  1  0.70272738  0.73545443  0.94365925  1.0
  N  N121  1  0.75914485  0.05625110  0.79169197  1.0
  N  N122  1  0.96725667  0.20819525  0.26454832  1.0
  N  N123  1  0.17248877  0.48425594  0.94190810  1.0
  N  N124  1  0.23065106  0.05816606  0.54244605  1.0
  N  N125  1  0.68841716  0.45772327  0.51585495  1.0
  N  N126  1  0.82751024  0.51573907  0.05809072  1.0
  N  N127  1  0.76934978  0.94183263  0.45755023  1.0
  N  N128  1  0.31158967  0.54227836  0.48414891  1.0
  N  N129  1  0.21383746  0.51919534  0.88477356  1.0
  N  N130  1  0.32924877  0.11521878  0.63450131  1.0
  N  N131  1  0.69494250  0.36566615  0.48084384  1.0
  N  N132  1  0.78616267  0.48079967  0.11522601  1.0
  N  N133  1  0.67075093  0.88477991  0.36549485  1.0
  N  N134  1  0.30506470  0.63433622  0.51915976  1.0
  N  N135  1  0.34807715  0.41135415  0.88312515  1.0
  N  N136  1  0.46494421  0.11691099  0.52825556  1.0
  N  N137  1  0.93694269  0.47183428  0.58871609  1.0
  N  N138  1  0.65192558  0.58864381  0.11687476  1.0
  N  N139  1  0.53505360  0.88308843  0.47174199  1.0
  N  N140  1  0.06306375  0.52816882  0.41128651  1.0
  N  N141  1  0.47275984  0.50107863  0.62590607  1.0
  N  N142  1  0.84693509  0.37403286  0.87518999  1.0
  N  N143  1  0.97178316  0.12485810  0.49901988  1.0
  N  N144  1  0.52724662  0.49892226  0.37409742  1.0
  N  N145  1  0.15306544  0.62596068  0.12480645  1.0
  N  N146  1  0.02822065  0.87514426  0.50098211  1.0
