# generated using pymatgen
data_InH12C22O5
_symmetry_space_group_name_H-M   'P 1'
_cell_length_a   14.16323078
_cell_length_b   16.04331560
_cell_length_c   31.20123865
_cell_angle_alpha   89.96338061
_cell_angle_beta   89.02846301
_cell_angle_gamma   89.08047973
_symmetry_Int_Tables_number   1
_chemical_formula_structural   InH12C22O5
_chemical_formula_sum   'In8 H96 C176 O40'
_cell_volume   7087.77456815
_cell_formula_units_Z   8
loop_
 _symmetry_equiv_pos_site_id
 _symmetry_equiv_pos_as_xyz
  1  'x, y, z'
loop_
 _atom_site_type_symbol
 _atom_site_label
 _atom_site_symmetry_multiplicity
 _atom_site_fract_x
 _atom_site_fract_y
 _atom_site_fract_z
 _atom_site_occupancy
  In  In0  1  0.86860597  0.99884926  0.25073700  1.0
  In  In1  1  0.62697457  0.00463182  0.75114719  1.0
  In  In2  1  0.87614177  0.00095974  0.75028957  1.0
  In  In3  1  0.61861062  0.99611464  0.24984165  1.0
  In  In4  1  0.36946524  0.99780198  0.25110022  1.0
  In  In5  1  0.12521783  0.99539406  0.74927854  1.0
  In  In6  1  0.37592441  0.99836126  0.74857174  1.0
  In  In7  1  0.11956789  0.00032744  0.24808036  1.0
  H  H8  1  0.73646378  0.04667010  0.30681388  1.0
  H  H9  1  0.76146662  0.71312349  0.04099928  1.0
  H  H10  1  0.73883138  0.50087143  0.14905960  1.0
  H  H11  1  0.75359210  0.95578411  0.69417266  1.0
  H  H12  1  0.76573864  0.71362346  0.96254701  1.0
  H  H13  1  0.75400151  0.50282501  0.85363636  1.0
  H  H14  1  0.73077891  0.29041636  0.96188575  1.0
  H  H15  1  0.72694573  0.29024849  0.04039903  1.0
  H  H16  1  0.99917956  0.04842113  0.80574799  1.0
  H  H17  1  0.01280415  0.71120427  0.53867519  1.0
  H  H18  1  0.00275120  0.49832146  0.64673525  1.0
  H  H19  1  0.99045761  0.05137864  0.19303434  1.0
  H  H20  1  0.01081111  0.71208734  0.46022008  1.0
  H  H21  1  0.99093025  0.50175662  0.35149450  1.0
  H  H22  1  0.97675614  0.28891627  0.45965779  1.0
  H  H23  1  0.98072245  0.28792984  0.53804274  1.0
  H  H24  1  0.87016755  0.71073435  0.41062741  1.0
  H  H25  1  0.87344950  0.83625441  0.36318024  1.0
  H  H26  1  0.62555549  0.61323069  0.34670107  1.0
  H  H27  1  0.62596210  0.74074811  0.30064985  1.0
  H  H28  1  0.88588052  0.74769810  0.19274632  1.0
  H  H29  1  0.62039557  0.83243476  0.14287106  1.0
  H  H30  1  0.61531011  0.70663898  0.09555129  1.0
  H  H31  1  0.87890695  0.61926391  0.14738558  1.0
  H  H32  1  0.87730738  0.17835641  0.14303637  1.0
  H  H33  1  0.87742794  0.30570167  0.09693672  1.0
  H  H34  1  0.59884127  0.37120992  0.14441573  1.0
  H  H35  1  0.59776176  0.24173461  0.18899913  1.0
  H  H36  1  0.62655851  0.16757448  0.35961058  1.0
  H  H37  1  0.86180246  0.38445438  0.34922737  1.0
  H  H38  1  0.85748267  0.25571753  0.30433696  1.0
  H  H39  1  0.62990850  0.29455307  0.40568360  1.0
  H  H40  1  0.65191979  0.75555077  0.68877242  1.0
  H  H41  1  0.86770587  0.82549600  0.64173293  1.0
  H  H42  1  0.64900876  0.62667982  0.64389268  1.0
  H  H43  1  0.86733674  0.69996407  0.59452072  1.0
  H  H44  1  0.87222276  0.37942198  0.65081520  1.0
  H  H45  1  0.87194999  0.25082559  0.69597391  1.0
  H  H46  1  0.63527903  0.17722839  0.64645697  1.0
  H  H47  1  0.64225681  0.30263444  0.59886394  1.0
  H  H48  1  0.87393858  0.16762068  0.86491560  1.0
  H  H49  1  0.87432699  0.29356824  0.91172110  1.0
  H  H50  1  0.62182409  0.25794499  0.80467533  1.0
  H  H51  1  0.62439784  0.38656415  0.84973685  1.0
  H  H52  1  0.62376657  0.83497686  0.86608222  1.0
  H  H53  1  0.88143403  0.75029057  0.80464821  1.0
  H  H54  1  0.88045827  0.62167364  0.84979167  1.0
  H  H55  1  0.62466366  0.70887360  0.91287692  1.0
  H  H56  1  0.24003486  0.94786888  0.30531706  1.0
  H  H57  1  0.27268429  0.71098106  0.03649689  1.0
  H  H58  1  0.25582540  0.50184782  0.14658829  1.0
  H  H59  1  0.24813517  0.04375305  0.69178178  1.0
  H  H60  1  0.27150173  0.70899625  0.95809284  1.0
  H  H61  1  0.24869787  0.49475084  0.85129354  1.0
  H  H62  1  0.23912716  0.28575514  0.96133390  1.0
  H  H63  1  0.24194924  0.28765904  0.03976386  1.0
  H  H64  1  0.50103152  0.95038904  0.80575371  1.0
  H  H65  1  0.52356768  0.71245808  0.53697885  1.0
  H  H66  1  0.51215816  0.50452634  0.64778633  1.0
  H  H67  1  0.49274733  0.05156918  0.19510712  1.0
  H  H68  1  0.51812462  0.70979611  0.45861510  1.0
  H  H69  1  0.49306501  0.49426284  0.35267772  1.0
  H  H70  1  0.48999306  0.28625162  0.46329404  1.0
  H  H71  1  0.49469807  0.28900224  0.54178122  1.0
  H  H72  1  0.37171043  0.70248323  0.41057215  1.0
  H  H73  1  0.37008707  0.82750847  0.36288015  1.0
  H  H74  1  0.12249368  0.61588608  0.34756901  1.0
  H  H75  1  0.12823330  0.74398117  0.30206867  1.0
  H  H76  1  0.38442530  0.74796437  0.19388718  1.0
  H  H77  1  0.12707675  0.83272545  0.13617060  1.0
  H  H78  1  0.12923754  0.70726985  0.08868977  1.0
  H  H79  1  0.38436695  0.61990277  0.14840438  1.0
  H  H80  1  0.38236743  0.17173763  0.14073659  1.0
  H  H81  1  0.38736755  0.29732196  0.09356595  1.0
  H  H82  1  0.11879983  0.38001992  0.14613041  1.0
  H  H83  1  0.11215477  0.25180676  0.19154687  1.0
  H  H84  1  0.11561906  0.16800128  0.36027490  1.0
  H  H85  1  0.35822772  0.37114622  0.35822620  1.0
  H  H86  1  0.35363452  0.24172427  0.31369803  1.0
  H  H87  1  0.11734272  0.29393217  0.40740085  1.0
  H  H88  1  0.13821373  0.75057692  0.69005097  1.0
  H  H89  1  0.38238366  0.83196315  0.63994750  1.0
  H  H90  1  0.13660537  0.62261658  0.64439415  1.0
  H  H91  1  0.38115224  0.70551718  0.59313473  1.0
  H  H92  1  0.36518549  0.37905693  0.64397403  1.0
  H  H93  1  0.35660382  0.25094833  0.68948538  1.0
  H  H94  1  0.12883624  0.16627802  0.63385342  1.0
  H  H95  1  0.12724634  0.29238567  0.58706678  1.0
  H  H96  1  0.37289127  0.16252381  0.85974913  1.0
  H  H97  1  0.37758210  0.28870228  0.90658069  1.0
  H  H98  1  0.11032846  0.24896993  0.80757962  1.0
  H  H99  1  0.11681563  0.37742730  0.85245939  1.0
  H  H100  1  0.13112979  0.83052752  0.86164229  1.0
  H  H101  1  0.38332475  0.73672772  0.79889467  1.0
  H  H102  1  0.37856180  0.60909910  0.84470480  1.0
  H  H103  1  0.12938814  0.70585200  0.90963879  1.0
  C  C104  1  0.75594712  0.87203505  0.19840321  1.0
  C  C105  1  0.75520325  0.65476161  0.02350631  1.0
  C  C106  1  0.74430582  0.50182391  0.02419340  1.0
  C  C107  1  0.74334737  0.57748644  0.09264346  1.0
  C  C108  1  0.74612950  0.57891683  0.04725495  1.0
  C  C109  1  0.74026923  0.50105710  0.11407932  1.0
  C  C110  1  0.82668927  0.73739148  0.17161653  1.0
  C  C111  1  0.82246535  0.66624922  0.14632667  1.0
  C  C112  1  0.67451837  0.71558855  0.11690361  1.0
  C  C113  1  0.67716050  0.78573968  0.14301465  1.0
  C  C114  1  0.75311251  0.87509887  0.80416617  1.0
  C  C115  1  0.75743993  0.65501145  0.97974972  1.0
  C  C116  1  0.74695990  0.50198691  0.97833091  1.0
  C  C117  1  0.75166258  0.57892075  0.91020410  1.0
  C  C118  1  0.75079392  0.57955213  0.95563290  1.0
  C  C119  1  0.75217022  0.50260202  0.88860742  1.0
  C  C120  1  0.74670747  0.13018400  0.80384236  1.0
  C  C121  1  0.73685315  0.34891319  0.97924483  1.0
  C  C122  1  0.74992131  0.42598910  0.90992786  1.0
  C  C123  1  0.74583171  0.42466834  0.95536905  1.0
  C  C124  1  0.74779452  0.20533870  0.83198469  1.0
  C  C125  1  0.74925744  0.34880586  0.88392125  1.0
  C  C126  1  0.75243844  0.79997704  0.83243869  1.0
  C  C127  1  0.82505284  0.73992951  0.82816361  1.0
  C  C128  1  0.82425783  0.66854345  0.85345934  1.0
  C  C129  1  0.75259187  0.65648593  0.88446895  1.0
  C  C130  1  0.68101155  0.71782831  0.88913415  1.0
  C  C131  1  0.68019450  0.78823774  0.86302334  1.0
  C  C132  1  0.73666166  0.12686275  0.19680634  1.0
  C  C133  1  0.73451747  0.34876079  0.02301270  1.0
  C  C134  1  0.73962455  0.42505336  0.09233441  1.0
  C  C135  1  0.74052594  0.42440262  0.04696723  1.0
  C  C136  1  0.73741483  0.20241464  0.16875612  1.0
  C  C137  1  0.65882214  0.25667312  0.16887043  1.0
  C  C138  1  0.65971610  0.32865196  0.14397467  1.0
  C  C139  1  0.73816935  0.34696477  0.11772564  1.0
  C  C140  1  0.81611855  0.29158836  0.11716020  1.0
  C  C141  1  0.81623508  0.22054235  0.14279319  1.0
  C  C142  1  0.75352069  0.79713154  0.17032559  1.0
  C  C143  1  0.74671904  0.65460612  0.11854203  1.0
  C  C144  1  0.67728144  0.26702419  0.82793923  1.0
  C  C145  1  0.67896952  0.33839548  0.85318098  1.0
  C  C146  1  0.81893024  0.28598495  0.88822794  1.0
  C  C147  1  0.81901733  0.21561316  0.86213119  1.0
  C  C148  1  0.00368584  0.87014706  0.69719604  1.0
  C  C149  1  0.00582466  0.65284310  0.52125135  1.0
  C  C150  1  0.99675398  0.49968976  0.52202357  1.0
  C  C151  1  0.00045987  0.57528557  0.59045994  1.0
  C  C152  1  0.99972105  0.57682048  0.54505764  1.0
  C  C153  1  0.00107302  0.49866992  0.61178686  1.0
  C  C154  1  0.00301013  0.79539172  0.66874438  1.0
  C  C155  1  0.59275533  0.74358102  0.66786522  1.0
  C  C156  1  0.59071155  0.67186947  0.64285447  1.0
  C  C157  1  0.51473709  0.65729522  0.61559291  1.0
  C  C158  1  0.92677528  0.71098768  0.61547786  1.0
  C  C159  1  0.92675599  0.78107826  0.64176043  1.0
  C  C160  1  0.00402628  0.87279474  0.30196382  1.0
  C  C161  1  0.00451185  0.65335950  0.47750308  1.0
  C  C162  1  0.99480569  0.50025341  0.47617530  1.0
  C  C163  1  0.99390124  0.57742503  0.40810282  1.0
  C  C164  1  0.99638149  0.57794805  0.45349444  1.0
  C  C165  1  0.99186053  0.50127924  0.38645302  1.0
  C  C166  1  0.99628606  0.65480862  0.38227674  1.0
  C  C167  1  0.98316676  0.12803204  0.30243006  1.0
  C  C168  1  0.98484633  0.34719748  0.47701182  1.0
  C  C169  1  0.99129332  0.42460339  0.40771155  1.0
  C  C170  1  0.99156758  0.42311446  0.45314453  1.0
  C  C171  1  0.00152596  0.79777596  0.33016470  1.0
  C  C172  1  0.57001395  0.73102657  0.32445661  1.0
  C  C173  1  0.56947378  0.66023862  0.35021556  1.0
  C  C174  1  0.92684195  0.71797855  0.38686399  1.0
  C  C175  1  0.92851157  0.78815524  0.36060680  1.0
  C  C176  1  0.99944311  0.12578054  0.69607155  1.0
  C  C177  1  0.98697227  0.34665963  0.52074986  1.0
  C  C178  1  0.99947212  0.42245375  0.59010911  1.0
  C  C179  1  0.99581239  0.42203200  0.54473524  1.0
  C  C180  1  0.49522859  0.20647095  0.67043642  1.0
  C  C181  1  0.92806608  0.26125753  0.67234219  1.0
  C  C182  1  0.92848907  0.33263617  0.64704380  1.0
  C  C183  1  0.99971305  0.34479105  0.61583778  1.0
  C  C184  1  0.57973917  0.29148366  0.61884397  1.0
  C  C185  1  0.57599824  0.22131885  0.64509004  1.0
  C  C186  1  0.48992345  0.19725744  0.33382396  1.0
  C  C187  1  0.91437630  0.26516228  0.32683390  1.0
  C  C188  1  0.91706755  0.33669377  0.35193604  1.0
  C  C189  1  0.98936218  0.34758514  0.38164480  1.0
  C  C190  1  0.56929246  0.28300823  0.38552199  1.0
  C  C191  1  0.56762715  0.21209869  0.35987381  1.0
  C  C192  1  0.25539608  0.87282222  0.19612954  1.0
  C  C193  1  0.26527205  0.65203863  0.01964926  1.0
  C  C194  1  0.25587349  0.49906438  0.02181901  1.0
  C  C195  1  0.25678130  0.57718190  0.08966855  1.0
  C  C196  1  0.25798871  0.57701182  0.04421139  1.0
  C  C197  1  0.25631130  0.50114506  0.11161677  1.0
  C  C198  1  0.32842574  0.73782530  0.17101686  1.0
  C  C199  1  0.32816232  0.66676177  0.14550793  1.0
  C  C200  1  0.18529358  0.71610416  0.11173039  1.0
  C  C201  1  0.18383912  0.78620798  0.13807817  1.0
  C  C202  1  0.26063390  0.86697950  0.79991245  1.0
  C  C203  1  0.26456415  0.65090122  0.97588481  1.0
  C  C204  1  0.25467017  0.49787110  0.97593850  1.0
  C  C205  1  0.25294020  0.57255111  0.90711747  1.0
  C  C206  1  0.25605809  0.57472553  0.95251582  1.0
  C  C207  1  0.25061555  0.49555518  0.88623486  1.0
  C  C208  1  0.23789294  0.12247401  0.80330410  1.0
  C  C209  1  0.24594054  0.34474480  0.97818919  1.0
  C  C210  1  0.25064847  0.41964085  0.90821004  1.0
  C  C211  1  0.25173021  0.41987034  0.95364044  1.0
  C  C212  1  0.24086970  0.19785960  0.83128446  1.0
  C  C213  1  0.24724894  0.34170539  0.88280494  1.0
  C  C214  1  0.25804961  0.79148328  0.82785295  1.0
  C  C215  1  0.32769218  0.72894939  0.82306140  1.0
  C  C216  1  0.32479546  0.65804353  0.84870052  1.0
  C  C217  1  0.25428211  0.64908609  0.88057072  1.0
  C  C218  1  0.18511790  0.71249370  0.88536379  1.0
  C  C219  1  0.18595605  0.78226475  0.85880114  1.0
  C  C220  1  0.24268984  0.12891412  0.19696970  1.0
  C  C221  1  0.24743788  0.34584211  0.02192404  1.0
  C  C222  1  0.25589251  0.42434072  0.09057753  1.0
  C  C223  1  0.25450459  0.42221551  0.04520147  1.0
  C  C224  1  0.24672780  0.20412836  0.16884922  1.0
  C  C225  1  0.17236333  0.26282417  0.17019255  1.0
  C  C226  1  0.17639187  0.33407528  0.14485154  1.0
  C  C227  1  0.25332451  0.34726303  0.11677119  1.0
  C  C228  1  0.32709247  0.28754837  0.11513147  1.0
  C  C229  1  0.32447729  0.21733101  0.14136145  1.0
  C  C230  1  0.25573628  0.79776396  0.16776143  1.0
  C  C231  1  0.25701609  0.65490939  0.11530253  1.0
  C  C232  1  0.16867554  0.25849843  0.82929903  1.0
  C  C233  1  0.17266207  0.33002131  0.85435526  1.0
  C  C234  1  0.31873011  0.27996705  0.88501281  1.0
  C  C235  1  0.31636303  0.20942400  0.85908416  1.0
  C  C236  1  0.51828573  0.87675596  0.69496915  1.0
  C  C237  1  0.51594817  0.65330103  0.52035272  1.0
  C  C238  1  0.50686170  0.50029273  0.52306435  1.0
  C  C239  1  0.51205067  0.57894091  0.59053424  1.0
  C  C240  1  0.51050403  0.57841245  0.54515134  1.0
  C  C241  1  0.51118769  0.50330447  0.61283746  1.0
  C  C242  1  0.51752352  0.80137191  0.66690236  1.0
  C  C243  1  0.07897857  0.73829315  0.66924859  1.0
  C  C244  1  0.07773031  0.66726008  0.64371817  1.0
  C  C245  1  0.00188529  0.65263259  0.61638996  1.0
  C  C246  1  0.44049035  0.71645684  0.61415066  1.0
  C  C247  1  0.44106912  0.78716084  0.63999326  1.0
  C  C248  1  0.49804939  0.86675840  0.30092128  1.0
  C  C249  1  0.51282440  0.65183157  0.47664700  1.0
  C  C250  1  0.50371935  0.49870980  0.47725153  1.0
  C  C251  1  0.49908044  0.57266074  0.40828558  1.0
  C  C252  1  0.50397258  0.57530628  0.45359932  1.0
  C  C253  1  0.49624943  0.49552179  0.38758533  1.0
  C  C254  1  0.49863543  0.64917528  0.38170958  1.0
  C  C255  1  0.48781729  0.12220681  0.30558120  1.0
  C  C256  1  0.49620617  0.34547733  0.47999412  1.0
  C  C257  1  0.49747420  0.41995198  0.40987004  1.0
  C  C258  1  0.50025831  0.42050748  0.45523789  1.0
  C  C259  1  0.49779938  0.79136515  0.32889813  1.0
  C  C260  1  0.07180201  0.73570047  0.32580185  1.0
  C  C261  1  0.06826523  0.66451829  0.35117954  1.0
  C  C262  1  0.42728011  0.71062446  0.38636023  1.0
  C  C263  1  0.42610364  0.78039109  0.35983925  1.0
  C  C264  1  0.49098538  0.13120097  0.69849917  1.0
  C  C265  1  0.49872228  0.34701398  0.52371076  1.0
  C  C266  1  0.50812318  0.42633548  0.59204274  1.0
  C  C267  1  0.50576199  0.42372895  0.54671102  1.0
  C  C268  1  0.00053479  0.20113890  0.66786729  1.0
  C  C269  1  0.41902969  0.26324447  0.66970043  1.0
  C  C270  1  0.42415137  0.33449545  0.64434002  1.0
  C  C271  1  0.50418694  0.34936258  0.61840300  1.0
  C  C272  1  0.07125948  0.28349519  0.61100778  1.0
  C  C273  1  0.07243368  0.21300657  0.63712332  1.0
  C  C274  1  0.98586961  0.20411552  0.32991156  1.0
  C  C275  1  0.41404454  0.25447255  0.33372159  1.0
  C  C276  1  0.41690065  0.32626549  0.35861085  1.0
  C  C277  1  0.49437322  0.34155232  0.38487666  1.0
  C  C278  1  0.06031586  0.28559536  0.38479708  1.0
  C  C279  1  0.05955538  0.21523509  0.35871212  1.0
  O  O280  1  0.74151683  0.99825398  0.28803633  1.0
  O  O281  1  0.83104552  0.88324525  0.21965947  1.0
  O  O282  1  0.75236317  0.00468750  0.71270572  1.0
  O  O283  1  0.67827870  0.92064843  0.80304157  1.0
  O  O284  1  0.82182485  0.08520691  0.80135577  1.0
  O  O285  1  0.82933649  0.88776336  0.78295004  1.0
  O  O286  1  0.65819577  0.11073440  0.21566575  1.0
  O  O287  1  0.68299450  0.91959778  0.19919761  1.0
  O  O288  1  0.81333865  0.08473035  0.20008650  1.0
  O  O289  1  0.67022660  0.11685422  0.78409403  1.0
  O  O290  1  0.99997705  0.99853319  0.78790924  1.0
  O  O291  1  0.59535047  0.89127894  0.71432705  1.0
  O  O292  1  0.99391827  0.00297711  0.21182017  1.0
  O  O293  1  0.93017488  0.91880274  0.30064802  1.0
  O  O294  1  0.56285443  0.07711560  0.30255874  1.0
  O  O295  1  0.57325179  0.87977111  0.27895851  1.0
  O  O296  1  0.92316805  0.11387983  0.71743326  1.0
  O  O297  1  0.92876471  0.91541697  0.69949321  1.0
  O  O298  1  0.56720936  0.08957293  0.70326771  1.0
  O  O299  1  0.90384224  0.11275333  0.28512839  1.0
  O  O300  1  0.24108392  0.99771057  0.28745328  1.0
  O  O301  1  0.33027575  0.88441436  0.21750843  1.0
  O  O302  1  0.25136239  0.99654941  0.71138638  1.0
  O  O303  1  0.18540343  0.91099215  0.79755720  1.0
  O  O304  1  0.31219463  0.07709366  0.80026739  1.0
  O  O305  1  0.33900654  0.88176634  0.78046713  1.0
  O  O306  1  0.16279215  0.11351052  0.21473316  1.0
  O  O307  1  0.18156307  0.91938916  0.19696330  1.0
  O  O308  1  0.31831371  0.08591814  0.20139908  1.0
  O  O309  1  0.15992745  0.10937846  0.78434368  1.0
  O  O310  1  0.49856259  0.99907555  0.78710169  1.0
  O  O311  1  0.07970024  0.88302900  0.71735635  1.0
  O  O312  1  0.49468514  0.00118642  0.21252700  1.0
  O  O313  1  0.42361471  0.91280503  0.30089056  1.0
  O  O314  1  0.05860248  0.08449797  0.29837391  1.0
  O  O315  1  0.08110845  0.88533806  0.28101694  1.0
  O  O316  1  0.41068827  0.11421888  0.71560218  1.0
  O  O317  1  0.44279036  0.92070959  0.69760192  1.0
  O  O318  1  0.07352507  0.07933128  0.69698742  1.0
  O  O319  1  0.41068245  0.10920689  0.28631422  1.0
