# generated using pymatgen
data_CuH2(C3O2)2
_symmetry_space_group_name_H-M   'P 1'
_cell_length_a   18.71679002
_cell_length_b   18.71683659
_cell_length_c   18.71893229
_cell_angle_alpha   119.98120558
_cell_angle_beta   119.98162344
_cell_angle_gamma   90.01953662
_symmetry_Int_Tables_number   1
_chemical_formula_structural   CuH2(C3O2)2
_chemical_formula_sum   'Cu12 H24 C72 O48'
_cell_volume   4638.73725379
_cell_formula_units_Z   12
loop_
 _symmetry_equiv_pos_site_id
 _symmetry_equiv_pos_as_xyz
  1  'x, y, z'
loop_
 _atom_site_type_symbol
 _atom_site_label
 _atom_site_symmetry_multiplicity
 _atom_site_fract_x
 _atom_site_fract_y
 _atom_site_fract_z
 _atom_site_occupancy
  Cu  Cu0  1  0.43437784  0.43437636  0.43439099  1.0
  Cu  Cu1  1  0.99999052  0.99998708  0.56562437  1.0
  Cu  Cu2  1  0.56561115  0.56560892  0.56559900  1.0
  Cu  Cu3  1  0.00000766  0.00001046  0.43434911  1.0
  Cu  Cu4  1  0.43437418  0.00000261  0.43437814  1.0
  Cu  Cu5  1  0.00000221  0.43434731  0.43435597  1.0
  Cu  Cu6  1  0.99998921  0.43431691  0.99999184  1.0
  Cu  Cu7  1  0.43435597  0.99998960  0.99999260  1.0
  Cu  Cu8  1  0.99999469  0.56560502  0.56559631  1.0
  Cu  Cu9  1  0.56564440  0.00000711  0.00000427  1.0
  Cu  Cu10  1  0.56561180  0.99999813  0.56560659  1.0
  Cu  Cu11  1  0.00000624  0.56562479  0.00000272  1.0
  H  H12  1  0.49629287  0.73382948  0.76235566  1.0
  H  H13  1  0.02853958  0.26616571  0.53222810  1.0
  H  H14  1  0.26616903  0.50370719  0.23763971  1.0
  H  H15  1  0.73384014  0.97145853  0.46777933  1.0
  H  H16  1  0.73381706  0.26607278  0.76234497  1.0
  H  H17  1  0.26611107  0.02850445  0.76238306  1.0
  H  H18  1  0.02853947  0.49634136  0.76237878  1.0
  H  H19  1  0.73383317  0.49629860  0.76235836  1.0
  H  H20  1  0.97149473  0.73389058  0.23761749  1.0
  H  H21  1  0.73388982  0.97149138  0.23761835  1.0
  H  H22  1  0.49633782  0.02853869  0.76238125  1.0
  H  H23  1  0.49634409  0.73389461  0.46778017  1.0
  H  H24  1  0.26610253  0.50365908  0.53222268  1.0
  H  H25  1  0.26606529  0.73381184  0.76234254  1.0
  H  H26  1  0.26616622  0.02853835  0.53222577  1.0
  H  H27  1  0.97146058  0.50366859  0.23762208  1.0
  H  H28  1  0.26618910  0.73393689  0.23765836  1.0
  H  H29  1  0.97145928  0.73383422  0.46777633  1.0
  H  H30  1  0.73390001  0.49634649  0.46778298  1.0
  H  H31  1  0.50366166  0.26610228  0.53222253  1.0
  H  H32  1  0.73393268  0.26618833  0.23766034  1.0
  H  H33  1  0.50366705  0.97145998  0.23762391  1.0
  H  H34  1  0.02850734  0.26611174  0.76238065  1.0
  H  H35  1  0.50370778  0.26617037  0.23764184  1.0
  C  C36  1  0.38638189  0.61356989  0.64338654  1.0
  C  C37  1  0.02979244  0.25702384  0.64338936  1.0
  C  C38  1  0.38642595  0.61361463  0.35660893  1.0
  C  C39  1  0.74298004  0.97020521  0.35661681  1.0
  C  C40  1  0.61357061  0.25700691  0.64338609  1.0
  C  C41  1  0.25702189  0.02979060  0.64338944  1.0
  C  C42  1  0.02980195  0.38642484  0.64340074  1.0
  C  C43  1  0.74295198  0.38639281  0.77276083  1.0
  C  C44  1  0.97020895  0.74298143  0.35661630  1.0
  C  C45  1  0.61358833  0.97020725  0.22722622  1.0
  C  C46  1  0.38641779  0.02978980  0.77277623  1.0
  C  C47  1  0.38643560  0.74299625  0.35661653  1.0
  C  C48  1  0.25700479  0.61356992  0.64339006  1.0
  C  C49  1  0.38638707  0.74295159  0.77275898  1.0
  C  C50  1  0.38641989  0.02979993  0.64339587  1.0
  C  C51  1  0.97020686  0.61359092  0.22722692  1.0
  C  C52  1  0.25704937  0.61361927  0.22723857  1.0
  C  C53  1  0.97019917  0.61358494  0.35660708  1.0
  C  C54  1  0.61361504  0.38642902  0.35661250  1.0
  C  C55  1  0.61357370  0.38638593  0.64338888  1.0
  C  C56  1  0.74299538  0.38644133  0.35662258  1.0
  C  C57  1  0.61358162  0.97019780  0.35660568  1.0
  C  C58  1  0.02979402  0.38642056  0.77277605  1.0
  C  C59  1  0.61361784  0.25705060  0.22724197  1.0
  C  C60  1  0.43056557  0.56940056  0.59354391  1.0
  C  C61  1  0.02417442  0.16300480  0.59357677  1.0
  C  C62  1  0.43059330  0.56943082  0.40645374  1.0
  C  C63  1  0.83699811  0.97582221  0.40642881  1.0
  C  C64  1  0.56939982  0.16297417  0.59352838  1.0
  C  C65  1  0.16300312  0.02417657  0.59357821  1.0
  C  C66  1  0.02412834  0.43060036  0.59354649  1.0
  C  C67  1  0.83696121  0.43058049  0.86114533  1.0
  C  C68  1  0.97582224  0.83699506  0.40642230  1.0
  C  C69  1  0.56939262  0.97581220  0.13881772  1.0
  C  C70  1  0.43061590  0.02418554  0.86118320  1.0
  C  C71  1  0.43059999  0.83702726  0.40646872  1.0
  C  C72  1  0.16297313  0.56940403  0.59353492  1.0
  C  C73  1  0.43058478  0.83696284  0.86114741  1.0
  C  C74  1  0.43059882  0.02413308  0.59354268  1.0
  C  C75  1  0.97581152  0.56938815  0.13882157  1.0
  C  C76  1  0.16303804  0.56942134  0.13885462  1.0
  C  C77  1  0.97586870  0.56940097  0.40645319  1.0
  C  C78  1  0.56943208  0.43059494  0.40645543  1.0
  C  C79  1  0.56940118  0.43056397  0.59354235  1.0
  C  C80  1  0.83702572  0.43060179  0.40647270  1.0
  C  C81  1  0.56940004  0.97586798  0.40645615  1.0
  C  C82  1  0.02418230  0.43060546  0.86117344  1.0
  C  C83  1  0.56942452  0.16303700  0.13884910  1.0
  C  C84  1  0.42965959  0.69983086  0.72975638  1.0
  C  C85  1  0.02992597  0.30015519  0.60023902  1.0
  C  C86  1  0.30016654  0.57034200  0.27023808  1.0
  C  C87  1  0.69984949  0.97007277  0.39976846  1.0
  C  C88  1  0.69982737  0.30010929  0.72975520  1.0
  C  C89  1  0.30013505  0.02989125  0.72976314  1.0
  C  C90  1  0.02992590  0.42970789  0.72978193  1.0
  C  C91  1  0.69983249  0.42966319  0.72975808  1.0
  C  C92  1  0.97010725  0.69987138  0.27024190  1.0
  C  C93  1  0.69987004  0.97010450  0.27024234  1.0
  C  C94  1  0.42970427  0.02992245  0.72977914  1.0
  C  C95  1  0.42972617  0.69988444  0.39976667  1.0
  C  C96  1  0.30011304  0.57027573  0.60023572  1.0
  C  C97  1  0.30010676  0.69982695  0.72975694  1.0
  C  C98  1  0.30015208  0.02992356  0.60023646  1.0
  C  C99  1  0.97007560  0.57029927  0.27022185  1.0
  C  C100  1  0.30017943  0.69989912  0.27024878  1.0
  C  C101  1  0.97007486  0.69984952  0.39976556  1.0
  C  C102  1  0.69988355  0.42972835  0.39976848  1.0
  C  C103  1  0.57027895  0.30011586  0.60023567  1.0
  C  C104  1  0.69989976  0.30018040  0.27025202  1.0
  C  C105  1  0.57030058  0.97007535  0.27022298  1.0
  C  C106  1  0.02989559  0.30013614  0.72976387  1.0
  C  C107  1  0.57034209  0.30016770  0.27024075  1.0
  O  O108  1  0.38627122  0.49185424  0.51274010  1.0
  O  O109  1  0.02092083  0.12646901  0.63463007  1.0
  O  O110  1  0.50813814  0.61372571  0.48726221  1.0
  O  O111  1  0.87352489  0.97907540  0.36536615  1.0
  O  O112  1  0.49185843  0.12645700  0.51271932  1.0
  O  O113  1  0.12649900  0.02092038  0.51276331  1.0
  O  O114  1  0.02086404  0.38630765  0.51273913  1.0
  O  O115  1  0.87347066  0.38626372  0.89439900  1.0
  O  O116  1  0.97908345  0.87350389  0.48724138  1.0
  O  O117  1  0.49181721  0.97905946  0.10555174  1.0
  O  O118  1  0.38629492  0.02093471  0.89445390  1.0
  O  O119  1  0.38629931  0.87355475  0.36543454  1.0
  O  O120  1  0.12643685  0.61370513  0.63456504  1.0
  O  O121  1  0.50816830  0.87348945  0.89442202  1.0
  O  O122  1  0.50815897  0.02087011  0.63457132  1.0
  O  O123  1  0.97906429  0.61370476  0.10554047  1.0
  O  O124  1  0.12651168  0.49183721  0.10557583  1.0
  O  O125  1  0.97912507  0.49184470  0.36542766  1.0
  O  O126  1  0.49186008  0.38629452  0.36541992  1.0
  O  O127  1  0.61369753  0.50813929  0.63457750  1.0
  O  O128  1  0.87355306  0.50815058  0.48729173  1.0
  O  O129  1  0.61369427  0.97913076  0.48726719  1.0
  O  O130  1  0.02093135  0.50818595  0.89444739  1.0
  O  O131  1  0.61374319  0.12652466  0.10559785  1.0
  O  O132  1  0.61372661  0.50814087  0.48726026  1.0
  O  O133  1  0.97907058  0.87352012  0.36535781  1.0
  O  O134  1  0.49185533  0.38626719  0.51273702  1.0
  O  O135  1  0.12646800  0.02092182  0.63463393  1.0
  O  O136  1  0.50813978  0.87354801  0.48727841  1.0
  O  O137  1  0.87350915  0.97908138  0.48724716  1.0
  O  O138  1  0.97913355  0.61369986  0.48727460  1.0
  O  O139  1  0.12651313  0.61373950  0.10559268  1.0
  O  O140  1  0.02091573  0.12650317  0.51276065  1.0
  O  O141  1  0.50819112  0.02093879  0.89445204  1.0
  O  O142  1  0.61370894  0.97906303  0.10554234  1.0
  O  O143  1  0.61369584  0.12644246  0.63455724  1.0
  O  O144  1  0.87355194  0.38630772  0.36544357  1.0
  O  O145  1  0.49183917  0.12651372  0.10557359  1.0
  O  O146  1  0.49183912  0.97913011  0.36542473  1.0
  O  O147  1  0.02093448  0.38628938  0.89444440  1.0
  O  O148  1  0.87350074  0.50817446  0.89443180  1.0
  O  O149  1  0.02086828  0.50816884  0.63457685  1.0
  O  O150  1  0.50813853  0.61369898  0.63457965  1.0
  O  O151  1  0.38629628  0.49185521  0.36541664  1.0
  O  O152  1  0.12645445  0.49186620  0.51273252  1.0
  O  O153  1  0.38630445  0.02087358  0.51273316  1.0
  O  O154  1  0.97905291  0.49181652  0.10555247  1.0
  O  O155  1  0.38626314  0.87346997  0.89439712  1.0
