# generated using pymatgen
data_TbH54C57(N2O5)3
_symmetry_space_group_name_H-M   'P 1'
_cell_length_a   10.91528352
_cell_length_b   19.70984298
_cell_length_c   19.70980849
_cell_angle_alpha   59.99987337
_cell_angle_beta   89.99984004
_cell_angle_gamma   90.00004939
_symmetry_Int_Tables_number   1
_chemical_formula_structural   TbH54C57(N2O5)3
_chemical_formula_sum   'Tb2 H108 C114 N12 O30'
_cell_volume   3672.23670594
_cell_formula_units_Z   2
loop_
 _symmetry_equiv_pos_site_id
 _symmetry_equiv_pos_as_xyz
  1  'x, y, z'
loop_
 _atom_site_type_symbol
 _atom_site_label
 _atom_site_symmetry_multiplicity
 _atom_site_fract_x
 _atom_site_fract_y
 _atom_site_fract_z
 _atom_site_occupancy
  Tb  Tb0  1  0.14129740  0.33333333  0.33333333  1.0
  Tb  Tb1  1  0.85870297  0.66666667  0.66666667  1.0
  H  H2  1  0.92098791  0.21055137  0.54807661  1.0
  H  H3  1  0.92098895  0.54807881  0.24137095  1.0
  H  H4  1  0.92098787  0.24137122  0.21055037  1.0
  H  H5  1  0.07901153  0.78944840  0.45192316  1.0
  H  H6  1  0.07901050  0.45192154  0.75862853  1.0
  H  H7  1  0.07901249  0.75862913  0.78944962  1.0
  H  H8  1  0.87257281  0.11724159  0.68732973  1.0
  H  H9  1  0.87257174  0.68733070  0.19542798  1.0
  H  H10  1  0.87257339  0.19542901  0.11724039  1.0
  H  H11  1  0.12742756  0.88275818  0.31267055  1.0
  H  H12  1  0.12742771  0.31266966  0.80457150  1.0
  H  H13  1  0.12742698  0.80457134  0.88275909  1.0
  H  H14  1  0.68074256  0.13376463  0.74680212  1.0
  H  H15  1  0.68073729  0.74680029  0.11943354  1.0
  H  H16  1  0.68074135  0.11943296  0.13376459  1.0
  H  H17  1  0.31925780  0.86623572  0.25319787  1.0
  H  H18  1  0.31926216  0.25319947  0.88056624  1.0
  H  H19  1  0.31925902  0.88056681  0.86623569  1.0
  H  H20  1  0.53585152  0.24224648  0.66424835  1.0
  H  H21  1  0.53584779  0.66424460  0.09350599  1.0
  H  H22  1  0.53585064  0.09350467  0.24224731  1.0
  H  H23  1  0.46414884  0.75775386  0.33575164  1.0
  H  H24  1  0.46415166  0.33575575  0.90649349  1.0
  H  H25  1  0.46414973  0.90649509  0.75775297  1.0
  H  H26  1  0.58188007  0.33263639  0.52434049  1.0
  H  H27  1  0.58188026  0.52433656  0.14302567  1.0
  H  H28  1  0.58187949  0.14302291  0.33263685  1.0
  H  H29  1  0.41812030  0.66736337  0.47565979  1.0
  H  H30  1  0.41811919  0.47566261  0.85697440  1.0
  H  H31  1  0.41812088  0.85697744  0.66736314  1.0
  H  H32  1  0.84765811  0.30816469  0.41842485  1.0
  H  H33  1  0.84765948  0.41842425  0.27341124  1.0
  H  H34  1  0.84765836  0.27340877  0.30816539  1.0
  H  H35  1  0.15234225  0.69183566  0.58157464  1.0
  H  H36  1  0.15233997  0.58157610  0.72658875  1.0
  H  H37  1  0.15234200  0.72659100  0.69183489  1.0
  H  H38  1  0.69929647  0.35086192  0.40695969  1.0
  H  H39  1  0.69929877  0.40695793  0.24218019  1.0
  H  H40  1  0.69929561  0.24217866  0.35086103  1.0
  H  H41  1  0.30070389  0.64913785  0.59304059  1.0
  H  H42  1  0.30070160  0.59304184  0.75781958  1.0
  H  H43  1  0.30070475  0.75782169  0.64913896  1.0
  H  H44  1  0.16846122  0.49010227  0.35291269  1.0
  H  H45  1  0.16846160  0.35291241  0.15698520  1.0
  H  H46  1  0.16845970  0.15698367  0.49010332  1.0
  H  H47  1  0.83153915  0.50989690  0.64708789  1.0
  H  H48  1  0.83153784  0.64708676  0.84301538  1.0
  H  H49  1  0.83154067  0.84301610  0.50989747  1.0
  H  H50  1  0.25818419  0.61623295  0.32916103  1.0
  H  H51  1  0.25818375  0.32916349  0.05460382  1.0
  H  H52  1  0.25818212  0.05460331  0.61623240  1.0
  H  H53  1  0.74181709  0.38376623  0.67083954  1.0
  H  H54  1  0.74181570  0.67083628  0.94539646  1.0
  H  H55  1  0.74181825  0.94539704  0.38376759  1.0
  H  H56  1  0.12925961  0.70748353  0.35224220  1.0
  H  H57  1  0.12925877  0.35224357  0.94027255  1.0
  H  H58  1  0.12925982  0.94027150  0.70748464  1.0
  H  H59  1  0.87074075  0.29251565  0.64775837  1.0
  H  H60  1  0.87074068  0.64775678  0.05972693  1.0
  H  H61  1  0.87074055  0.05972885  0.29251535  1.0
  H  H62  1  0.91913266  0.66992057  0.40460234  1.0
  H  H63  1  0.91913206  0.40460166  0.92547700  1.0
  H  H64  1  0.91913219  0.92547366  0.66992312  1.0
  H  H65  1  0.08086770  0.33007919  0.59539743  1.0
  H  H66  1  0.08086739  0.59539869  0.07452299  1.0
  H  H67  1  0.08086817  0.07452610  0.33007767  1.0
  H  H68  1  0.71506012  0.64113646  0.38049397  1.0
  H  H69  1  0.71505933  0.38049542  0.97836734  1.0
  H  H70  1  0.71505698  0.97836818  0.64113904  1.0
  H  H71  1  0.28494024  0.35886329  0.61950632  1.0
  H  H72  1  0.28494012  0.61950493  0.02163265  1.0
  H  H73  1  0.28494338  0.02163218  0.35886094  1.0
  H  H74  1  0.75907062  0.60820277  0.47968918  1.0
  H  H75  1  0.75907034  0.47969110  0.91210808  1.0
  H  H76  1  0.75906686  0.91210572  0.60820576  1.0
  H  H77  1  0.24092975  0.39179700  0.52031110  1.0
  H  H78  1  0.24092910  0.52030924  0.08789242  1.0
  H  H79  1  0.24093442  0.08789405  0.39179452  1.0
  H  H80  1  0.49827506  0.53504551  0.30919397  1.0
  H  H81  1  0.49827252  0.30919364  0.15576045  1.0
  H  H82  1  0.49827511  0.15576061  0.53504481  1.0
  H  H83  1  0.50172439  0.46495542  0.69080573  1.0
  H  H84  1  0.50172784  0.69080553  0.84423962  1.0
  H  H85  1  0.50172525  0.84423916  0.46495547  1.0
  H  H86  1  0.65642022  0.52674235  0.33341920  1.0
  H  H87  1  0.65641781  0.33342104  0.13983682  1.0
  H  H88  1  0.65641851  0.13983853  0.52674075  1.0
  H  H89  1  0.34357923  0.47325858  0.66657999  1.0
  H  H90  1  0.34358164  0.66657990  0.86016237  1.0
  H  H91  1  0.34358185  0.86016182  0.47325924  1.0
  H  H92  1  0.58009253  0.61582316  0.30283219  1.0
  H  H93  1  0.58009192  0.30283328  0.08134368  1.0
  H  H94  1  0.58009315  0.08134412  0.61582328  1.0
  H  H95  1  0.41990692  0.38417777  0.69716700  1.0
  H  H96  1  0.41990752  0.69716767  0.91865601  1.0
  H  H97  1  0.41990721  0.91865623  0.38417671  1.0
  H  H98  1  0.62544574  0.53579025  0.58182576  1.0
  H  H99  1  0.62544502  0.58182636  0.88238562  1.0
  H  H100  1  0.62544429  0.88238265  0.53579262  1.0
  H  H101  1  0.37455646  0.46421011  0.41817473  1.0
  H  H102  1  0.37455260  0.41817340  0.11761517  1.0
  H  H103  1  0.37455699  0.11761712  0.46420766  1.0
  H  H104  1  0.80009636  0.43450955  0.45697726  1.0
  H  H105  1  0.80009909  0.45697813  0.10851338  1.0
  H  H106  1  0.80009616  0.10851107  0.43450991  1.0
  H  H107  1  0.19990309  0.56549080  0.54302222  1.0
  H  H108  1  0.19990219  0.54302222  0.89148661  1.0
  H  H109  1  0.19990420  0.89148869  0.56549088  1.0
  C  C110  1  0.83578072  0.21667456  0.57338978  1.0
  C  C111  1  0.83578100  0.57339044  0.20993416  1.0
  C  C112  1  0.83578070  0.20993443  0.21667518  1.0
  C  C113  1  0.16421964  0.78332579  0.42660970  1.0
  C  C114  1  0.16421845  0.42660932  0.79006562  1.0
  C  C115  1  0.16421966  0.79006533  0.78332511  1.0
  C  C116  1  0.80897129  0.16474407  0.65206796  1.0
  C  C117  1  0.80897285  0.65206894  0.18318500  1.0
  C  C118  1  0.80897345  0.18318812  0.16474385  1.0
  C  C119  1  0.19102816  0.83525570  0.34793232  1.0
  C  C120  1  0.19102660  0.34793140  0.81681398  1.0
  C  C121  1  0.19102692  0.81681223  0.83525614  1.0
  C  C122  1  0.70146232  0.17402906  0.68521484  1.0
  C  C123  1  0.70146134  0.68521398  0.14075331  1.0
  C  C124  1  0.70146175  0.14075549  0.17402919  1.0
  C  C125  1  0.29853804  0.82597071  0.31478493  1.0
  C  C126  1  0.29853811  0.31478579  0.85924595  1.0
  C  C127  1  0.29853861  0.85924428  0.82597109  1.0
  C  C128  1  0.62053467  0.23493872  0.63920834  1.0
  C  C129  1  0.62053628  0.63920538  0.12585174  1.0
  C  C130  1  0.62053378  0.12585304  0.23493916  1.0
  C  C131  1  0.37946569  0.76506106  0.36079244  1.0
  C  C132  1  0.37946500  0.36079437  0.87414703  1.0
  C  C133  1  0.37946659  0.87414672  0.76506112  1.0
  C  C134  1  0.64656081  0.28602031  0.56025699  1.0
  C  C135  1  0.64656204  0.56025447  0.15372240  1.0
  C  C136  1  0.64656048  0.15372360  0.28602069  1.0
  C  C137  1  0.35343864  0.71397946  0.43974329  1.0
  C  C138  1  0.35343740  0.43974530  0.84627686  1.0
  C  C139  1  0.35343989  0.84627733  0.71397901  1.0
  C  C140  1  0.75446830  0.27737389  0.52686845  1.0
  C  C141  1  0.75446932  0.52686807  0.19575574  1.0
  C  C142  1  0.75446886  0.19575493  0.27737588  1.0
  C  C143  1  0.24553207  0.72262587  0.47313133  1.0
  C  C144  1  0.24552921  0.47313229  0.80424374  1.0
  C  C145  1  0.24553242  0.80424484  0.72262440  1.0
  C  C146  1  0.78413430  0.33419215  0.44203756  1.0
  C  C147  1  0.78413676  0.44203697  0.22377094  1.0
  C  C148  1  0.78413448  0.22376902  0.33419290  1.0
  C  C149  1  0.21586515  0.66580762  0.55796272  1.0
  C  C150  1  0.21586360  0.55796338  0.77622854  1.0
  C  C151  1  0.21586588  0.77623075  0.66580738  1.0
  C  C152  1  0.94690352  0.43565747  0.39476941  1.0
  C  C153  1  0.94690222  0.39476732  0.16957390  1.0
  C  C154  1  0.94690046  0.16957199  0.43565942  1.0
  C  C155  1  0.05309685  0.56434170  0.60523168  1.0
  C  C156  1  0.05309723  0.60523185  0.83042668  1.0
  C  C157  1  0.05309991  0.83042777  0.56434087  1.0
  C  C158  1  0.99401093  0.50864504  0.38985418  1.0
  C  C159  1  0.99401064  0.38985455  0.10149989  1.0
  C  C160  1  0.99400940  0.10149789  0.50864617  1.0
  C  C161  1  0.00598852  0.49135414  0.61014589  1.0
  C  C162  1  0.00598880  0.61014521  0.89850040  1.0
  C  C163  1  0.00599189  0.89850187  0.49135462  1.0
  C  C164  1  0.11434719  0.53061197  0.36279764  1.0
  C  C165  1  0.11434679  0.36279751  0.10659018  1.0
  C  C166  1  0.11434552  0.10658816  0.53061336  1.0
  C  C167  1  0.88565317  0.46938721  0.63720344  1.0
  C  C168  1  0.88565266  0.63720226  0.89340959  1.0
  C  C169  1  0.88565484  0.89341161  0.46938743  1.0
  C  C170  1  0.16405923  0.60104995  0.34958583  1.0
  C  C171  1  0.16405887  0.34958732  0.04936308  1.0
  C  C172  1  0.16405725  0.04936166  0.60105050  1.0
  C  C173  1  0.83594114  0.39894923  0.65041525  1.0
  C  C174  1  0.83594058  0.65041244  0.95063670  1.0
  C  C175  1  0.83594311  0.95063869  0.39895000  1.0
  C  C176  1  0.09208689  0.65167893  0.36309168  1.0
  C  C177  1  0.09208602  0.36309105  0.98522932  1.0
  C  C178  1  0.09208551  0.98522677  0.65168042  1.0
  C  C179  1  0.90791347  0.34832083  0.63690861  1.0
  C  C180  1  0.90791251  0.63690871  0.01477045  1.0
  C  C181  1  0.90791485  0.01477300  0.34832037  1.0
  C  C182  1  0.97294528  0.63113738  0.39178968  1.0
  C  C183  1  0.97294362  0.39178790  0.97707303  1.0
  C  C184  1  0.97294311  0.97707075  0.63114007  1.0
  C  C185  1  0.02705508  0.36886239  0.60821060  1.0
  C  C186  1  0.02705583  0.60821245  0.02292645  1.0
  C  C187  1  0.02705725  0.02292902  0.36886021  1.0
  C  C188  1  0.92389823  0.55953246  0.40610847  1.0
  C  C189  1  0.92389721  0.40610726  0.03435980  1.0
  C  C190  1  0.92389560  0.03435700  0.55953403  1.0
  C  C191  1  0.07610214  0.44046730  0.59389181  1.0
  C  C192  1  0.07610224  0.59389309  0.96564019  1.0
  C  C193  1  0.07610477  0.96564335  0.44046596  1.0
  C  C194  1  0.72347749  0.58950482  0.43955726  1.0
  C  C195  1  0.72347695  0.43955849  0.97093690  1.0
  C  C196  1  0.72347374  0.97093443  0.58950835  1.0
  C  C197  1  0.27652287  0.41049493  0.56044252  1.0
  C  C198  1  0.27652250  0.56044245  0.02906280  1.0
  C  C199  1  0.27652662  0.02906534  0.41049193  1.0
  C  C200  1  0.60567284  0.54520271  0.46875572  1.0
  C  C201  1  0.60567239  0.46875653  0.98604141  1.0
  C  C202  1  0.60567024  0.98603821  0.54520630  1.0
  C  C203  1  0.39432661  0.45479764  0.53124427  1.0
  C  C204  1  0.39432706  0.53124382  0.01395858  1.0
  C  C205  1  0.39433104  0.01396098  0.45479427  1.0
  C  C206  1  0.53526694  0.52550301  0.42110323  1.0
  C  C207  1  0.53526503  0.42110232  0.05339350  1.0
  C  C208  1  0.53526722  0.05339217  0.52550506  1.0
  C  C209  1  0.46473251  0.47449792  0.57889647  1.0
  C  C210  1  0.46473350  0.57889803  0.94660649  1.0
  C  C211  1  0.46473314  0.94660701  0.47449602  1.0
  C  C212  1  0.56877340  0.55182954  0.33762872  1.0
  C  C213  1  0.56877289  0.33762918  0.11054178  1.0
  C  C214  1  0.56877435  0.11054181  0.55182920  1.0
  C  C215  1  0.43122605  0.44817140  0.66237098  1.0
  C  C216  1  0.43122656  0.66237117  0.88945821  1.0
  C  C217  1  0.43122602  0.88945796  0.44817108  1.0
  C  C218  1  0.56975418  0.51986628  0.54588277  1.0
  C  C219  1  0.56975231  0.54588257  0.93425089  1.0
  C  C220  1  0.56975274  0.93424909  0.51986809  1.0
  C  C221  1  0.43024618  0.48013407  0.45411722  1.0
  C  C222  1  0.43024439  0.45411661  0.06574918  1.0
  C  C223  1  0.43024854  0.06575009  0.48013248  1.0
  N  N224  1  0.84227304  0.40467405  0.43349942  1.0
  N  N225  1  0.84227374  0.43349896  0.16182770  1.0
  N  N226  1  0.84227109  0.16182586  0.40467531  1.0
  N  N227  1  0.15772641  0.59532571  0.56650087  1.0
  N  N228  1  0.15772662  0.56650080  0.83817309  1.0
  N  N229  1  0.15772927  0.83817391  0.59532497  1.0
  N  N230  1  0.27917339  0.27453691  0.47883934  1.0
  N  N231  1  0.27917046  0.47883843  0.24662260  1.0
  N  N232  1  0.27917021  0.24662212  0.27453895  1.0
  N  N233  1  0.72082606  0.72546286  0.52116043  1.0
  N  N234  1  0.72082990  0.52116134  0.75337717  1.0
  N  N235  1  0.72082923  0.75337823  0.72546104  1.0
  O  O236  1  0.00354100  0.40525759  0.36038770  1.0
  O  O237  1  0.00353762  0.36038347  0.23435560  1.0
  O  O238  1  0.00353617  0.23435454  0.40526170  1.0
  O  O239  1  0.99646028  0.59474101  0.63961418  1.0
  O  O240  1  0.99646091  0.63961512  0.76564476  1.0
  O  O241  1  0.99646511  0.76564523  0.59473909  1.0
  O  O242  1  0.80933950  0.53525059  0.43531413  1.0
  O  O243  1  0.80933952  0.43531414  0.02943484  1.0
  O  O244  1  0.80933794  0.02943229  0.53525243  1.0
  O  O245  1  0.19066087  0.46474858  0.56468645  1.0
  O  O246  1  0.19065992  0.56468562  0.97056545  1.0
  O  O247  1  0.19066243  0.97056747  0.46474785  1.0
  O  O248  1  0.30677700  0.25577518  0.42667319  1.0
  O  O249  1  0.30677741  0.42667366  0.31754971  1.0
  O  O250  1  0.30677748  0.31754927  0.25577607  1.0
  O  O251  1  0.69322336  0.74422517  0.57332629  1.0
  O  O252  1  0.69322296  0.57332611  0.68245006  1.0
  O  O253  1  0.69322289  0.68245108  0.74422392  1.0
  O  O254  1  0.18182005  0.31653760  0.46462345  1.0
  O  O255  1  0.18181620  0.46462099  0.21884016  1.0
  O  O256  1  0.18181577  0.21883920  0.31653937  1.0
  O  O257  1  0.81817940  0.68346217  0.53537632  1.0
  O  O258  1  0.81818324  0.53537877  0.78116013  1.0
  O  O259  1  0.81818460  0.78116115  0.68346062  1.0
  O  O260  1  0.34118535  0.25337537  0.53839368  1.0
  O  O261  1  0.34117999  0.53839429  0.20822852  1.0
  O  O262  1  0.34117962  0.20822679  0.25337854  1.0
  O  O263  1  0.65881318  0.74662498  0.46160631  1.0
  O  O264  1  0.65882037  0.46160547  0.79177176  1.0
  O  O265  1  0.65881983  0.79177298  0.74662174  1.0
