# generated using pymatgen
data_AlH33C45(NO)6
_symmetry_space_group_name_H-M   'P 1'
_cell_length_a   3.92882529
_cell_length_b   23.53433160
_cell_length_c   23.54084234
_cell_angle_alpha   60.05014218
_cell_angle_beta   87.27061438
_cell_angle_gamma   87.24187795
_symmetry_Int_Tables_number   1
_chemical_formula_structural   AlH33C45(NO)6
_chemical_formula_sum   'Al1 H33 C45 N6 O6'
_cell_volume   1883.09215746
_cell_formula_units_Z   1
loop_
 _symmetry_equiv_pos_site_id
 _symmetry_equiv_pos_as_xyz
  1  'x, y, z'
loop_
 _atom_site_type_symbol
 _atom_site_label
 _atom_site_symmetry_multiplicity
 _atom_site_fract_x
 _atom_site_fract_y
 _atom_site_fract_z
 _atom_site_occupancy
  Al  Al0  1  0.02027179  0.50008962  0.50006803  1.0
  H  H1  1  0.50330283  0.32027251  0.68070491  1.0
  H  H2  1  0.49277589  0.19956701  0.74464259  1.0
  H  H3  1  0.16245012  0.98405127  0.83502875  1.0
  H  H4  1  0.52428172  0.74203482  0.19514485  1.0
  H  H5  1  0.76460732  0.76971101  0.10531195  1.0
  H  H6  1  0.77091050  0.83275026  0.98562747  1.0
  H  H7  1  0.49019749  0.89452854  0.89426377  1.0
  H  H8  1  0.46219855  0.50022160  0.32105860  1.0
  H  H9  1  0.46011977  0.55664444  0.20052979  1.0
  H  H10  1  0.17963704  0.68432127  0.98396159  1.0
  H  H11  1  0.44677989  0.56391595  0.74225454  1.0
  H  H12  1  0.73916659  0.62268361  0.76673575  1.0
  H  H13  1  0.76063379  0.67916097  0.83017223  1.0
  H  H14  1  0.47117003  0.71193357  0.89430171  1.0
  H  H15  1  0.42486653  0.68090379  0.49990303  1.0
  H  H16  1  0.42217010  0.74495817  0.55683053  1.0
  H  H17  1  0.13469680  0.83650098  0.68755550  1.0
  H  H18  1  0.49626659  0.19447127  0.56383033  1.0
  H  H19  1  0.79630742  0.10482842  0.62402289  1.0
  H  H20  1  0.79751306  0.98439516  0.68076112  1.0
  H  H21  1  0.46860866  0.89449292  0.71195041  1.0
  H  H22  1  0.51068174  0.46126494  0.66840471  1.0
  H  H23  1  0.40180112  0.46445219  0.73735632  1.0
  H  H24  1  0.54190727  0.37033058  0.46117622  1.0
  H  H25  1  0.43234196  0.30002248  0.46488332  1.0
  H  H26  1  0.62249686  0.66754287  0.36979244  1.0
  H  H27  1  0.51475306  0.73799849  0.29958039  1.0
  H  H28  1  0.97380432  0.75687164  0.59803924  1.0
  H  H29  1  0.87226454  0.81791350  0.61337109  1.0
  H  H30  1  0.03016144  0.15623959  0.75488574  1.0
  H  H31  1  0.91950019  0.08222594  0.81609318  1.0
  H  H32  1  0.02595223  0.59480425  0.15424079  1.0
  H  H33  1  0.94256066  0.60822938  0.07946626  1.0
  C  C34  1  0.53234802  0.39838170  0.55138287  1.0
  C  C35  1  0.48925246  0.55167094  0.55028221  1.0
  C  C36  1  0.53138026  0.55021071  0.39860508  1.0
  C  C37  1  0.50764335  0.29200910  0.65543736  1.0
  C  C38  1  0.49609152  0.22410065  0.69133305  1.0
  C  C39  1  0.29906835  0.07920333  0.75670226  1.0
  C  C40  1  0.30976780  0.01041306  0.78917386  1.0
  C  C41  1  0.56189944  0.65642671  0.29010736  1.0
  C  C42  1  0.52064862  0.68855313  0.22194761  1.0
  C  C43  1  0.62336429  0.75175079  0.07898663  1.0
  C  C44  1  0.62830024  0.78773413  0.01103007  1.0
  C  C45  1  0.53052310  0.32566747  0.58693153  1.0
  C  C46  1  0.48957576  0.18729777  0.65890663  1.0
  C  C47  1  0.47666985  0.11488137  0.69539808  1.0
  C  C48  1  0.48080302  0.97510315  0.76280170  1.0
  C  C49  1  0.48157471  0.90268176  0.79896858  1.0
  C  C50  1  0.48502883  0.86768776  0.86766078  1.0
  C  C51  1  0.48327616  0.55339678  0.29261946  1.0
  C  C52  1  0.47241346  0.58546057  0.22482180  1.0
  C  C53  1  0.30076908  0.66682834  0.07918981  1.0
  C  C54  1  0.31661070  0.70281536  0.01039092  1.0
  C  C55  1  0.48486793  0.55352519  0.65675428  1.0
  C  C56  1  0.45070922  0.59039867  0.68873761  1.0
  C  C57  1  0.59476670  0.66871845  0.75033837  1.0
  C  C58  1  0.60754583  0.70040920  0.78646837  1.0
  C  C59  1  0.52934379  0.58731435  0.32631131  1.0
  C  C60  1  0.48025014  0.65480565  0.18777972  1.0
  C  C61  1  0.46367124  0.69093097  0.11544739  1.0
  C  C62  1  0.47635183  0.76295133  0.97525115  1.0
  C  C63  1  0.48077247  0.79899798  0.90283133  1.0
  C  C64  1  0.47389648  0.76537328  0.86774882  1.0
  C  C65  1  0.43558465  0.65570642  0.55325794  1.0
  C  C66  1  0.42562114  0.69162870  0.58547602  1.0
  C  C67  1  0.25145009  0.75740355  0.66861457  1.0
  C  C68  1  0.27484371  0.78987688  0.70460837  1.0
  C  C69  1  0.53775202  0.28990875  0.55319664  1.0
  C  C70  1  0.50756260  0.22151760  0.59017764  1.0
  C  C71  1  0.64744026  0.07839079  0.66961310  1.0
  C  C72  1  0.64875847  0.01035923  0.70143057  1.0
  C  C73  1  0.46935919  0.58725548  0.58743034  1.0
  C  C74  1  0.42705763  0.65912817  0.65473052  1.0
  C  C75  1  0.42127110  0.69536927  0.69103184  1.0
  C  C76  1  0.44939549  0.76267459  0.76321880  1.0
  C  C77  1  0.46694029  0.79893054  0.79913513  1.0
  C  C78  1  0.47308975  0.86763622  0.76539137  1.0
  N  N79  1  0.52893213  0.48580853  0.69337800  1.0
  N  N80  1  0.56878942  0.32061922  0.48516422  1.0
  N  N81  1  0.62596092  0.69255678  0.31998768  1.0
  N  N82  1  0.06361946  0.78811511  0.61156799  1.0
  N  N83  1  0.11434501  0.10977506  0.78666310  1.0
  N  N84  1  0.12527651  0.60826666  0.10865587  1.0
  O  O85  1  0.75647607  0.56365263  0.42765924  1.0
  O  O86  1  0.77436338  0.42689775  0.50941597  1.0
  O  O87  1  0.73266273  0.50895230  0.56339460  1.0
  O  O88  1  0.30715541  0.50640671  0.42897257  1.0
  O  O89  1  0.26531551  0.56508572  0.50732352  1.0
  O  O90  1  0.29039228  0.42862195  0.56468831  1.0
