# generated using pymatgen
data_ZnH16C26SNO8
_symmetry_space_group_name_H-M   'P 1'
_cell_length_a   14.98447947
_cell_length_b   15.48359491
_cell_length_c   15.95027218
_cell_angle_alpha   89.96837509
_cell_angle_beta   75.11106043
_cell_angle_gamma   81.21416294
_symmetry_Int_Tables_number   1
_chemical_formula_structural   ZnH16C26SNO8
_chemical_formula_sum   'Zn2 H32 C52 S2 N2 O16'
_cell_volume   3531.56530757
_cell_formula_units_Z   2
loop_
 _symmetry_equiv_pos_site_id
 _symmetry_equiv_pos_as_xyz
  1  'x, y, z'
loop_
 _atom_site_type_symbol
 _atom_site_label
 _atom_site_symmetry_multiplicity
 _atom_site_fract_x
 _atom_site_fract_y
 _atom_site_fract_z
 _atom_site_occupancy
  Zn  Zn0  1  0.60291458  0.51172066  0.48398027  1.0
  Zn  Zn1  1  0.41570020  0.47432791  0.50903275  1.0
  H  H2  1  0.57430615  0.37084266  0.06529716  1.0
  H  H3  1  0.46342163  0.21193393  0.53047809  1.0
  H  H4  1  0.53632878  0.35873657  0.93308343  1.0
  H  H5  1  0.62553005  0.83790891  0.54064828  1.0
  H  H6  1  0.36818349  0.14366616  0.58716417  1.0
  H  H7  1  0.19899713  0.90470525  0.61848136  1.0
  H  H8  1  0.96907622  0.42724366  0.72316427  1.0
  H  H9  1  0.76469512  0.49033908  0.56153072  1.0
  H  H10  1  0.68792105  0.64771012  0.37496612  1.0
  H  H11  1  0.01237299  0.67781066  0.34131570  1.0
  H  H12  1  0.13461467  0.40263640  0.72910655  1.0
  H  H13  1  0.62905655  0.41590255  0.88707046  1.0
  H  H14  1  0.30266431  0.41371911  0.65618402  1.0
  H  H15  1  0.34386553  0.54549417  0.98136063  1.0
  H  H16  1  0.84991368  0.47692883  0.64522243  1.0
  H  H17  1  0.13469734  0.60024434  0.40213559  1.0
  H  H18  1  0.84548201  0.69605651  0.32841866  1.0
  H  H19  1  0.37194141  0.42992505  0.97810748  1.0
  H  H20  1  0.36112707  0.54725093  0.12289159  1.0
  H  H21  1  0.46343312  0.63788655  0.92881539  1.0
  H  H22  1  0.59950667  0.60392697  0.03344494  1.0
  H  H23  1  0.79158892  0.76990459  0.47848914  1.0
  H  H24  1  0.65204687  0.44470433  0.02394129  1.0
  H  H25  1  0.19109596  0.35551218  0.33696127  1.0
  H  H26  1  0.40455120  0.40741155  0.19564794  1.0
  H  H27  1  0.67226204  0.55430600  0.87992309  1.0
  H  H28  1  0.47992767  0.64904555  0.06913124  1.0
  H  H29  1  0.53215864  0.76497091  0.53199329  1.0
  H  H30  1  0.24236625  0.74302316  0.58967654  1.0
  H  H31  1  0.24647414  0.05087575  0.61994351  1.0
  H  H32  1  0.79746520  0.07805086  0.46453299  1.0
  H  H33  1  0.75238265  0.23682474  0.45020798  1.0
  C  C34  1  0.57334832  0.32841695  0.48175427  1.0
  C  C35  1  0.39086910  0.74641910  0.55859613  1.0
  C  C36  1  0.72379195  0.10643586  0.47974811  1.0
  C  C37  1  0.50352196  0.48230693  0.66313052  1.0
  C  C38  1  0.69913614  0.19514309  0.47168656  1.0
  C  C39  1  0.53578047  0.18042338  0.51819551  1.0
  C  C40  1  0.55805336  0.08997099  0.52806332  1.0
  C  C41  1  0.65489289  0.05169591  0.50731337  1.0
  C  C42  1  0.48527189  0.03628038  0.55416498  1.0
  C  C43  1  0.51023079  0.94442155  0.55223865  1.0
  C  C44  1  0.60644977  0.90784817  0.53524557  1.0
  C  C45  1  0.58110681  0.43084100  0.02899342  1.0
  C  C46  1  0.67572663  0.95870633  0.51473718  1.0
  C  C47  1  0.38840842  0.07290622  0.58082879  1.0
  C  C48  1  0.31994463  0.02112334  0.59928017  1.0
  C  C49  1  0.42027534  0.65070571  0.53634857  1.0
  C  C50  1  0.34229315  0.92826837  0.58950909  1.0
  C  C51  1  0.43852833  0.88925520  0.56598964  1.0
  C  C52  1  0.27227168  0.87417587  0.59974853  1.0
  C  C53  1  0.29570460  0.78484649  0.58396594  1.0
  C  C54  1  0.46013300  0.79800885  0.55166705  1.0
  C  C55  1  0.15468641  0.42495569  0.66309169  1.0
  C  C56  1  0.51047153  0.50792358  0.08108594  1.0
  C  C57  1  0.24730193  0.42706550  0.62283333  1.0
  C  C58  1  0.21160466  0.46678184  0.49326297  1.0
  C  C59  1  0.11384783  0.48460748  0.53317434  1.0
  C  C60  1  0.08580618  0.45346388  0.61914705  1.0
  C  C61  1  0.53284146  0.51606862  0.33187581  1.0
  C  C62  1  0.04247143  0.52911895  0.49522743  1.0
  C  C63  1  0.94787012  0.52065342  0.53324079  1.0
  C  C64  1  0.92315316  0.48029093  0.61470673  1.0
  C  C65  1  0.98910439  0.45202293  0.65812967  1.0
  C  C66  1  0.06329831  0.58762121  0.42619206  1.0
  C  C67  1  0.52862679  0.59301357  0.03322733  1.0
  C  C68  1  0.99512692  0.63103004  0.39176282  1.0
  C  C69  1  0.90165405  0.61413732  0.41996537  1.0
  C  C70  1  0.87795340  0.55751103  0.49014179  1.0
  C  C71  1  0.83047150  0.65060769  0.38067720  1.0
  C  C72  1  0.74375005  0.62472797  0.40572680  1.0
  C  C73  1  0.56390745  0.41964646  0.93864486  1.0
  C  C74  1  0.78692372  0.53580856  0.51097587  1.0
  C  C75  1  0.39662578  0.49103402  0.98983018  1.0
  C  C76  1  0.40922854  0.49268116  0.08271736  1.0
  C  C77  1  0.53198686  0.51908325  0.24132139  1.0
  C  C78  1  0.51869529  0.58680322  0.93901942  1.0
  C  C79  1  0.49061752  0.49606554  0.92290483  1.0
  C  C80  1  0.38527382  0.41208049  0.13264669  1.0
  C  C81  1  0.60871863  0.60126606  0.87554592  1.0
  C  C82  1  0.52245733  0.51490227  0.16811487  1.0
  C  C83  1  0.48553083  0.48898011  0.83353130  1.0
  C  C84  1  0.49220422  0.48406064  0.75605195  1.0
  C  C85  1  0.60398907  0.23276987  0.49025229  1.0
  S  S86  1  0.79464281  0.90704196  0.49188948  1.0
  S  S87  1  0.26138442  0.45215877  0.37536478  1.0
  N  N88  1  0.27537565  0.44374472  0.53727004  1.0
  N  N89  1  0.72356007  0.56582781  0.46855303  1.0
  O  O90  1  0.63521581  0.37852160  0.46919854  1.0
  O  O91  1  0.84155009  0.94733916  0.54556443  1.0
  O  O92  1  0.78575412  0.81021118  0.52798132  1.0
  O  O93  1  0.27227147  0.53420444  0.33559969  1.0
  O  O94  1  0.33592610  0.37925936  0.36209638  1.0
  O  O95  1  0.17599893  0.41925254  0.34589306  1.0
  O  O96  1  0.34651934  0.35642163  0.10871380  1.0
  O  O97  1  0.61596568  0.65994354  0.82460130  1.0
  O  O98  1  0.48624442  0.35191232  0.48903290  1.0
  O  O99  1  0.58271387  0.49583276  0.61695481  1.0
  O  O100  1  0.43369841  0.46815134  0.63642243  1.0
  O  O101  1  0.50817270  0.62415813  0.51244807  1.0
  O  O102  1  0.35706271  0.60280127  0.54195120  1.0
  O  O103  1  0.60799788  0.52381022  0.35229743  1.0
  O  O104  1  0.45560492  0.50459382  0.38301559  1.0
  O  O105  1  0.83337009  0.89734836  0.39887153  1.0
