# generated using pymatgen
data_Al2H13C25IO12
_symmetry_space_group_name_H-M   'P 1'
_cell_length_a   6.63143877
_cell_length_b   16.96111890
_cell_length_c   19.67876795
_cell_angle_alpha   71.38199749
_cell_angle_beta   88.27028331
_cell_angle_gamma   88.27597216
_symmetry_Int_Tables_number   1
_chemical_formula_structural   Al2H13C25IO12
_chemical_formula_sum   'Al4 H26 C50 I2 O24'
_cell_volume   2096.12555286
_cell_formula_units_Z   2
loop_
 _symmetry_equiv_pos_site_id
 _symmetry_equiv_pos_as_xyz
  1  'x, y, z'
loop_
 _atom_site_type_symbol
 _atom_site_label
 _atom_site_symmetry_multiplicity
 _atom_site_fract_x
 _atom_site_fract_y
 _atom_site_fract_z
 _atom_site_occupancy
  Al  Al0  1  0.11302826  0.49814668  0.50102326  1.0
  Al  Al1  1  0.61332772  0.49945070  0.49964949  1.0
  Al  Al2  1  0.62223858  0.99938528  0.99920299  1.0
  Al  Al3  1  0.12218616  0.00055692  0.99832679  1.0
  H  H4  1  0.56303469  0.81299911  0.19748478  1.0
  H  H5  1  0.06944752  0.19786298  0.81371170  1.0
  H  H6  1  0.02515313  0.78891474  0.19242029  1.0
  H  H7  1  0.53048599  0.18943158  0.79062652  1.0
  H  H8  1  0.56280551  0.68852763  0.30519035  1.0
  H  H9  1  0.06263652  0.29827629  0.69014181  1.0
  H  H10  1  0.01943747  0.71427841  0.31174103  1.0
  H  H11  1  0.52430034  0.30430861  0.70174778  1.0
  H  H12  1  0.29053773  0.79941798  0.62415637  1.0
  H  H13  1  0.93826645  0.19930931  0.37299153  1.0
  H  H14  1  0.30103965  0.88446901  0.70421762  1.0
  H  H15  1  0.93450325  0.11401419  0.29296375  1.0
  H  H16  1  0.16347606  0.92045441  0.81045667  1.0
  H  H17  1  0.07855364  0.07821368  0.18735049  1.0
  H  H18  1  0.60654545  0.81591284  0.91184395  1.0
  H  H19  1  0.63518791  0.18554249  0.08786824  1.0
  H  H20  1  0.44096500  0.70704620  0.87473170  1.0
  H  H21  1  0.79487928  0.29488025  0.12556339  1.0
  H  H22  1  0.44402332  0.61320401  0.80148440  1.0
  H  H23  1  0.78514410  0.38884870  0.19880592  1.0
  H  H24  1  0.44687551  0.65284934  0.56406920  1.0
  H  H25  1  0.77861932  0.34736909  0.43321728  1.0
  H  H26  1  0.35077252  0.60636051  0.46062568  1.0
  H  H27  1  0.87068146  0.39122135  0.54005018  1.0
  H  H28  1  0.37379353  0.88969338  0.03182408  1.0
  H  H29  1  0.86408220  0.10765348  0.99182521  1.0
  C  C30  1  0.36713473  0.42407704  0.41268517  1.0
  C  C31  1  0.85841033  0.57421707  0.58759360  1.0
  C  C32  1  0.36903070  0.38228354  0.60850020  1.0
  C  C33  1  0.85918831  0.61792836  0.39370066  1.0
  C  C34  1  0.70872271  0.78483195  0.21793196  1.0
  C  C35  1  0.21309907  0.21620329  0.78506339  1.0
  C  C36  1  0.87435846  0.81496328  0.17744003  1.0
  C  C37  1  0.38213084  0.17686587  0.81679529  1.0
  C  C38  1  0.70763282  0.71730820  0.28538231  1.0
  C  C39  1  0.20905529  0.27964126  0.71509135  1.0
  C  C40  1  0.87027313  0.68779379  0.32629965  1.0
  C  C41  1  0.37416588  0.31799288  0.67918468  1.0
  C  C42  1  0.72229491  0.61008556  0.69721103  1.0
  C  C43  1  0.50390766  0.39019548  0.30245660  1.0
  C  C44  1  0.86020734  0.62299774  0.63935923  1.0
  C  C45  1  0.36544943  0.37623480  0.36024918  1.0
  C  C46  1  0.01129490  0.68276192  0.62881714  1.0
  C  C47  1  0.21522824  0.31629676  0.36999865  1.0
  C  C48  1  0.01987147  0.73296847  0.67354846  1.0
  C  C49  1  0.20966518  0.26620209  0.32507316  1.0
  C  C50  1  0.86714896  0.72454348  0.72817963  1.0
  C  C51  1  0.36445150  0.27507625  0.27105010  1.0
  C  C52  1  0.71502346  0.66291651  0.74011474  1.0
  C  C53  1  0.51428813  0.33753236  0.25947114  1.0
  C  C54  1  0.17437344  0.79293137  0.66576999  1.0
  C  C55  1  0.05641457  0.20596857  0.33199948  1.0
  C  C56  1  0.18063743  0.84013703  0.71029481  1.0
  C  C57  1  0.05393628  0.15863150  0.28748058  1.0
  C  C58  1  0.03117256  0.83281096  0.76592098  1.0
  C  C59  1  0.20587711  0.16621202  0.23257394  1.0
  C  C60  1  0.87118192  0.77563812  0.77328458  1.0
  C  C61  1  0.36415863  0.22395330  0.22590866  1.0
  C  C62  1  0.71739832  0.76895539  0.82714285  1.0
  C  C63  1  0.51958846  0.23147426  0.17246474  1.0
  C  C64  1  0.56133733  0.71013023  0.83495966  1.0
  C  C65  1  0.67331709  0.29117852  0.16502539  1.0
  C  C66  1  0.56272633  0.65831357  0.79434940  1.0
  C  C67  1  0.66821872  0.34305361  0.20560117  1.0
  C  C68  1  0.03870568  0.87877375  0.81382282  1.0
  C  C69  1  0.20207310  0.12030975  0.18450419  1.0
  C  C70  1  0.88630993  0.87207998  0.86599487  1.0
  C  C71  1  0.35612023  0.12777176  0.13272803  1.0
  C  C72  1  0.72490413  0.81901889  0.87144679  1.0
  C  C73  1  0.51561741  0.18146426  0.12802789  1.0
  C  C74  1  0.38177184  0.11250916  0.88786476  1.0
  C  C75  1  0.86401486  0.88418329  0.10919662  1.0
  C  C76  1  0.35224066  0.08025697  0.08069630  1.0
  C  C77  1  0.89255362  0.92019893  0.91744738  1.0
  C  C78  1  0.16916831  0.69010181  0.57036423  1.0
  C  C79  1  0.05525785  0.30854170  0.42788869  1.0
  I  I80  1  0.54864479  0.50122120  0.72950198  1.0
  I  I81  1  0.67161089  0.50062085  0.27040783  1.0
  O  O82  1  0.53994209  0.41371001  0.58410339  1.0
  O  O83  1  0.02499362  0.59421449  0.42583774  1.0
  O  O84  1  0.19797620  0.45273972  0.42656097  1.0
  O  O85  1  0.69228558  0.56987494  0.55788358  1.0
  O  O86  1  0.20217768  0.40295242  0.57653881  1.0
  O  O87  1  0.68777923  0.58559337  0.41545222  1.0
  O  O88  1  0.02725290  0.54410955  0.57508371  1.0
  O  O89  1  0.53439853  0.42918396  0.44142150  1.0
  O  O90  1  0.35990993  0.55022946  0.49432450  1.0
  O  O91  1  0.86575426  0.44733798  0.50621203  1.0
  O  O92  1  0.18407304  0.05179795  0.07061752  1.0
  O  O93  1  0.72754235  0.92601492  0.95061777  1.0
  O  O94  1  0.55315337  0.07854696  0.90857838  1.0
  O  O95  1  0.03144832  0.90389176  0.07467599  1.0
  O  O96  1  0.51915013  0.07329920  0.04885077  1.0
  O  O97  1  0.05965175  0.95040274  0.92605826  1.0
  O  O98  1  0.69228209  0.91833036  0.08954790  1.0
  O  O99  1  0.21556952  0.09565823  0.92334843  1.0
  O  O100  1  0.37441369  0.94890480  0.00663283  1.0
  O  O101  1  0.86897052  0.05061374  0.99183580  1.0
  O  O102  1  0.13784034  0.71639152  0.50605493  1.0
  O  O103  1  0.35027128  0.66361833  0.59943315  1.0
  O  O104  1  0.08361946  0.28050386  0.49230197  1.0
  O  O105  1  0.87611965  0.33687534  0.39796207  1.0
