# generated using pymatgen
data_Zn4H14C34O13F4
_symmetry_space_group_name_H-M   'P 1'
_cell_length_a   18.52799836
_cell_length_b   18.52788137
_cell_length_c   22.34699056
_cell_angle_alpha   114.43886906
_cell_angle_beta   114.44024112
_cell_angle_gamma   90.05744550
_symmetry_Int_Tables_number   1
_chemical_formula_structural   Zn4H14C34O13F4
_chemical_formula_sum   'Zn8 H28 C68 O26 F8'
_cell_volume   6219.52201149
_cell_formula_units_Z   2
loop_
 _symmetry_equiv_pos_site_id
 _symmetry_equiv_pos_as_xyz
  1  'x, y, z'
loop_
 _atom_site_type_symbol
 _atom_site_label
 _atom_site_symmetry_multiplicity
 _atom_site_fract_x
 _atom_site_fract_y
 _atom_site_fract_z
 _atom_site_occupancy
  Zn  Zn0  1  0.97020177  0.55338023  0.43652104  1.0
  Zn  Zn1  1  0.55337860  0.97019991  0.43651869  1.0
  Zn  Zn2  1  0.11839141  0.53108299  0.56185981  1.0
  Zn  Zn3  1  0.53108690  0.11838909  0.56186010  1.0
  Zn  Zn4  1  0.96804618  0.38156487  0.43719639  1.0
  Zn  Zn5  1  0.38156618  0.96804572  0.43719448  1.0
  Zn  Zn6  1  0.94323777  0.53029313  0.56171777  1.0
  Zn  Zn7  1  0.53029735  0.94323443  0.56171833  1.0
  H  H8  1  0.81977768  0.19616144  0.42125556  1.0
  H  H9  1  0.19615977  0.81978527  0.42126059  1.0
  H  H10  1  0.72488748  0.10127409  0.42132594  1.0
  H  H11  1  0.10127355  0.72489429  0.42133198  1.0
  H  H12  1  0.62806043  0.35162859  0.57664828  1.0
  H  H13  1  0.35163182  0.62805025  0.57664217  1.0
  H  H14  1  0.70994796  0.34420843  0.65070215  1.0
  H  H15  1  0.34421963  0.70993785  0.65069865  1.0
  H  H16  1  0.72438924  0.44794277  0.57632617  1.0
  H  H17  1  0.44794528  0.72437899  0.57631754  1.0
  H  H18  1  0.80613373  0.44071341  0.65058484  1.0
  H  H19  1  0.44072267  0.80612145  0.65057903  1.0
  H  H20  1  0.10144294  0.19634489  0.42099501  1.0
  H  H21  1  0.19634615  0.10144269  0.42099471  1.0
  H  H22  1  0.44136932  0.34365875  0.65033231  1.0
  H  H23  1  0.34366385  0.44136422  0.65033202  1.0
  H  H24  1  0.61968455  0.71731528  0.56351643  1.0
  H  H25  1  0.71732179  0.61968075  0.56351855  1.0
  H  H26  1  0.61692165  0.28555922  0.95380836  1.0
  H  H27  1  0.28643245  0.61740296  0.95383805  1.0
  H  H28  1  0.73121149  0.10198556  0.95479326  1.0
  H  H29  1  0.10196080  0.73024403  0.95477845  1.0
  H  H30  1  0.88243059  0.21386125  0.04516433  1.0
  H  H31  1  0.21300062  0.88199144  0.04513674  1.0
  H  H32  1  0.83259919  0.29175919  0.95297863  1.0
  H  H33  1  0.29094448  0.83309351  0.95295887  1.0
  H  H34  1  0.76849348  0.39703849  0.04403332  1.0
  H  H35  1  0.39706455  0.76948100  0.04404724  1.0
  C  C36  1  0.09951907  0.59897067  0.69848247  1.0
  C  C37  1  0.59897141  0.09951458  0.69848327  1.0
  C  C38  1  0.68417052  0.74486809  0.58852807  1.0
  C  C39  1  0.74487340  0.68416676  0.58852872  1.0
  C  C40  1  0.67640319  0.27038461  0.97442517  1.0
  C  C41  1  0.27086144  0.67667692  0.97443722  1.0
  C  C42  1  0.70431751  0.22607824  0.02351871  1.0
  C  C43  1  0.22652248  0.70406978  0.02352273  1.0
  C  C44  1  0.86090124  0.35961646  0.22071633  1.0
  C  C45  1  0.35961224  0.86089532  0.22071520  1.0
  C  C46  1  0.63849762  0.13899120  0.77797844  1.0
  C  C47  1  0.13899885  0.63849761  0.77797853  1.0
  C  C48  1  0.76004965  0.33137688  0.02346835  1.0
  C  C49  1  0.33138910  0.76059995  0.02347406  1.0
  C  C50  1  0.78871850  0.28889836  0.07563753  1.0
  C  C51  1  0.28888594  0.78876072  0.07563672  1.0
  C  C52  1  0.79626394  0.27358215  0.97433558  1.0
  C  C53  1  0.27312728  0.79655597  0.97433176  1.0
  C  C54  1  0.71177538  0.21098343  0.92333759  1.0
  C  C55  1  0.21099085  0.71176930  0.92333639  1.0
  C  C56  1  0.82323442  0.22932695  0.02386712  1.0
  C  C57  1  0.22884691  0.82299707  0.02385152  1.0
  C  C58  1  0.90041530  0.39922480  0.30005835  1.0
  C  C59  1  0.39922336  0.90040604  0.30005704  1.0
  C  C60  1  0.74007498  0.16758158  0.97481936  1.0
  C  C61  1  0.16756571  0.73954703  0.97480916  1.0
  C  C62  1  0.82765197  0.32695060  0.15348716  1.0
  C  C63  1  0.32693833  0.82766977  0.15348426  1.0
  C  C64  1  0.67227044  0.17235667  0.84525901  1.0
  C  C65  1  0.17236858  0.67227057  0.84525747  1.0
  C  C66  1  0.76468458  0.33137138  0.54293966  1.0
  C  C67  1  0.33137495  0.76467965  0.54293688  1.0
  C  C68  1  0.80506167  0.30413429  0.49971066  1.0
  C  C69  1  0.30413521  0.80506145  0.49971057  1.0
  C  C70  1  0.78927760  0.21945930  0.45581134  1.0
  C  C71  1  0.21945917  0.78928175  0.45581484  1.0
  C  C72  1  0.73607109  0.16629507  0.45583388  1.0
  C  C73  1  0.16629553  0.73607569  0.45583817  1.0
  C  C74  1  0.69528278  0.19448645  0.49975910  1.0
  C  C75  1  0.19448959  0.69528202  0.49976094  1.0
  C  C76  1  0.71132674  0.27805312  0.54299693  1.0
  C  C77  1  0.27805693  0.71132198  0.54299517  1.0
  C  C78  1  0.69159470  0.34544504  0.59774614  1.0
  C  C79  1  0.34545061  0.69158486  0.59774112  1.0
  C  C80  1  0.13753097  0.63802074  0.49897226  1.0
  C  C81  1  0.63802135  0.13752775  0.49897078  1.0
  C  C82  1  0.75200102  0.40579492  0.59770971  1.0
  C  C83  1  0.40579929  0.75199114  0.59770292  1.0
  C  C84  1  0.27808524  0.33124634  0.54131120  1.0
  C  C85  1  0.33124846  0.27808227  0.54131090  1.0
  C  C86  1  0.19414917  0.30416036  0.49923126  1.0
  C  C87  1  0.30416207  0.19414726  0.49923124  1.0
  C  C88  1  0.16645033  0.21985041  0.45562348  1.0
  C  C89  1  0.21985233  0.16644924  0.45562332  1.0
  C  C90  1  0.40573264  0.34501725  0.59751004  1.0
  C  C91  1  0.34502124  0.40572889  0.59751001  1.0
  C  C92  1  0.86148951  0.36043972  0.49902572  1.0
  C  C93  1  0.36044092  0.86148936  0.49902576  1.0
  C  C94  1  0.13681491  0.36064749  0.49918232  1.0
  C  C95  1  0.36064988  0.13681386  0.49918205  1.0
  C  C96  1  0.86299471  0.63709401  0.49920179  1.0
  C  C97  1  0.63709551  0.86299296  0.49920195  1.0
  C  C98  1  0.76471140  0.71170348  0.54102189  1.0
  C  C99  1  0.71170636  0.76470748  0.54102109  1.0
  C  C100  1  0.80860562  0.69667072  0.50039021  1.0
  C  C101  1  0.69667191  0.80860361  0.50038940  1.0
  C  C102  1  0.79636725  0.74241117  0.46148756  1.0
  C  C103  1  0.74241129  0.79636657  0.46148736  1.0
  O  O104  1  0.00009699  0.49936231  0.50014112  1.0
  O  O105  1  0.49936461  0.00009541  0.50013987  1.0
  O  O106  1  0.06244748  0.62484892  0.45487152  1.0
  O  O107  1  0.62484913  0.06244487  0.45486981  1.0
  O  O108  1  0.87297642  0.43577429  0.54197913  1.0
  O  O109  1  0.43577556  0.87297430  0.54197779  1.0
  O  O110  1  0.14603850  0.58329189  0.66753364  1.0
  O  O111  1  0.58329356  0.14603610  0.66753444  1.0
  O  O112  1  0.91633955  0.35328419  0.33154373  1.0
  O  O113  1  0.35328367  0.91633039  0.33154218  1.0
  O  O114  1  0.02211112  0.58365742  0.66705642  1.0
  O  O115  1  0.58365786  0.02210776  0.66705675  1.0
  O  O116  1  0.91569794  0.47666111  0.33110984  1.0
  O  O117  1  0.47666002  0.91569055  0.33110809  1.0
  O  O118  1  0.16884737  0.60650022  0.54269651  1.0
  O  O119  1  0.60650395  0.16884362  0.54269576  1.0
  O  O120  1  0.89364215  0.32933722  0.45590277  1.0
  O  O121  1  0.32933725  0.89364287  0.45590210  1.0
  O  O122  1  0.16822952  0.43524141  0.54452259  1.0
  O  O123  1  0.43524436  0.16822769  0.54452252  1.0
  O  O124  1  0.87196827  0.60565895  0.54229390  1.0
  O  O125  1  0.60566209  0.87196443  0.54229323  1.0
  O  O126  1  0.06216418  0.32946057  0.45430813  1.0
  O  O127  1  0.32946262  0.06216307  0.45430621  1.0
  O  O128  1  0.89412703  0.62276449  0.45545685  1.0
  O  O129  1  0.62276621  0.89412835  0.45545739  1.0
  F  F130  1  0.83585469  0.73811652  0.42177524  1.0
  F  F131  1  0.73811453  0.83585474  0.42177384  1.0
  F  F132  1  0.45970796  0.35667188  0.57188948  1.0
  F  F133  1  0.35667559  0.45970559  0.57188911  1.0
  F  F134  1  0.70505499  0.80765346  0.65841322  1.0
  F  F135  1  0.80766039  0.70505210  0.65841453  1.0
  F  F136  1  0.65772983  0.20248150  0.04901149  1.0
  F  F137  1  0.20336296  0.65721425  0.04901098  1.0
