# generated using pymatgen
data_Al6H47C88(NO10)3
_symmetry_space_group_name_H-M   'P 1'
_cell_length_a   12.92846401
_cell_length_b   13.01286606
_cell_length_c   30.44169040
_cell_angle_alpha   81.77003859
_cell_angle_beta   81.25083577
_cell_angle_gamma   61.90278487
_symmetry_Int_Tables_number   1
_chemical_formula_structural   Al6H47C88(NO10)3
_chemical_formula_sum   'Al6 H47 C88 N3 O30'
_cell_volume   4450.22733620
_cell_formula_units_Z   1
loop_
 _symmetry_equiv_pos_site_id
 _symmetry_equiv_pos_as_xyz
  1  'x, y, z'
loop_
 _atom_site_type_symbol
 _atom_site_label
 _atom_site_symmetry_multiplicity
 _atom_site_fract_x
 _atom_site_fract_y
 _atom_site_fract_z
 _atom_site_occupancy
  Al  Al0  1  0.57098653  0.60105926  0.48952572  1.0
  Al  Al1  1  0.57678663  0.35014233  0.50470096  1.0
  Al  Al2  1  0.34190286  0.56472850  0.50681182  1.0
  Al  Al3  1  0.07267604  0.07568736  0.02327574  1.0
  Al  Al4  1  0.31765140  0.08619101  0.00472297  1.0
  Al  Al5  1  0.09439008  0.31356546  0.00578778  1.0
  H  H6  1  0.53222861  0.28632092  0.71282700  1.0
  H  H7  1  0.14839442  0.85500765  0.83689843  1.0
  H  H8  1  0.12829940  0.90483573  0.91540045  1.0
  H  H9  1  0.19544501  0.74727979  0.70402290  1.0
  H  H10  1  0.92147810  0.12496422  0.91432321  1.0
  H  H11  1  0.87405903  0.14476298  0.83570425  1.0
  H  H12  1  0.88885092  0.17013527  0.68120424  1.0
  H  H13  1  0.63933874  0.56936577  0.61504473  1.0
  H  H14  1  0.87469492  0.47938432  0.81451198  1.0
  H  H15  1  0.92646781  0.45584463  0.89255761  1.0
  H  H16  1  0.51127005  0.27558376  0.79574595  1.0
  H  H17  1  0.68883272  0.54134646  0.69345151  1.0
  H  H18  1  0.44830597  0.11026244  0.11076260  1.0
  H  H19  1  0.47336614  0.12888272  0.18852595  1.0
  H  H20  1  0.49540157  0.15975904  0.33115446  1.0
  H  H21  1  0.51876053  0.18993462  0.40766887  1.0
  H  H22  1  0.23497972  0.53911600  0.39611172  1.0
  H  H23  1  0.17198683  0.47032641  0.18600921  1.0
  H  H24  1  0.14674354  0.44940858  0.10851629  1.0
  H  H25  1  0.21561974  0.51245879  0.31867530  1.0
  H  H26  1  0.50708013  0.75008976  0.28843146  1.0
  H  H27  1  0.14816386  0.34996728  0.79752160  1.0
  H  H28  1  0.49448426  0.80104186  0.20638026  1.0
  H  H29  1  0.12911515  0.89307735  0.30804432  1.0
  H  H30  1  0.79190534  0.21926650  0.21993471  1.0
  H  H31  1  0.89977578  0.48961316  0.20739378  1.0
  H  H32  1  0.86085729  0.50125104  0.29017628  1.0
  H  H33  1  0.16903129  0.36110565  0.71457053  1.0
  H  H34  1  0.44500820  0.94214960  0.88763079  1.0
  H  H35  1  0.46602511  0.89350403  0.80908242  1.0
  H  H36  1  0.47914286  0.83827414  0.66852022  1.0
  H  H37  1  0.21427981  0.69876606  0.62563026  1.0
  H  H38  1  0.89704971  0.01511933  0.59537657  1.0
  H  H39  1  0.02379865  0.98271440  0.25073824  1.0
  H  H40  1  0.08651927  0.09409388  0.17595122  1.0
  H  H41  1  0.95781765  0.07461537  0.18528793  1.0
  H  H42  1  0.08514474  0.97413717  0.15476748  1.0
  H  H43  1  0.73262348  0.22253153  0.34206239  1.0
  H  H44  1  0.70472874  0.07615204  0.31986084  1.0
  H  H45  1  0.80726880  0.06414912  0.27239899  1.0
  H  H46  1  0.65608954  0.16803299  0.27006755  1.0
  H  H47  1  0.52739458  0.76686416  0.55273892  1.0
  H  H48  1  0.66168220  0.82154821  0.56481945  1.0
  H  H49  1  0.65370126  0.76855041  0.62196242  1.0
  H  H50  1  0.55710371  0.91662550  0.60481381  1.0
  H  H51  1  0.70063936  0.68149904  0.46214213  1.0
  H  H52  1  0.98327366  0.96755123  0.06451578  1.0
  C  C53  1  0.69159574  0.41115352  0.55944830  1.0
  C  C54  1  0.23177489  0.33660290  0.77878915  1.0
  C  C55  1  0.24345435  0.34251041  0.73256044  1.0
  C  C56  1  0.35194577  0.32426461  0.70824126  1.0
  C  C57  1  0.32838410  0.31235492  0.80207463  1.0
  C  C58  1  0.31659827  0.30463182  0.84927143  1.0
  C  C59  1  0.36403742  0.33263241  0.66104584  1.0
  C  C60  1  0.30576649  0.29633476  0.88994651  1.0
  C  C61  1  0.35485987  0.74175386  0.60248915  1.0
  C  C62  1  0.27060186  0.73100645  0.63548198  1.0
  C  C63  1  0.26013450  0.75721329  0.67879979  1.0
  C  C64  1  0.39965648  0.36887603  0.57377497  1.0
  C  C65  1  0.33704859  0.79630149  0.69055671  1.0
  C  C66  1  0.42160513  0.80787228  0.65854534  1.0
  C  C67  1  0.43394183  0.78094804  0.61392713  1.0
  C  C68  1  0.39274453  0.89528204  0.83254986  1.0
  C  C69  1  0.38144575  0.92185960  0.87612225  1.0
  C  C70  1  0.20208608  0.90090559  0.89172193  1.0
  C  C71  1  0.21324991  0.87373044  0.84825819  1.0
  C  C72  1  0.30862674  0.87096183  0.81785103  1.0
  C  C73  1  0.31931307  0.84491281  0.77336807  1.0
  C  C74  1  0.32843511  0.82281100  0.73487885  1.0
  C  C75  1  0.36488276  0.70434427  0.55844261  1.0
  C  C76  1  0.28601607  0.92517814  0.90597639  1.0
  C  C77  1  0.73579467  0.38730337  0.60418746  1.0
  C  C78  1  0.69476609  0.48255799  0.62997967  1.0
  C  C79  1  0.72209175  0.46679980  0.67358760  1.0
  C  C80  1  0.79185077  0.35354719  0.69283316  1.0
  C  C81  1  0.83338771  0.25768189  0.66687433  1.0
  C  C82  1  0.80706453  0.27410176  0.62284459  1.0
  C  C83  1  0.88446287  0.21310824  0.84844543  1.0
  C  C84  1  0.91066313  0.20190029  0.89197196  1.0
  C  C85  1  0.91306521  0.38935773  0.87982666  1.0
  C  C86  1  0.71372322  0.39501237  0.43406791  1.0
  C  C87  1  0.88521208  0.40185387  0.83644680  1.0
  C  C88  1  0.87103749  0.31348657  0.81999021  1.0
  C  C89  1  0.84390840  0.32568906  0.77559038  1.0
  C  C90  1  0.82021738  0.33709274  0.73728449  1.0
  C  C91  1  0.92556315  0.28961372  0.90792338  1.0
  C  C92  1  0.37775667  0.36601530  0.40647715  1.0
  C  C93  1  0.29132245  0.45642502  0.38151068  1.0
  C  C94  1  0.28071611  0.44155438  0.33847144  1.0
  C  C95  1  0.35515898  0.33455398  0.31952118  1.0
  C  C96  1  0.43974024  0.24304712  0.34535473  1.0
  C  C97  1  0.39558978  0.38816916  0.45048309  1.0
  C  C98  1  0.45196751  0.25928991  0.38798119  1.0
  C  C99  1  0.40283056  0.19939074  0.17072788  1.0
  C  C100  1  0.38936932  0.18907859  0.12746176  1.0
  C  C101  1  0.21883782  0.38078169  0.12618464  1.0
  C  C102  1  0.23246409  0.39187688  0.16933958  1.0
  C  C103  1  0.32434937  0.30092995  0.19248389  1.0
  C  C104  1  0.33654745  0.31109494  0.23686644  1.0
  C  C105  1  0.34566647  0.32047559  0.27530523  1.0
  C  C106  1  0.29709809  0.27939124  0.10488670  1.0
  C  C107  1  0.33937487  0.75390613  0.38853136  1.0
  C  C108  1  0.37506362  0.70192118  0.43204926  1.0
  C  C109  1  0.42266510  0.79256037  0.27443376  1.0
  C  C110  1  0.41510945  0.82119645  0.22923097  1.0
  C  C111  1  0.19923697  0.90457872  0.23930012  1.0
  C  C112  1  0.20898273  0.87304266  0.28538718  1.0
  C  C113  1  0.31767170  0.81774123  0.30303678  1.0
  C  C114  1  0.30603777  0.87498949  0.21040014  1.0
  C  C115  1  0.30742098  0.89376706  0.16366912  1.0
  C  C116  1  0.32522547  0.78549580  0.34928910  1.0
  C  C117  1  0.30955341  0.90802098  0.12303716  1.0
  C  C118  1  0.76330337  0.37469873  0.38887632  1.0
  C  C119  1  0.37595519  0.34168376  0.62036484  1.0
  C  C120  1  0.78801236  0.28292234  0.28255362  1.0
  C  C121  1  0.80817798  0.27903943  0.23599764  1.0
  C  C122  1  0.86812097  0.43349023  0.22858726  1.0
  C  C123  1  0.84695223  0.43932464  0.27437864  1.0
  C  C124  1  0.80787312  0.36545359  0.30202916  1.0
  C  C125  1  0.84891781  0.35228578  0.20918339  1.0
  C  C126  1  0.87464454  0.34009553  0.16277895  1.0
  C  C127  1  0.78582651  0.37211504  0.34843521  1.0
  C  C128  1  0.90171233  0.32212531  0.12345896  1.0
  C  C129  1  0.26816688  0.96318434  0.95139955  1.0
  C  C130  1  0.44857947  0.29984820  0.73155123  1.0
  C  C131  1  0.28097752  0.27224745  0.93674276  1.0
  C  C132  1  0.96347751  0.27125587  0.95334404  1.0
  C  C133  1  0.28148327  0.95291428  0.07841144  1.0
  C  C134  1  0.27617386  0.26231599  0.06054215  1.0
  C  C135  1  0.95412248  0.28612762  0.07958069  1.0
  C  C136  1  0.43689925  0.29402500  0.77776813  1.0
  C  C137  1  0.86675340  0.17167470  0.59511221  1.0
  C  C138  1  0.05414580  0.02830344  0.18296667  1.0
  C  C139  1  0.72853687  0.12625162  0.29184134  1.0
  C  C140  1  0.60140104  0.82637040  0.59481417  1.0
  N  N141  1  0.08860940  0.95955266  0.22524504  1.0
  N  N142  1  0.75126954  0.21055065  0.30902976  1.0
  N  N143  1  0.51883789  0.79047569  0.58421234  1.0
  O  O144  1  0.44578733  0.70624433  0.52900015  1.0
  O  O145  1  0.49070921  0.31642709  0.46786508  1.0
  O  O146  1  0.31649407  0.48199640  0.46740571  1.0
  O  O147  1  0.29931559  0.68530134  0.46106245  1.0
  O  O148  1  0.49664092  0.50302498  0.50027732  1.0
  O  O149  1  0.97524370  0.17905393  0.97697006  1.0
  O  O150  1  0.17392324  0.97858712  0.97530681  1.0
  O  O151  1  0.34935047  0.98267205  0.96287499  1.0
  O  O152  1  0.35401291  0.17541282  0.95521108  1.0
  O  O153  1  0.18420694  0.34662003  0.95576248  1.0
  O  O154  1  0.98665642  0.34944890  0.96489671  1.0
  O  O155  1  0.65660314  0.51410091  0.54151095  1.0
  O  O156  1  0.97914967  0.18371407  0.07202047  1.0
  O  O157  1  0.17810388  0.97957221  0.07016874  1.0
  O  O158  1  0.36030106  0.96776984  0.05054176  1.0
  O  O159  1  0.35013158  0.16797955  0.04280368  1.0
  O  O160  1  0.18226084  0.33959313  0.04363454  1.0
  O  O161  1  0.97554168  0.36091698  0.05216184  1.0
  O  O162  1  0.16240091  0.15971505  0.01124545  1.0
  O  O163  1  0.68561396  0.32758154  0.54361384  1.0
  O  O164  1  0.50169042  0.30196555  0.55525385  1.0
  O  O165  1  0.32094516  0.46039176  0.55483164  1.0
  O  O166  1  0.29317981  0.66623530  0.55072637  1.0
  O  O167  1  0.48046905  0.67345063  0.43768261  1.0
  O  O168  1  0.69313486  0.49014161  0.44840060  1.0
  O  O169  1  0.68940624  0.31498936  0.45605245  1.0
  O  O170  1  0.92812835  0.16836993  0.56026449  1.0
  O  O171  1  0.85055349  0.07872141  0.61486743  1.0
  O  O172  1  0.63306172  0.69817923  0.48383752  1.0
  O  O173  1  0.98742306  0.00102494  0.03425365  1.0
