# generated using pymatgen
data_AlH12C15(NO2)3
_symmetry_space_group_name_H-M   'P 1'
_cell_length_a   3.92038274
_cell_length_b   17.21833101
_cell_length_c   17.21830467
_cell_angle_alpha   119.99987335
_cell_angle_beta   90.00013825
_cell_angle_gamma   90.00013148
_symmetry_Int_Tables_number   1
_chemical_formula_structural   AlH12C15(NO2)3
_chemical_formula_sum   'Al2 H24 C30 N6 O12'
_cell_volume   1006.56330797
_cell_formula_units_Z   2
loop_
 _symmetry_equiv_pos_site_id
 _symmetry_equiv_pos_as_xyz
  1  'x, y, z'
loop_
 _atom_site_type_symbol
 _atom_site_label
 _atom_site_symmetry_multiplicity
 _atom_site_fract_x
 _atom_site_fract_y
 _atom_site_fract_z
 _atom_site_occupancy
  Al  Al0  1  0.01631790  0.99999919  0.50000004  1.0
  Al  Al1  1  0.98395049  0.33333443  0.16666657  1.0
  H  H2  1  0.72997813  0.58301408  0.47025432  1.0
  H  H3  1  0.27458636  0.58224866  0.47026874  1.0
  H  H4  1  0.27003962  0.75023878  0.55392917  1.0
  H  H5  1  0.72544159  0.75100689  0.55465659  1.0
  H  H6  1  0.72998102  0.02974733  0.11276095  1.0
  H  H7  1  0.27458926  0.02973099  0.11197964  1.0
  H  H8  1  0.27004126  0.94607079  0.19630951  1.0
  H  H9  1  0.72544322  0.94534543  0.19635176  1.0
  H  H10  1  0.72998449  0.38723998  0.91698735  1.0
  H  H11  1  0.27458764  0.38802034  0.91775142  1.0
  H  H12  1  0.27004341  0.30369107  0.74976144  1.0
  H  H13  1  0.72544537  0.30364974  0.74899460  1.0
  H  H14  1  0.55764050  0.82417257  0.26798104  1.0
  H  H15  1  0.37167816  0.73416565  0.18110586  1.0
  H  H16  1  0.44245292  0.50911835  0.11041807  1.0
  H  H17  1  0.62839441  0.59915684  0.11358244  1.0
  H  H18  1  0.55763640  0.23201996  0.55619154  1.0
  H  H19  1  0.37167283  0.31889495  0.55305931  1.0
  H  H20  1  0.44244607  0.38958136  0.39869857  1.0
  H  H21  1  0.62838754  0.38641673  0.48557275  1.0
  H  H22  1  0.55763814  0.94380925  0.67582835  1.0
  H  H23  1  0.37167975  0.94694155  0.76583579  1.0
  H  H24  1  0.44244775  0.10129988  0.99088252  1.0
  H  H25  1  0.62839298  0.01442697  0.90084460  1.0
  C  C26  1  0.51517587  0.06707632  0.63834693  1.0
  C  C27  1  0.51517374  0.86165350  0.42872964  1.0
  C  C28  1  0.51517226  0.07127122  0.43292453  1.0
  C  C29  1  0.48493137  0.47164122  0.23370978  1.0
  C  C30  1  0.48492782  0.26628932  0.23793007  1.0
  C  C31  1  0.48492670  0.26206993  0.02835919  1.0
  C  C32  1  0.48659267  0.57064446  0.28164615  1.0
  C  C33  1  0.51325990  0.76265898  0.37765563  1.0
  C  C34  1  0.50059715  0.62027850  0.37509650  1.0
  C  C35  1  0.51651649  0.71434273  0.28288547  1.0
  C  C36  1  0.49916432  0.71304630  0.42148441  1.0
  C  C37  1  0.48347563  0.61894539  0.23517349  1.0
  C  C38  1  0.50117403  0.61348100  0.45967099  1.0
  C  C39  1  0.49880518  0.71977860  0.51284296  1.0
  C  C40  1  0.48658829  0.21835351  0.28899818  1.0
  C  C41  1  0.51324898  0.12234450  0.38500327  1.0
  C  C42  1  0.50059388  0.12490369  0.24518186  1.0
  C  C43  1  0.51650448  0.21711545  0.43145596  1.0
  C  C44  1  0.49916036  0.07851605  0.29156170  1.0
  C  C45  1  0.48347453  0.26482823  0.38377159  1.0
  C  C46  1  0.50117455  0.04032959  0.15381047  1.0
  C  C47  1  0.49880745  0.98715726  0.20693543  1.0
  C  C48  1  0.48659163  0.21100234  0.92935581  1.0
  C  C49  1  0.51325590  0.11499757  0.73734279  1.0
  C  C50  1  0.50059532  0.25481816  0.87972239  1.0
  C  C51  1  0.51651326  0.06854353  0.78565943  1.0
  C  C52  1  0.49916872  0.20843933  0.78695472  1.0
  C  C53  1  0.48347130  0.11622937  0.88105639  1.0
  C  C54  1  0.50117483  0.34618976  0.88651987  1.0
  C  C55  1  0.49880944  0.29306583  0.78022128  1.0
  N  N56  1  0.54776848  0.75609438  0.23130583  1.0
  N  N57  1  0.45233256  0.57720793  0.14185281  1.0
  N  N58  1  0.54776238  0.26869496  0.52478777  1.0
  N  N59  1  0.45232270  0.35814794  0.43535405  1.0
  N  N60  1  0.54776717  0.97521308  0.74390706  1.0
  N  N61  1  0.45232890  0.06464573  0.92279331  1.0
  O  O62  1  0.28223032  0.01237573  0.41327911  1.0
  O  O63  1  0.28223677  0.08672143  0.59909722  1.0
  O  O64  1  0.28223270  0.90090149  0.48762397  1.0
  O  O65  1  0.74873914  0.08884093  0.49154942  1.0
  O  O66  1  0.74874544  0.90270846  0.41115818  1.0
  O  O67  1  0.74874439  0.00845069  0.59729322  1.0
  O  O68  1  0.25137565  0.24447667  0.06940539  1.0
  O  O69  1  0.25138479  0.43059571  0.17507057  1.0
  O  O70  1  0.25137958  0.32492973  0.25552487  1.0
  O  O71  1  0.71793251  0.32094998  0.06756559  1.0
  O  O72  1  0.71793272  0.24661679  0.17905073  1.0
  O  O73  1  0.71793659  0.43243474  0.25338227  1.0
