# generated using pymatgen
data_Zn4H49C53N17O13
_symmetry_space_group_name_H-M   'P 1'
_cell_length_a   17.80224409
_cell_length_b   19.25158783
_cell_length_c   19.28410055
_cell_angle_alpha   94.35975956
_cell_angle_beta   98.99944753
_cell_angle_gamma   104.41339824
_symmetry_Int_Tables_number   1
_chemical_formula_structural   Zn4H49C53N17O13
_chemical_formula_sum   'Zn4 H49 C53 N17 O13'
_cell_volume   6276.44070147
_cell_formula_units_Z   1
loop_
 _symmetry_equiv_pos_site_id
 _symmetry_equiv_pos_as_xyz
  1  'x, y, z'
loop_
 _atom_site_type_symbol
 _atom_site_label
 _atom_site_symmetry_multiplicity
 _atom_site_fract_x
 _atom_site_fract_y
 _atom_site_fract_z
 _atom_site_occupancy
  Zn  Zn0  1  0.57306667  0.45771273  0.45476093  1.0
  Zn  Zn1  1  0.43227246  0.43031337  0.54818768  1.0
  Zn  Zn2  1  0.43914495  0.54125169  0.43683075  1.0
  Zn  Zn3  1  0.56837552  0.57590638  0.57755640  1.0
  H  H4  1  0.61420935  0.53448015  0.93423661  1.0
  H  H5  1  0.96305139  0.64852576  0.69692146  1.0
  H  H6  1  0.80585956  0.48655147  0.48610897  1.0
  H  H7  1  0.14897692  0.54629024  0.60206710  1.0
  H  H8  1  0.85683391  0.43288576  0.42599462  1.0
  H  H9  1  0.07732039  0.66653035  0.70399811  1.0
  H  H10  1  0.15393945  0.63292563  0.69374811  1.0
  H  H11  1  0.98019340  0.30680962  0.31570362  1.0
  H  H12  1  0.02820932  0.24457079  0.23584745  1.0
  H  H13  1  0.10796494  0.25482857  0.30814895  1.0
  H  H14  1  0.11473089  0.31658127  0.24357632  1.0
  H  H15  1  0.59235818  0.43462781  0.24610286  1.0
  H  H16  1  0.68927812  0.56132574  0.85038252  1.0
  H  H17  1  0.68961815  0.45359703  0.77533468  1.0
  H  H18  1  0.72675690  0.53473655  0.73669142  1.0
  H  H19  1  0.62953415  0.48177126  0.70655935  1.0
  H  H20  1  0.65183964  0.40913800  0.14040605  1.0
  H  H21  1  0.61217521  0.42859718  0.05913571  1.0
  H  H22  1  0.39159231  0.59580772  0.10952436  1.0
  H  H23  1  0.42534855  0.56640804  0.03476322  1.0
  H  H24  1  0.34589236  0.47823938  0.93050858  1.0
  H  H25  1  0.22457149  0.45978253  0.85809684  1.0
  H  H26  1  0.37677256  0.47140108  0.74551644  1.0
  H  H27  1  0.25993231  0.41602547  0.79049135  1.0
  H  H28  1  0.27488020  0.51158280  0.79828448  1.0
  H  H29  1  0.45000922  0.64657930  0.20902169  1.0
  H  H30  1  0.44550720  0.60211520  0.28155159  1.0
  H  H31  1  0.63553554  0.30650726  0.47625626  1.0
  H  H32  1  0.68374551  0.24253635  0.50077101  1.0
  H  H33  1  0.61543173  0.05827801  0.49081596  1.0
  H  H34  1  0.65729232  0.13693105  0.45421825  1.0
  H  H35  1  0.64948716  0.74864598  0.56457057  1.0
  H  H36  1  0.70114793  0.83958898  0.58022880  1.0
  H  H37  1  0.20164023  0.49680923  0.54505973  1.0
  H  H38  1  0.34541963  0.85456632  0.41984130  1.0
  H  H39  1  0.27728019  0.91605981  0.48565871  1.0
  H  H40  1  0.30741516  0.85576948  0.54390920  1.0
  H  H41  1  0.36305748  0.94835345  0.55248671  1.0
  H  H42  1  0.32292122  0.75920258  0.45877621  1.0
  H  H43  1  0.36915510  0.68927688  0.45623560  1.0
  H  H44  1  0.85992598  0.67520309  0.71981373  1.0
  H  H45  1  0.82974142  0.75735045  0.63843672  1.0
  H  H46  1  0.74971035  0.72651827  0.68449909  1.0
  H  H47  1  0.74455231  0.68779166  0.59701698  1.0
  H  H48  1  0.64361090  0.93241680  0.55461863  1.0
  H  H49  1  0.38160203  0.21373797  0.52487034  1.0
  H  H50  1  0.37574214  0.08392639  0.53880056  1.0
  H  H51  1  0.19464918  0.37214197  0.34971005  1.0
  H  H52  1  0.92256789  0.37121629  0.35167949  1.0
  C  C53  1  0.50232912  0.50652300  0.69163004  1.0
  C  C54  1  0.91981431  0.43927191  0.44236877  1.0
  C  C55  1  0.95735000  0.40362851  0.40033613  1.0
  C  C56  1  0.51960091  0.50848086  0.32011542  1.0
  C  C57  1  0.03989262  0.41131476  0.41716682  1.0
  C  C58  1  0.08390962  0.45617115  0.48026526  1.0
  C  C59  1  0.08018496  0.37676757  0.37152496  1.0
  C  C60  1  0.16232140  0.39363346  0.38569357  1.0
  C  C61  1  0.16628342  0.46542720  0.49640414  1.0
  C  C62  1  0.52151483  0.51032512  0.24374569  1.0
  C  C63  1  0.48128882  0.55207092  0.20229951  1.0
  C  C64  1  0.85001676  0.61087382  0.63137837  1.0
  C  C65  1  0.47842310  0.54451668  0.12794811  1.0
  C  C66  1  0.52260002  0.50228842  0.09694096  1.0
  C  C67  1  0.56654365  0.46353765  0.14095301  1.0
  C  C68  1  0.49897400  0.31457068  0.49678548  1.0
  C  C69  1  0.56331510  0.46673582  0.21250468  1.0
  C  C70  1  0.56274117  0.52209391  0.89180726  1.0
  C  C71  1  0.57246039  0.52351399  0.82120046  1.0
  C  C72  1  0.48840847  0.50807934  0.91141231  1.0
  C  C73  1  0.50273443  0.50517483  0.76887836  1.0
  C  C74  1  0.42813839  0.48725656  0.78783988  1.0
  C  C75  1  0.84303673  0.52250102  0.53149100  1.0
  C  C76  1  0.41859021  0.49042789  0.85863314  1.0
  C  C77  1  0.51151709  0.76537414  0.50793625  1.0
  C  C78  1  0.44318657  0.79024545  0.48407432  1.0
  C  C79  1  0.44624425  0.86515614  0.48958384  1.0
  C  C80  1  0.50597009  0.68831578  0.50911501  1.0
  C  C81  1  0.52021396  0.91543059  0.51562426  1.0
  C  C82  1  0.58771245  0.89165427  0.53628834  1.0
  C  C83  1  0.58534019  0.81864691  0.53398292  1.0
  C  C84  1  0.56059717  0.13742846  0.49870494  1.0
  C  C85  1  0.56451189  0.21185949  0.49228945  1.0
  C  C86  1  0.92358436  0.52578315  0.54822529  1.0
  C  C87  1  0.49190425  0.09192631  0.51630963  1.0
  C  C88  1  0.49888657  0.23822544  0.50117301  1.0
  C  C89  1  0.43071647  0.19135627  0.51798347  1.0
  C  C90  1  0.42762871  0.12057642  0.52591594  1.0
  C  C91  1  0.29213784  0.45420344  0.46394873  1.0
  C  C92  1  0.71736985  0.54529408  0.54883857  1.0
  C  C93  1  0.80482089  0.56218901  0.57052999  1.0
  C  C94  1  0.20434510  0.43701368  0.44848860  1.0
  C  C95  1  0.92957675  0.61251126  0.64972893  1.0
  C  C96  1  0.07416181  0.28415051  0.27371131  1.0
  C  C97  1  0.96769539  0.57205505  0.61040288  1.0
  C  C98  1  0.67501375  0.50129945  0.75392973  1.0
  C  C99  1  0.27325972  0.46500637  0.82871886  1.0
  C  C100  1  0.32862050  0.90180827  0.51442902  1.0
  C  C101  1  0.78437900  0.70957836  0.64721371  1.0
  C  C102  1  0.96146849  0.48506870  0.50504204  1.0
  C  C103  1  0.04356272  0.49281963  0.52483693  1.0
  C  C104  1  0.08573613  0.53944598  0.58697363  1.0
  C  C105  1  0.05092737  0.57830018  0.62910357  1.0
  N  N106  1  0.52851177  0.49439529  0.02644460  1.0
  N  N107  1  0.34583344  0.47398717  0.87785514  1.0
  N  N108  1  0.43901199  0.59765044  0.22779811  1.0
  N  N109  1  0.63366266  0.25312092  0.47613790  1.0
  N  N110  1  0.62479001  0.11301444  0.48899787  1.0
  N  N111  1  0.65472741  0.80012652  0.55332199  1.0
  N  N112  1  0.37793603  0.88694962  0.46412073  1.0
  N  N113  1  0.37194732  0.74263499  0.45482574  1.0
  N  N114  1  0.81942369  0.65390872  0.67509175  1.0
  N  N115  1  0.47698282  0.51155292  0.98119808  1.0
  N  N116  1  0.53568794  0.99036630  0.51671356  1.0
  N  N117  1  0.47856530  0.01849725  0.52252256  1.0
  N  N118  1  0.09459631  0.62174605  0.69045171  1.0
  N  N119  1  0.03738378  0.32917998  0.31332819  1.0
  N  N120  1  0.64836078  0.54522793  0.80520669  1.0
  N  N121  1  0.60555460  0.41964500  0.10938833  1.0
  N  N122  1  0.43504434  0.58192119  0.08791749  1.0
  O  O123  1  0.50426311  0.50012473  0.50400600  1.0
  O  O124  1  0.32401782  0.44057318  0.52362064  1.0
  O  O125  1  0.67927994  0.57311050  0.58902730  1.0
  O  O126  1  0.32877774  0.48236642  0.41656306  1.0
  O  O127  1  0.68601754  0.50210032  0.49201697  1.0
  O  O128  1  0.55705735  0.35642346  0.47498058  1.0
  O  O129  1  0.56421304  0.66937358  0.54435444  1.0
  O  O130  1  0.45931196  0.45020671  0.65147437  1.0
  O  O131  1  0.48178755  0.54835590  0.34924270  1.0
  O  O132  1  0.54224958  0.56380536  0.67147980  1.0
  O  O133  1  0.55486478  0.46700400  0.35311938  1.0
  O  O134  1  0.44075316  0.33456872  0.51507786  1.0
  O  O135  1  0.44316417  0.64059539  0.47579021  1.0
