# generated using pymatgen
data_AlH5C11SNO5F
_symmetry_space_group_name_H-M   'P 1'
_cell_length_a   6.67454446
_cell_length_b   12.73342712
_cell_length_c   16.92979288
_cell_angle_alpha   90.99883480
_cell_angle_beta   97.13995247
_cell_angle_gamma   104.59123937
_symmetry_Int_Tables_number   1
_chemical_formula_structural   AlH5C11SNO5F
_chemical_formula_sum   'Al2 H10 C22 S2 N2 O10 F2'
_cell_volume   1379.87453798
_cell_formula_units_Z   2
loop_
 _symmetry_equiv_pos_site_id
 _symmetry_equiv_pos_as_xyz
  1  'x, y, z'
loop_
 _atom_site_type_symbol
 _atom_site_label
 _atom_site_symmetry_multiplicity
 _atom_site_fract_x
 _atom_site_fract_y
 _atom_site_fract_z
 _atom_site_occupancy
  Al  Al0  1  0.99999932  0.50000045  0.50000114  1.0
  Al  Al1  1  0.50000084  0.50000084  0.50000100  1.0
  H  H2  1  0.17056098  0.37146274  0.45096738  1.0
  H  H3  1  0.82943776  0.62854138  0.54903373  1.0
  H  H4  1  0.64966527  0.50296260  0.73607042  1.0
  H  H5  1  0.71071165  0.50008260  0.88607692  1.0
  H  H6  1  0.06865331  0.49508151  0.89568413  1.0
  H  H7  1  0.00705715  0.49635566  0.74500975  1.0
  H  H8  1  0.93134149  0.50491776  0.10431795  1.0
  H  H9  1  0.28928890  0.49991905  0.11392310  1.0
  H  H10  1  0.35032612  0.49703585  0.26393031  1.0
  H  H11  1  0.99293645  0.50364117  0.25499169  1.0
  C  C12  1  0.65337239  0.30553018  0.50863054  1.0
  C  C13  1  0.70870749  0.49681128  0.35608889  1.0
  C  C14  1  0.34662434  0.69446969  0.49136219  1.0
  C  C15  1  0.29129185  0.50318794  0.64391107  1.0
  C  C16  1  0.32525542  0.50017307  0.73256568  1.0
  C  C17  1  0.52430430  0.50116222  0.77197766  1.0
  C  C18  1  0.55830804  0.49976482  0.85432627  1.0
  C  C19  1  0.39243525  0.49811348  0.89868655  1.0
  C  C20  1  0.19341189  0.49660165  0.85942840  1.0
  C  C21  1  0.15987858  0.49737125  0.77674861  1.0
  C  C22  1  0.80658030  0.50339843  0.14057297  1.0
  C  C23  1  0.60756420  0.50188896  0.10131223  1.0
  C  C24  1  0.44169018  0.50023523  0.14567481  1.0
  C  C25  1  0.47568738  0.49883377  0.22802250  1.0
  C  C26  1  0.67473858  0.49982450  0.26743282  1.0
  C  C27  1  0.84011571  0.50262399  0.22325463  1.0
  C  C28  1  0.29459660  0.88506381  0.51628048  1.0
  C  C29  1  0.70541300  0.11493767  0.48371350  1.0
  C  C30  1  0.40453098  0.81350123  0.49291158  1.0
  C  C31  1  0.59546918  0.18649930  0.50707483  1.0
  C  C32  1  0.59758790  0.00483727  0.48681529  1.0
  C  C33  1  0.40241115  0.99516413  0.51317343  1.0
  S  S34  1  0.64642741  0.88127043  0.46695492  1.0
  S  S35  1  0.35357465  0.11873101  0.53303631  1.0
  N  N36  1  0.40911545  0.49783159  0.98266543  1.0
  N  N37  1  0.59088278  0.50216844  0.01733447  1.0
  O  O38  1  0.83963669  0.35197008  0.49789383  1.0
  O  O39  1  0.54670127  0.48089858  0.39171548  1.0
  O  O40  1  0.48990179  0.64772027  0.48035867  1.0
  O  O41  1  0.10433088  0.49133146  0.61065755  1.0
  O  O42  1  0.16036537  0.64803154  0.50210508  1.0
  O  O43  1  0.45329041  0.51909740  0.60828409  1.0
  O  O44  1  0.51010176  0.35228140  0.51964269  1.0
  O  O45  1  0.89566745  0.50867184  0.38934354  1.0
  O  O46  1  0.21471933  0.44812508  0.46712435  1.0
  O  O47  1  0.78528614  0.55187743  0.53287828  1.0
  F  F48  1  0.10550464  0.85488438  0.54118826  1.0
  F  F49  1  0.89450114  0.14511547  0.45880494  1.0
