# generated using pymatgen
data_Cu4MoH28C28(S2N3)2
_symmetry_space_group_name_H-M   'P 1'
_cell_length_a   9.78714730
_cell_length_b   11.62416873
_cell_length_c   18.23880622
_cell_angle_alpha   89.99970920
_cell_angle_beta   99.35325645
_cell_angle_gamma   90.00001496
_symmetry_Int_Tables_number   1
_chemical_formula_structural   Cu4MoH28C28(S2N3)2
_chemical_formula_sum   'Cu8 Mo2 H56 C56 S8 N12'
_cell_volume   2047.39577603
_cell_formula_units_Z   2
loop_
 _symmetry_equiv_pos_site_id
 _symmetry_equiv_pos_as_xyz
  1  'x, y, z'
loop_
 _atom_site_type_symbol
 _atom_site_label
 _atom_site_symmetry_multiplicity
 _atom_site_fract_x
 _atom_site_fract_y
 _atom_site_fract_z
 _atom_site_occupancy
  Cu  Cu0  1  0.03375439  0.63151871  0.10710531  1.0
  Cu  Cu1  1  0.72110761  0.64270884  0.21854683  1.0
  Cu  Cu2  1  0.96626662  0.63150307  0.39290423  1.0
  Cu  Cu3  1  0.27891040  0.64271455  0.28146628  1.0
  Cu  Cu4  1  0.96626388  0.36849903  0.89290532  1.0
  Cu  Cu5  1  0.27889614  0.35727794  0.78146212  1.0
  Cu  Cu6  1  0.03372663  0.36847080  0.60709895  1.0
  Cu  Cu7  1  0.72108488  0.35727481  0.71853541  1.0
  Mo  Mo8  1  0.00000906  0.61961105  0.25000548  1.0
  Mo  Mo9  1  0.99999341  0.38037057  0.74999514  1.0
  H  H10  1  0.44059163  0.57352131  0.15647497  1.0
  H  H11  1  0.30424594  0.43301095  0.06856340  1.0
  H  H12  1  0.69312107  0.28884858  0.03112419  1.0
  H  H13  1  0.81223392  0.43494041  0.11998528  1.0
  H  H14  1  0.47021815  0.23947877  0.94600181  1.0
  H  H15  1  0.31349647  0.30091104  0.96175906  1.0
  H  H16  1  0.31405375  0.17500538  0.07382515  1.0
  H  H17  1  0.47188114  0.11318771  0.05921825  1.0
  H  H18  1  0.36076260  0.04124442  0.93452479  1.0
  H  H19  1  0.20740638  0.11314714  0.94175978  1.0
  H  H20  1  0.07251160  0.94030229  0.91433385  1.0
  H  H21  1  0.98175365  0.76315234  0.96597907  1.0
  H  H22  1  0.28778195  0.77478042  0.15394883  1.0
  H  H23  1  0.38828276  0.95038800  0.11012287  1.0
  H  H24  1  0.55941614  0.57352315  0.34353974  1.0
  H  H25  1  0.69574841  0.43300438  0.43144852  1.0
  H  H26  1  0.30687211  0.28884506  0.46887988  1.0
  H  H27  1  0.18776746  0.43494272  0.38002006  1.0
  H  H28  1  0.52977557  0.23946229  0.55400312  1.0
  H  H29  1  0.68649727  0.30089644  0.53824788  1.0
  H  H30  1  0.68593945  0.17500316  0.42617709  1.0
  H  H31  1  0.52811523  0.11317844  0.44078498  1.0
  H  H32  1  0.63924564  0.04123131  0.56547754  1.0
  H  H33  1  0.79259650  0.11313758  0.55823806  1.0
  H  H34  1  0.92748876  0.94029513  0.58566661  1.0
  H  H35  1  0.01824906  0.76314362  0.53402708  1.0
  H  H36  1  0.71222839  0.77476938  0.34605228  1.0
  H  H37  1  0.61172837  0.95037917  0.38987445  1.0
  H  H38  1  0.55940575  0.42647752  0.84352798  1.0
  H  H39  1  0.69575241  0.56699218  0.93143744  1.0
  H  H40  1  0.30688149  0.71115970  0.96887918  1.0
  H  H41  1  0.18776453  0.56506529  0.88001885  1.0
  H  H42  1  0.52979058  0.76052607  0.05400094  1.0
  H  H43  1  0.68651103  0.69910069  0.03823702  1.0
  H  H44  1  0.68593204  0.82500893  0.92617031  1.0
  H  H45  1  0.52810804  0.88682402  0.94078680  1.0
  H  H46  1  0.63924504  0.95876731  0.06547568  1.0
  H  H47  1  0.79259491  0.88686028  0.05823581  1.0
  H  H48  1  0.92748882  0.05970599  0.08566715  1.0
  H  H49  1  0.01824590  0.23685939  0.03402734  1.0
  H  H50  1  0.71222574  0.22523647  0.84605329  1.0
  H  H51  1  0.61172477  0.04962372  0.88987431  1.0
  H  H52  1  0.44057391  0.42647395  0.65645989  1.0
  H  H53  1  0.30424162  0.56699874  0.56855057  1.0
  H  H54  1  0.69312727  0.71115119  0.53112104  1.0
  H  H55  1  0.81222881  0.56505008  0.61998062  1.0
  H  H56  1  0.47023307  0.76053309  0.44599633  1.0
  H  H57  1  0.31350611  0.69910238  0.46174842  1.0
  H  H58  1  0.31405556  0.82500168  0.57381581  1.0
  H  H59  1  0.47188611  0.88682296  0.55921225  1.0
  H  H60  1  0.36077633  0.95877268  0.43451858  1.0
  H  H61  1  0.20742305  0.88686039  0.44174635  1.0
  H  H62  1  0.07250721  0.05970284  0.41432362  1.0
  H  H63  1  0.98173785  0.23684660  0.46597121  1.0
  H  H64  1  0.28776576  0.22521654  0.65394604  1.0
  H  H65  1  0.38827377  0.04961191  0.61011517  1.0
  C  C66  1  0.55997456  0.71514573  0.24222297  1.0
  C  C67  1  0.49111162  0.50844495  0.12670229  1.0
  C  C68  1  0.41717381  0.42968768  0.07833964  1.0
  C  C69  1  0.48761516  0.34828588  0.04210828  1.0
  C  C70  1  0.63261772  0.34998230  0.05776576  1.0
  C  C71  1  0.69917789  0.43152859  0.10683647  1.0
  C  C72  1  0.41031285  0.26197826  0.99007658  1.0
  C  C73  1  0.37547494  0.15230029  0.03028544  1.0
  C  C74  1  0.29489621  0.06796013  0.97529778  1.0
  C  C75  1  0.23974011  0.96182921  0.00732056  1.0
  C  C76  1  0.12348237  0.90600974  0.96744920  1.0
  C  C77  1  0.07223117  0.80751140  0.99598560  1.0
  C  C78  1  0.24121530  0.81361609  0.10085794  1.0
  C  C79  1  0.29809666  0.91292825  0.07536969  1.0
  C  C80  1  0.44004139  0.71515770  0.25779193  1.0
  C  C81  1  0.50888779  0.50844913  0.37330759  1.0
  C  C82  1  0.58283191  0.42968288  0.42167264  1.0
  C  C83  1  0.51237708  0.34827992  0.45789991  1.0
  C  C84  1  0.36738072  0.34998245  0.44224291  1.0
  C  C85  1  0.30081942  0.43153169  0.39317075  1.0
  C  C86  1  0.58968191  0.26196817  0.50992892  1.0
  C  C87  1  0.62452138  0.15229168  0.46971712  1.0
  C  C88  1  0.70510365  0.06795081  0.52470162  1.0
  C  C89  1  0.76026178  0.96181960  0.49267874  1.0
  C  C90  1  0.87652118  0.90600041  0.53255382  1.0
  C  C91  1  0.92777145  0.80750316  0.50401876  1.0
  C  C92  1  0.75879507  0.81360550  0.39914524  1.0
  C  C93  1  0.70191045  0.91291830  0.42463017  1.0
  C  C94  1  0.44003013  0.28484621  0.75778275  1.0
  C  C95  1  0.50888269  0.49155903  0.87330152  1.0
  C  C96  1  0.58282866  0.57031201  0.92166098  1.0
  C  C97  1  0.51238221  0.65172154  0.95789413  1.0
  C  C98  1  0.36738582  0.65001910  0.94223603  1.0
  C  C99  1  0.30082058  0.56847797  0.89316822  1.0
  C  C100  1  0.58969270  0.73802830  0.00992318  1.0
  C  C101  1  0.62451921  0.84771144  0.96971342  1.0
  C  C102  1  0.70510516  0.93204815  0.02470056  1.0
  C  C103  1  0.76026026  0.03818165  0.99267880  1.0
  C  C104  1  0.87651916  0.09400112  0.03255463  1.0
  C  C105  1  0.92776728  0.19250033  0.00401854  1.0
  C  C106  1  0.75879036  0.18639650  0.89914567  1.0
  C  C107  1  0.70190994  0.08708606  0.92463070  1.0
  C  C108  1  0.55995184  0.28483511  0.74221015  1.0
  C  C109  1  0.49110009  0.49155400  0.62668859  1.0
  C  C110  1  0.41716548  0.57031422  0.57833087  1.0
  C  C111  1  0.48761606  0.65172149  0.54209942  1.0
  C  C112  1  0.63262187  0.65001294  0.55776155  1.0
  C  C113  1  0.69916850  0.56846713  0.60682707  1.0
  C  C114  1  0.41032155  0.73802979  0.49007013  1.0
  C  C115  1  0.37547985  0.84770801  0.53027627  1.0
  C  C116  1  0.29490369  0.93204801  0.47528896  1.0
  C  C117  1  0.23973834  0.03817492  0.50731237  1.0
  C  C118  1  0.12347278  0.09399583  0.46743845  1.0
  C  C119  1  0.07222265  0.19248362  0.49597845  1.0
  C  C120  1  0.24119896  0.18637784  0.60084923  1.0
  C  C121  1  0.29808144  0.08707536  0.57536193  1.0
  S  S122  1  0.88098755  0.73604736  0.16529399  1.0
  S  S123  1  0.15422144  0.51879805  0.19672109  1.0
  S  S124  1  0.11902942  0.73604486  0.33472093  1.0
  S  S125  1  0.84580677  0.51878740  0.30328499  1.0
  S  S126  1  0.11901629  0.26394286  0.83471770  1.0
  S  S127  1  0.84578407  0.48119647  0.80327757  1.0
  S  S128  1  0.88096818  0.26393074  0.66528917  1.0
  S  S129  1  0.15419265  0.48118562  0.69671703  1.0
  N  N130  1  0.98701229  0.53125223  0.02187132  1.0
  N  N131  1  0.63038237  0.51021450  0.14063832  1.0
  N  N132  1  0.12941610  0.76130281  0.06180649  1.0
  N  N133  1  0.01298913  0.53123737  0.47813755  1.0
  N  N134  1  0.36962325  0.51021875  0.35937205  1.0
  N  N135  1  0.87059019  0.76129108  0.43819709  1.0
  N  N136  1  0.01299235  0.46876380  0.97813276  1.0
  N  N137  1  0.36961708  0.48978690  0.85936480  1.0
  N  N138  1  0.87058755  0.23871235  0.93819861  1.0
  N  N139  1  0.98699494  0.46874253  0.52186929  1.0
  N  N140  1  0.63036989  0.48977577  0.64062728  1.0
  N  N141  1  0.12939878  0.23869312  0.56180082  1.0
