# generated using pymatgen
data_Cu3H18(C14N3)2
_symmetry_space_group_name_H-M   'P 1'
_cell_length_a   29.40935978
_cell_length_b   32.66650930
_cell_length_c   32.73248752
_cell_angle_alpha   88.56825545
_cell_angle_beta   88.95788563
_cell_angle_gamma   89.84094607
_symmetry_Int_Tables_number   1
_chemical_formula_structural   Cu3H18(C14N3)2
_chemical_formula_sum   'Cu12 H72 C112 N24'
_cell_volume   31431.03563794
_cell_formula_units_Z   4
loop_
 _symmetry_equiv_pos_site_id
 _symmetry_equiv_pos_as_xyz
  1  'x, y, z'
loop_
 _atom_site_type_symbol
 _atom_site_label
 _atom_site_symmetry_multiplicity
 _atom_site_fract_x
 _atom_site_fract_y
 _atom_site_fract_z
 _atom_site_occupancy
  Cu  Cu0  1  0.17291116  0.91092799  0.87901889  1.0
  Cu  Cu1  1  0.10956687  0.85160943  0.83349855  1.0
  Cu  Cu2  1  0.11775328  0.84452665  0.93061927  1.0
  Cu  Cu3  1  0.65363559  0.58640929  0.10701565  1.0
  Cu  Cu4  1  0.59817563  0.63764292  0.17358229  1.0
  Cu  Cu5  1  0.62706697  0.67801464  0.08838438  1.0
  Cu  Cu6  1  0.33310276  0.08512352  0.37991156  1.0
  Cu  Cu7  1  0.42040777  0.12851498  0.33759658  1.0
  Cu  Cu8  1  0.36409666  0.17303855  0.40650957  1.0
  Cu  Cu9  1  0.84714169  0.42477378  0.61740466  1.0
  Cu  Cu10  1  0.90597523  0.36019055  0.66905226  1.0
  Cu  Cu11  1  0.87008481  0.33827671  0.58191384  1.0
  H  H12  1  0.67664344  0.47849299  0.35000565  1.0
  H  H13  1  0.58426632  0.41558552  0.27248887  1.0
  H  H14  1  0.70856273  0.44226923  0.41036446  1.0
  H  H15  1  0.66016331  0.32163341  0.44542071  1.0
  H  H16  1  0.59925495  0.28922496  0.40553807  1.0
  H  H17  1  0.55564538  0.34669587  0.29295362  1.0
  H  H18  1  0.17448602  0.01915170  0.65706832  1.0
  H  H19  1  0.08232485  0.08837214  0.73265440  1.0
  H  H20  1  0.19607380  0.04539677  0.58783819  1.0
  H  H21  1  0.13934236  0.15896996  0.54189529  1.0
  H  H22  1  0.08107970  0.19534767  0.58277165  1.0
  H  H23  1  0.04653511  0.15184448  0.70483258  1.0
  H  H24  1  0.82236492  0.52956022  0.82995945  1.0
  H  H25  1  0.92590341  0.59994541  0.76552154  1.0
  H  H26  1  0.78951708  0.55490114  0.89530501  1.0
  H  H27  1  0.84364885  0.66367892  0.94815406  1.0
  H  H28  1  0.90794727  0.70003265  0.91433832  1.0
  H  H29  1  0.95934022  0.66059075  0.79747605  1.0
  H  H30  1  0.29372748  0.94725981  0.19412195  1.0
  H  H31  1  0.42907703  0.91056829  0.22795283  1.0
  H  H32  1  0.25836301  0.91845051  0.13314435  1.0
  H  H33  1  0.33566353  0.83793731  0.05595552  1.0
  H  H34  1  0.41082074  0.81231246  0.07826722  1.0
  H  H35  1  0.46901544  0.85575221  0.18906803  1.0
  H  H36  1  0.17683384  0.98564243  0.81315330  1.0
  H  H37  1  0.11307048  0.89139421  0.74329065  1.0
  H  H38  1  0.17112055  0.84408929  0.01427303  1.0
  H  H39  1  0.25663471  0.92314243  0.93770686  1.0
  H  H40  1  0.04090283  0.77995065  0.81867813  1.0
  H  H41  1  0.03769870  0.78115365  0.95105743  1.0
  H  H42  1  0.65343409  0.49895767  0.15106816  1.0
  H  H43  1  0.59595393  0.57264594  0.24741850  1.0
  H  H44  1  0.69530765  0.69919317  0.01425689  1.0
  H  H45  1  0.72387593  0.57006159  0.03394803  1.0
  H  H46  1  0.53383262  0.70787484  0.20906340  1.0
  H  H47  1  0.56317761  0.75624951  0.08698936  1.0
  H  H48  1  0.32747475  0.00534905  0.32711322  1.0
  H  H49  1  0.44911426  0.06108795  0.27427750  1.0
  H  H50  1  0.28685711  0.19349664  0.47146592  1.0
  H  H51  1  0.25278203  0.06801657  0.44517145  1.0
  H  H52  1  0.50099212  0.19275944  0.32151954  1.0
  H  H53  1  0.42837283  0.24854251  0.42219307  1.0
  H  H54  1  0.84295110  0.49783667  0.67903548  1.0
  H  H55  1  0.90603227  0.40408823  0.75495098  1.0
  H  H56  1  0.80130472  0.33646349  0.50823665  1.0
  H  H57  1  0.78254855  0.46112605  0.54760444  1.0
  H  H58  1  0.97923944  0.28967992  0.68281934  1.0
  H  H59  1  0.93170805  0.26099294  0.56233630  1.0
  H  H60  1  0.12494776  0.03135047  0.76267538  1.0
  H  H61  1  0.14282572  0.96644375  0.69790565  1.0
  H  H62  1  0.63694759  0.51624967  0.29376719  1.0
  H  H63  1  0.62496710  0.45510965  0.22490559  1.0
  H  H64  1  0.32479061  0.97239164  0.25565778  1.0
  H  H65  1  0.42851515  0.98079776  0.24618343  1.0
  H  H66  1  0.88471386  0.54472756  0.73085105  1.0
  H  H67  1  0.86954691  0.47707131  0.79658025  1.0
  H  H68  1  0.22139719  0.87981947  0.07383159  1.0
  H  H69  1  0.29834886  0.88742689  0.00930558  1.0
  H  H70  1  0.72391847  0.34703529  0.47853420  1.0
  H  H71  1  0.73849776  0.44020140  0.47223826  1.0
  H  H72  1  0.76261610  0.57564817  0.96282761  1.0
  H  H73  1  0.76968791  0.66923354  0.96870204  1.0
  H  H74  1  0.21469005  0.06895243  0.51834065  1.0
  H  H75  1  0.21204627  0.16309266  0.51543228  1.0
  H  H76  1  0.99010040  0.72032479  0.82503436  1.0
  H  H77  1  0.97460204  0.72873371  0.91768363  1.0
  H  H78  1  0.53306985  0.27289999  0.31255448  1.0
  H  H79  1  0.51766796  0.27921647  0.40526780  1.0
  H  H80  1  0.01864814  0.21888629  0.68022627  1.0
  H  H81  1  0.00701431  0.21578055  0.58716007  1.0
  H  H82  1  0.48503385  0.78995463  0.09639627  1.0
  H  H83  1  0.49342342  0.78559622  0.18987689  1.0
  C  C84  1  0.65810656  0.41722200  0.37100233  1.0
  C  C85  1  0.65652756  0.45141511  0.34355363  1.0
  C  C86  1  0.63090226  0.45086817  0.30780179  1.0
  C  C87  1  0.60531246  0.41586165  0.29960157  1.0
  C  C88  1  0.60415370  0.38157207  0.32687852  1.0
  C  C89  1  0.63070655  0.38234111  0.36296371  1.0
  C  C90  1  0.68647174  0.41612548  0.40545240  1.0
  C  C91  1  0.68831878  0.38155252  0.43187334  1.0
  C  C92  1  0.65956556  0.34832443  0.42463647  1.0
  C  C93  1  0.63001529  0.34815507  0.39099373  1.0
  C  C94  1  0.60023550  0.31519121  0.38389355  1.0
  C  C95  1  0.57275334  0.31480146  0.34926623  1.0
  C  C96  1  0.57635349  0.34709958  0.32030869  1.0
  C  C97  1  0.14804524  0.07461152  0.62879311  1.0
  C  C98  1  0.15158337  0.04514897  0.66102331  1.0
  C  C99  1  0.12812176  0.04976372  0.69839427  1.0
  C  C100  1  0.10053719  0.08447246  0.70362034  1.0
  C  C101  1  0.09469819  0.11413563  0.67187732  1.0
  C  C102  1  0.11904426  0.10928032  0.63415872  1.0
  C  C103  1  0.17340744  0.07160764  0.59179445  1.0
  C  C104  1  0.17204063  0.10244634  0.56116986  1.0
  C  C105  1  0.14215086  0.13564946  0.56618943  1.0
  C  C106  1  0.11493545  0.13944994  0.60202517  1.0
  C  C107  1  0.08415855  0.17234702  0.60734096  1.0
  C  C108  1  0.05877091  0.17666092  0.64378954  1.0
  C  C109  1  0.06541801  0.14829536  0.67608695  1.0
  C  C110  1  0.84450196  0.58393833  0.86057144  1.0
  C  C111  1  0.84576270  0.55546968  0.82861393  1.0
  C  C112  1  0.87496907  0.56094501  0.79451670  1.0
  C  C113  1  0.90338312  0.59540808  0.79213899  1.0
  C  C114  1  0.90506370  0.62352968  0.82419262  1.0
  C  C115  1  0.87499878  0.61791458  0.85858208  1.0
  C  C116  1  0.81345456  0.58043762  0.89405635  1.0
  C  C117  1  0.81143724  0.60981006  0.92466384  1.0
  C  C118  1  0.84311429  0.64198323  0.92334080  1.0
  C  C119  1  0.87532067  0.64655628  0.89090547  1.0
  C  C120  1  0.90777435  0.67846170  0.88941318  1.0
  C  C121  1  0.93881322  0.68331253  0.85644070  1.0
  C  C122  1  0.93606339  0.65659126  0.82366119  1.0
  C  C123  1  0.32592893  0.90357913  0.15420316  1.0
  C  C124  1  0.32429630  0.92904793  0.18847527  1.0
  C  C125  1  0.36187417  0.93339558  0.21383448  1.0
  C  C126  1  0.40062593  0.90900455  0.20708545  1.0
  C  C127  1  0.40329920  0.88170458  0.17411195  1.0
  C  C128  1  0.36632144  0.88053886  0.14635141  1.0
  C  C129  1  0.28937966  0.90109335  0.12685693  1.0
  C  C130  1  0.29317549  0.87882674  0.09085565  1.0
  C  C131  1  0.33311592  0.85653206  0.08315786  1.0
  C  C132  1  0.36955184  0.85614616  0.11083960  1.0
  C  C133  1  0.40864469  0.83160060  0.10501983  1.0
  C  C134  1  0.44334448  0.82958656  0.13389431  1.0
  C  C135  1  0.44105802  0.85543973  0.16758413  1.0
  C  C136  1  0.16067751  0.95833152  0.80208286  1.0
  C  C137  1  0.14374954  0.95082707  0.76304382  1.0
  C  C138  1  0.12904469  0.90992973  0.76603770  1.0
  C  C139  1  0.18612980  0.86406213  0.99072873  1.0
  C  C140  1  0.22846884  0.88396803  0.98987007  1.0
  C  C141  1  0.23021171  0.90374137  0.95123971  1.0
  C  C142  1  0.04588437  0.78492448  0.85092904  1.0
  C  C143  1  0.02399799  0.76666745  0.88536530  1.0
  C  C144  1  0.04408306  0.78588098  0.91850249  1.0
  C  C145  1  0.63927513  0.52270377  0.17016035  1.0
  C  C146  1  0.62546751  0.52049544  0.21149187  1.0
  C  C147  1  0.61086221  0.56057048  0.21962472  1.0
  C  C148  1  0.69682522  0.66731563  0.02433426  1.0
  C  C149  1  0.72420233  0.63539035  0.00949659  1.0
  C  C150  1  0.71098871  0.60123061  0.03395140  1.0
  C  C151  1  0.54626981  0.71442846  0.17816085  1.0
  C  C152  1  0.53469211  0.74673652  0.15108415  1.0
  C  C153  1  0.56058424  0.73877984  0.11556817  1.0
  C  C154  1  0.35610610  0.02471024  0.31827086  1.0
  C  C155  1  0.39024325  0.01857919  0.28835739  1.0
  C  C156  1  0.41867652  0.05280608  0.29180700  1.0
  C  C157  1  0.28416965  0.16274124  0.45991022  1.0
  C  C158  1  0.25455145  0.13091067  0.47238389  1.0
  C  C159  1  0.26710758  0.09847379  0.44695466  1.0
  C  C160  1  0.47728097  0.20168271  0.34548077  1.0
  C  C161  1  0.47956602  0.23460250  0.37225089  1.0
  C  C162  1  0.44062473  0.22967102  0.39743606  1.0
  C  C163  1  0.85938387  0.47073121  0.69176076  1.0
  C  C164  1  0.87416165  0.46296443  0.73183330  1.0
  C  C165  1  0.89062437  0.42256276  0.73086794  1.0
  C  C166  1  0.80122689  0.36551289  0.52359243  1.0
  C  C167  1  0.77709186  0.40171395  0.51418681  1.0
  C  C168  1  0.79227347  0.42942908  0.54317195  1.0
  C  C169  1  0.96199278  0.28753927  0.65392409  1.0
  C  C170  1  0.96958155  0.26049103  0.62165751  1.0
  C  C171  1  0.93802414  0.27332545  0.59218852  1.0
  C  C172  1  0.13166325  0.01971168  0.73206430  1.0
  C  C173  1  0.14011316  0.97926723  0.72842839  1.0
  C  C174  1  0.63122633  0.48657816  0.27993124  1.0
  C  C175  1  0.62672267  0.48508651  0.23898829  1.0
  C  C176  1  0.35919682  0.96436440  0.24526454  1.0
  C  C177  1  0.39450463  0.98613247  0.25910836  1.0
  C  C178  1  0.87704169  0.53174436  0.76135704  1.0
  C  C179  1  0.87297237  0.49069534  0.76578834  1.0
  C  C180  1  0.25620398  0.88003883  0.06139151  1.0
  C  C181  1  0.26331626  0.88365368  0.02060819  1.0
  C  C182  1  0.71986944  0.37809420  0.46572375  1.0
  C  C183  1  0.74397019  0.40845426  0.48244619  1.0
  C  C184  1  0.77625615  0.60638760  0.95669302  1.0
  C  C185  1  0.75833936  0.63824417  0.97716884  1.0
  C  C186  1  0.20318061  0.09977057  0.52598969  1.0
  C  C187  1  0.22119033  0.13240294  0.50535291  1.0
  C  C188  1  0.97396936  0.71475773  0.85506188  1.0
  C  C189  1  0.98903633  0.73566654  0.88727143  1.0
  C  C190  1  0.53917192  0.28235536  0.34383403  1.0
  C  C191  1  0.51361283  0.26637837  0.37497239  1.0
  C  C192  1  0.02556885  0.20963315  0.64880118  1.0
  C  C193  1  0.00209263  0.22745264  0.61797339  1.0
  C  C194  1  0.47925918  0.79920101  0.12799924  1.0
  C  C195  1  0.50180014  0.77904406  0.15799785  1.0
  N  N196  1  0.13586967  0.89463929  0.80411591  1.0
  N  N197  1  0.15597021  0.92464077  0.82638045  1.0
  N  N198  1  0.19176341  0.89644187  0.93088366  1.0
  N  N199  1  0.16452198  0.87145293  0.95530627  1.0
  N  N200  1  0.07538503  0.81326646  0.90483401  1.0
  N  N201  1  0.07644321  0.81261292  0.86279921  1.0
  N  N202  1  0.61596547  0.58464552  0.18583155  1.0
  N  N203  1  0.63391089  0.56118530  0.15512294  1.0
  N  N204  1  0.67839926  0.61215991  0.06102767  1.0
  N  N205  1  0.66941510  0.65319874  0.05494459  1.0
  N  N206  1  0.58531699  0.70440388  0.12117930  1.0
  N  N207  1  0.57626404  0.68907355  0.15998562  1.0
  N  N208  1  0.40233158  0.07757544  0.32101070  1.0
  N  N209  1  0.36362214  0.05991162  0.33766627  1.0
  N  N210  1  0.30161149  0.11020184  0.42168423  1.0
  N  N211  1  0.31242669  0.15006280  0.42990889  1.0
  N  N212  1  0.41692741  0.19666586  0.38624194  1.0
  N  N213  1  0.43992434  0.17902011  0.35421903  1.0
  N  N214  1  0.88637938  0.40772340  0.69302200  1.0
  N  N215  1  0.86665119  0.43760151  0.66880359  1.0
  N  N216  1  0.82244617  0.41090348  0.56816163  1.0
  N  N217  1  0.82815080  0.37125050  0.55576075  1.0
  N  N218  1  0.91351093  0.30523353  0.60591805  1.0
  N  N219  1  0.92854396  0.31411611  0.64424778  1.0
