# generated using pymatgen
data_ZnC13NCl4(O2F)2
_symmetry_space_group_name_H-M   'P 1'
_cell_length_a   11.03083676
_cell_length_b   14.76247597
_cell_length_c   16.15778492
_cell_angle_alpha   89.78266487
_cell_angle_beta   89.01492969
_cell_angle_gamma   69.64165820
_symmetry_Int_Tables_number   1
_chemical_formula_structural   ZnC13NCl4(O2F)2
_chemical_formula_sum   'Zn2 C26 N2 Cl8 O8 F4'
_cell_volume   2466.44641482
_cell_formula_units_Z   2
loop_
 _symmetry_equiv_pos_site_id
 _symmetry_equiv_pos_as_xyz
  1  'x, y, z'
loop_
 _atom_site_type_symbol
 _atom_site_label
 _atom_site_symmetry_multiplicity
 _atom_site_fract_x
 _atom_site_fract_y
 _atom_site_fract_z
 _atom_site_occupancy
  Zn  Zn0  1  0.53006427  0.39834906  0.49849845  1.0
  Zn  Zn1  1  0.46983683  0.60151531  0.49859008  1.0
  C  C2  1  0.50174746  0.49988902  0.33846238  1.0
  C  C3  1  0.49831541  0.49996659  0.65814378  1.0
  C  C4  1  0.38324548  0.08296057  0.49791720  1.0
  C  C5  1  0.61619075  0.91698929  0.49784797  1.0
  C  C6  1  0.50655786  0.09251493  0.49786112  1.0
  C  C7  1  0.49286248  0.90743496  0.49800130  1.0
  C  C8  1  0.62002535  0.01049812  0.49778398  1.0
  C  C9  1  0.37938962  0.98945126  0.49795592  1.0
  C  C10  1  0.51899274  0.18482502  0.49834659  1.0
  C  C11  1  0.48043570  0.81513048  0.49854382  1.0
  C  C12  1  0.25380754  0.53663454  0.49475439  1.0
  C  C13  1  0.74624771  0.46337209  0.49363356  1.0
  C  C14  1  0.11387498  0.54530374  0.48879259  1.0
  C  C15  1  0.88655263  0.45456884  0.48804440  1.0
  C  C16  1  0.06827346  0.49963690  0.43153757  1.0
  C  C17  1  0.93537920  0.50042242  0.43131581  1.0
  C  C18  1  0.39626623  0.49158976  0.95618828  1.0
  C  C19  1  0.60255778  0.50881854  0.04064479  1.0
  C  C20  1  0.50131476  0.50026346  0.91026110  1.0
  C  C21  1  0.49770293  0.49985698  0.08654775  1.0
  C  C22  1  0.60650750  0.50894156  0.95451907  1.0
  C  C23  1  0.39253591  0.49105444  0.04233435  1.0
  C  C24  1  0.50029695  0.50017831  0.82303853  1.0
  C  C25  1  0.49907472  0.49984558  0.17370913  1.0
  C  C26  1  0.50106981  0.50000140  0.24898489  1.0
  C  C27  1  0.49881902  0.50000373  0.74773714  1.0
  N  N28  1  0.46575773  0.74108335  0.49926101  1.0
  N  N29  1  0.53378037  0.25882376  0.49908953  1.0
  Cl  Cl30  1  0.83922689  0.56400732  0.35177858  1.0
  Cl  Cl31  1  0.16894170  0.43646217  0.35174104  1.0
  Cl  Cl32  1  0.98152555  0.38352649  0.56372456  1.0
  Cl  Cl33  1  0.01456310  0.61619224  0.56462175  1.0
  Cl  Cl34  1  0.26150139  0.48040158  0.09399786  1.0
  Cl  Cl35  1  0.73772161  0.51951704  0.90304037  1.0
  Cl  Cl36  1  0.24512182  0.18089627  0.49854042  1.0
  Cl  Cl37  1  0.75429484  0.81907111  0.49840388  1.0
  O  O38  1  0.50743682  0.42113874  0.37341573  1.0
  O  O39  1  0.45526157  0.58235703  0.62354049  1.0
  O  O40  1  0.49632217  0.57845943  0.37320179  1.0
  O  O41  1  0.54116714  0.41750171  0.62319414  1.0
  O  O42  1  0.33062713  0.45239579  0.51071815  1.0
  O  O43  1  0.66865941  0.54770685  0.50970929  1.0
  O  O44  1  0.28038887  0.61286884  0.48491272  1.0
  O  O45  1  0.72005064  0.38718432  0.48355243  1.0
  F  F46  1  0.29567681  0.48345953  0.91427874  1.0
  F  F47  1  0.70292368  0.51729534  0.08253717  1.0
  F  F48  1  0.26519126  0.97630518  0.49819787  1.0
  F  F49  1  0.73421474  0.02364256  0.49784350  1.0
