# generated using pymatgen
data_ZnH5C20Br3N(ClO2)2
_symmetry_space_group_name_H-M   'P 1'
_cell_length_a   10.96179343
_cell_length_b   14.80917265
_cell_length_c   16.20040012
_cell_angle_alpha   89.59481746
_cell_angle_beta   88.56540472
_cell_angle_gamma   89.61581541
_symmetry_Int_Tables_number   1
_chemical_formula_structural   ZnH5C20Br3N(ClO2)2
_chemical_formula_sum   'Zn2 H10 C40 Br6 N2 Cl4 O8'
_cell_volume   2628.94731065
_cell_formula_units_Z   2
loop_
 _symmetry_equiv_pos_site_id
 _symmetry_equiv_pos_as_xyz
  1  'x, y, z'
loop_
 _atom_site_type_symbol
 _atom_site_label
 _atom_site_symmetry_multiplicity
 _atom_site_fract_x
 _atom_site_fract_y
 _atom_site_fract_z
 _atom_site_occupancy
  Zn  Zn0  1  0.49744432  0.59456290  0.50315008  1.0
  Zn  Zn1  1  0.50255694  0.40544988  0.49686697  1.0
  H  H2  1  0.27128710  0.17314478  0.26363293  1.0
  H  H3  1  0.72871474  0.82685523  0.73635330  1.0
  H  H4  1  0.19211893  0.13358670  0.40492502  1.0
  H  H5  1  0.80789113  0.86640923  0.59506116  1.0
  H  H6  1  0.88650004  0.38126797  0.42823659  1.0
  H  H7  1  0.11350537  0.61872121  0.57175460  1.0
  H  H8  1  0.39768393  0.62414203  0.07826327  1.0
  H  H9  1  0.60227338  0.37583714  0.92176480  1.0
  H  H10  1  0.30925233  0.08719551  0.53358014  1.0
  H  H11  1  0.69077521  0.91281792  0.46639716  1.0
  C  C12  1  0.49321526  0.49378411  0.66136897  1.0
  C  C13  1  0.50679874  0.50624819  0.33864911  1.0
  C  C14  1  0.87227322  0.50006032  0.50233124  1.0
  C  C15  1  0.12773023  0.49992817  0.49766738  1.0
  C  C16  1  0.93491425  0.56844827  0.54337814  1.0
  C  C17  1  0.06509020  0.43154294  0.45661614  1.0
  C  C18  1  0.44239977  0.57000025  0.04367363  1.0
  C  C19  1  0.55754853  0.42997695  0.95634835  1.0
  C  C20  1  0.50745766  0.50325158  0.08743893  1.0
  C  C21  1  0.49249793  0.49672153  0.91258362  1.0
  C  C22  1  0.56505850  0.43324870  0.04157276  1.0
  C  C23  1  0.43488341  0.56672515  0.95844929  1.0
  C  C24  1  0.51124347  0.50695869  0.17429960  1.0
  C  C25  1  0.48873948  0.49303321  0.82572263  1.0
  C  C26  1  0.48941104  0.49073551  0.75058731  1.0
  C  C27  1  0.51059556  0.50928398  0.24943645  1.0
  C  C28  1  0.39029636  0.95447353  0.52005911  1.0
  C  C29  1  0.60974003  0.04554118  0.47993231  1.0
  C  C30  1  0.49922717  0.90630114  0.50143184  1.0
  C  C31  1  0.50080564  0.09371832  0.49855590  1.0
  C  C32  1  0.60833696  0.95167917  0.48112978  1.0
  C  C33  1  0.39169679  0.04833489  0.51885674  1.0
  C  C34  1  0.26401508  0.50240775  0.49878183  1.0
  C  C35  1  0.73599208  0.49758006  0.50121367  1.0
  C  C36  1  0.50037052  0.81054062  0.50328612  1.0
  C  C37  1  0.49965050  0.18947215  0.49669804  1.0
  C  C38  1  0.22453381  0.31371878  0.27478887  1.0
  C  C39  1  0.77546802  0.68627853  0.72519799  1.0
  C  C40  1  0.17292206  0.38115556  0.32568356  1.0
  C  C41  1  0.82707609  0.61884041  0.67430519  1.0
  C  C42  1  0.12748216  0.36046484  0.40592161  1.0
  C  C43  1  0.87252318  0.63952703  0.59407389  1.0
  C  C44  1  0.13665250  0.27041071  0.43247808  1.0
  C  C45  1  0.86335933  0.72958317  0.56751118  1.0
  C  C46  1  0.18789291  0.20305071  0.38262516  1.0
  C  C47  1  0.81211440  0.79694455  0.61736166  1.0
  C  C48  1  0.23178292  0.22489345  0.30374341  1.0
  C  C49  1  0.76821711  0.77510455  0.69624223  1.0
  C  C50  1  0.93775157  0.43290353  0.45984194  1.0
  C  C51  1  0.06225102  0.56708700  0.54015420  1.0
  Br  Br52  1  0.24425601  0.89250587  0.54454592  1.0
  Br  Br53  1  0.75577671  0.10751088  0.45544676  1.0
  Br  Br54  1  0.08175710  0.23686207  0.54106300  1.0
  Br  Br55  1  0.91828837  0.76312625  0.45893279  1.0
  Br  Br56  1  0.34534774  0.65774627  0.90311439  1.0
  Br  Br57  1  0.65458864  0.34221814  0.09691145  1.0
  N  N58  1  0.49689023  0.26771986  0.49508931  1.0
  N  N59  1  0.50310520  0.73229436  0.50489691  1.0
  Cl  Cl60  1  0.27705305  0.33806879  0.17630624  1.0
  Cl  Cl61  1  0.72294332  0.66192990  0.82368005  1.0
  Cl  Cl62  1  0.16444425  0.49057670  0.28995284  1.0
  Cl  Cl63  1  0.83553931  0.50942001  0.71003541  1.0
  O  O64  1  0.49215286  0.57247931  0.62920811  1.0
  O  O65  1  0.50778531  0.42755533  0.37081555  1.0
  O  O66  1  0.49775788  0.41843640  0.62396461  1.0
  O  O67  1  0.50230549  0.58160314  0.37604685  1.0
  O  O68  1  0.31287703  0.57973037  0.50426738  1.0
  O  O69  1  0.68712606  0.42026361  0.49570096  1.0
  O  O70  1  0.31913436  0.42663652  0.49512803  1.0
  O  O71  1  0.68086284  0.57334785  0.50491388  1.0
