# generated using pymatgen
data_MgH5C8O5
_symmetry_space_group_name_H-M   'P 1'
_cell_length_a   12.47402054
_cell_length_b   12.47408606
_cell_length_c   12.47405691
_cell_angle_alpha   104.69629641
_cell_angle_beta   119.51056932
_cell_angle_gamma   104.69797479
_symmetry_Int_Tables_number   1
_chemical_formula_structural   MgH5C8O5
_chemical_formula_sum   'Mg4 H20 C32 O20'
_cell_volume   1459.24362817
_cell_formula_units_Z   4
loop_
 _symmetry_equiv_pos_site_id
 _symmetry_equiv_pos_as_xyz
  1  'x, y, z'
loop_
 _atom_site_type_symbol
 _atom_site_label
 _atom_site_symmetry_multiplicity
 _atom_site_fract_x
 _atom_site_fract_y
 _atom_site_fract_z
 _atom_site_occupancy
  Mg  Mg0  1  0.67977879  0.99999942  0.32021978  1.0
  Mg  Mg1  1  0.32022356  0.00000581  0.67978087  1.0
  Mg  Mg2  1  0.42977564  0.85955627  0.92978277  1.0
  Mg  Mg3  1  0.07022479  0.14044564  0.57021979  1.0
  H  H4  1  0.14000986  0.93994419  0.94924537  1.0
  H  H5  1  0.67002165  0.99919481  0.06587622  1.0
  H  H6  1  0.00930281  0.06005709  0.20006367  1.0
  H  H7  1  0.06668226  0.00080925  0.67083118  1.0
  H  H8  1  0.95006344  0.69077349  0.39001688  1.0
  H  H9  1  0.42082832  0.10414217  0.92002393  1.0
  H  H10  1  0.69925260  0.30923855  0.25930166  1.0
  H  H11  1  0.81588015  0.89585656  0.31668605  1.0
  H  H12  1  0.74069747  0.69075840  0.30075315  1.0
  H  H13  1  0.68331574  0.10414694  0.18412108  1.0
  H  H14  1  0.60998510  0.30923053  0.04993534  1.0
  H  H15  1  0.07997488  0.89585822  0.57917204  1.0
  H  H16  1  0.05074895  0.06004968  0.85998716  1.0
  H  H17  1  0.93412087  0.00080797  0.32997224  1.0
  H  H18  1  0.79993414  0.93994860  0.99070660  1.0
  H  H19  1  0.32916516  0.99919327  0.93331247  1.0
  H  H20  1  0.37038186  0.99998828  0.37038705  1.0
  H  H21  1  0.12039958  0.50000683  0.62039303  1.0
  H  H22  1  0.37961851  0.50000347  0.87960306  1.0
  H  H23  1  0.62960315  0.99999413  0.62960594  1.0
  C  C24  1  0.15453987  0.96924376  0.04746764  1.0
  C  C25  1  0.26860806  0.97299918  0.15978910  1.0
  C  C26  1  0.37449333  0.94980918  0.14582497  1.0
  C  C27  1  0.07822001  0.03075696  0.18529030  1.0
  C  C28  1  0.18678108  0.02698894  0.29560134  1.0
  C  C29  1  0.19600942  0.05017917  0.42467884  1.0
  C  C30  1  0.93529541  0.60707637  0.40453945  1.0
  C  C31  1  0.04560884  0.60882781  0.51861466  1.0
  C  C32  1  0.17467607  0.72867253  0.62449775  1.0
  C  C33  1  0.79746966  0.39292936  0.32822239  1.0
  C  C34  1  0.90979668  0.39118423  0.43678740  1.0
  C  C35  1  0.89582691  0.27133365  0.44600617  1.0
  C  C36  1  0.67177714  0.60707015  0.20253466  1.0
  C  C37  1  0.56321958  0.60881942  0.09020786  1.0
  C  C38  1  0.55399745  0.72866860  0.10417669  1.0
  C  C39  1  0.59545787  0.39292809  0.06470180  1.0
  C  C40  1  0.48139155  0.39117622  0.95439405  1.0
  C  C41  1  0.37550472  0.27133613  0.82532207  1.0
  C  C42  1  0.95253260  0.03075242  0.84546198  1.0
  C  C43  1  0.84020532  0.02698979  0.73138666  1.0
  C  C44  1  0.85416830  0.05017763  0.62550001  1.0
  C  C45  1  0.81470329  0.96924246  0.92177895  1.0
  C  C46  1  0.70439104  0.97300181  0.81321335  1.0
  C  C47  1  0.57531730  0.94982112  0.80398763  1.0
  C  C48  1  0.05883061  0.99999762  0.05883274  1.0
  C  C49  1  0.28375328  0.99999004  0.28375679  1.0
  C  C50  1  0.80883534  0.50000083  0.30883106  1.0
  C  C51  1  0.03376446  0.50000111  0.53376180  1.0
  C  C52  1  0.69116695  0.49999631  0.19116570  1.0
  C  C53  1  0.46624573  0.50000540  0.96623660  1.0
  C  C54  1  0.94116417  0.99999652  0.94116538  1.0
  C  C55  1  0.71623449  0.99999576  0.71623377  1.0
  O  O56  1  0.49022513  0.98021381  0.25430502  1.0
  O  O57  1  0.34045447  0.90336313  0.02304585  1.0
  O  O58  1  0.27408344  0.01978495  0.51000791  1.0
  O  O59  1  0.11967203  0.09663180  0.43708286  1.0
  O  O60  1  0.26000894  0.73593031  0.74023305  1.0
  O  O61  1  0.18708454  0.81741780  0.59045911  1.0
  O  O62  1  0.00431261  0.26408066  0.52408741  1.0
  O  O63  1  0.77304670  0.18258666  0.36967051  1.0
  O  O64  1  0.47591738  0.73592187  0.99569242  1.0
  O  O65  1  0.63032889  0.81741292  0.22695621  1.0
  O  O66  1  0.25977220  0.26408053  0.73999137  1.0
  O  O67  1  0.40953941  0.18258351  0.81291123  1.0
  O  O68  1  0.74569942  0.01978212  0.50977392  1.0
  O  O69  1  0.97696065  0.09662766  0.65954628  1.0
  O  O70  1  0.48999422  0.98021886  0.72592217  1.0
  O  O71  1  0.56291549  0.90337518  0.88033538  1.0
  O  O72  1  0.87499763  0.98589421  0.36089182  1.0
  O  O73  1  0.37500171  0.01410647  0.88910622  1.0
  O  O74  1  0.63911103  0.01410810  0.12500653  1.0
  O  O75  1  0.11089653  0.98589672  0.62500357  1.0
