# generated using pymatgen
data_Zn4H26C50I2O13
_symmetry_space_group_name_H-M   'P 1'
_cell_length_a   20.80346066
_cell_length_b   20.86236563
_cell_length_c   20.87237671
_cell_angle_alpha   112.15915113
_cell_angle_beta   112.04656151
_cell_angle_gamma   104.23651542
_symmetry_Int_Tables_number   1
_chemical_formula_structural   Zn4H26C50I2O13
_chemical_formula_sum   'Zn8 H52 C100 I4 O26'
_cell_volume   6938.86394236
_cell_formula_units_Z   2
loop_
 _symmetry_equiv_pos_site_id
 _symmetry_equiv_pos_as_xyz
  1  'x, y, z'
loop_
 _atom_site_type_symbol
 _atom_site_label
 _atom_site_symmetry_multiplicity
 _atom_site_fract_x
 _atom_site_fract_y
 _atom_site_fract_z
 _atom_site_occupancy
  Zn  Zn0  1  0.11766809  0.55103044  0.07749252  1.0
  Zn  Zn1  1  0.95976347  0.52642622  0.07746196  1.0
  Zn  Zn2  1  0.52581158  0.95909066  0.07672757  1.0
  Zn  Zn3  1  0.55086321  0.11761380  0.07669062  1.0
  Zn  Zn4  1  0.96237240  0.39164415  0.93667641  1.0
  Zn  Zn5  1  0.97428546  0.54499580  0.93665260  1.0
  Zn  Zn6  1  0.54547409  0.97382482  0.93702216  1.0
  Zn  Zn7  1  0.39152915  0.96318584  0.93704360  1.0
  H  H8  1  0.25259259  0.77081434  0.11622981  1.0
  H  H9  1  0.86346064  0.34549201  0.11623425  1.0
  H  H10  1  0.33259004  0.06273615  0.26974982  1.0
  H  H11  1  0.28746935  0.11399043  0.17960193  1.0
  H  H12  1  0.24584618  0.03637064  0.03395799  1.0
  H  H13  1  0.24676279  0.91084698  0.97879432  1.0
  H  H14  1  0.87962990  0.27826213  0.21456026  1.0
  H  H15  1  0.93711162  0.20725062  0.26994634  1.0
  H  H16  1  0.89210839  0.06582531  0.17993746  1.0
  H  H17  1  0.78814354  0.99769822  0.03428696  1.0
  H  H18  1  0.73205773  0.06794329  0.97892178  1.0
  H  H19  1  0.17499238  0.77017617  0.16085676  1.0
  H  H20  1  0.34576977  0.84813792  0.11782397  1.0
  H  H21  1  0.06531944  0.79136883  0.16819930  1.0
  H  H22  1  0.98480976  0.82410112  0.07400773  1.0
  H  H23  1  0.01669538  0.83627758  0.97405447  1.0
  H  H24  1  0.12582280  0.81613955  0.96739575  1.0
  H  H25  1  0.98573930  0.39094948  0.16100294  1.0
  H  H26  1  0.10288456  0.37729450  0.16856421  1.0
  H  H27  1  0.08946828  0.25043068  0.07459959  1.0
  H  H28  1  0.95774015  0.13816781  0.97460958  1.0
  H  H29  1  0.84181025  0.15144256  0.96771501  1.0
  H  H30  1  0.33485355  0.93640835  0.21455345  1.0
  H  H31  1  0.77192528  0.26965716  0.11779712  1.0
  H  H32  1  0.22573000  0.60559684  0.83244846  1.0
  H  H33  1  0.15788033  0.48149968  0.70409552  1.0
  H  H34  1  0.01285529  0.40982667  0.62400090  1.0
  H  H35  1  0.93748372  0.46640668  0.67598082  1.0
  H  H36  1  0.00630602  0.59106220  0.80569725  1.0
  H  H37  1  0.60681914  0.22679177  0.83227364  1.0
  H  H38  1  0.54648311  0.22238573  0.70381007  1.0
  H  H39  1  0.61149938  0.21377502  0.62379897  1.0
  H  H40  1  0.73885242  0.20918629  0.67597232  1.0
  H  H41  1  0.79960701  0.21442999  0.80582868  1.0
  H  H42  1  0.31159676  0.73478410  0.84436790  1.0
  H  H43  1  0.27744184  0.70181861  0.70640810  1.0
  H  H44  1  0.14963336  0.68486643  0.60986400  1.0
  H  H45  1  0.05723939  0.70319331  0.65612485  1.0
  H  H46  1  0.09200508  0.73665727  0.79518312  1.0
  H  H47  1  0.53280531  0.10940119  0.84414832  1.0
  H  H48  1  0.42917834  0.00436041  0.70613709  1.0
  H  H49  1  0.46064621  0.92475537  0.60981541  1.0
  H  H50  1  0.59934205  0.95271201  0.65639517  1.0
  H  H51  1  0.70346007  0.05838889  0.79545738  1.0
  H  H52  1  0.29923879  0.69547744  0.07612756  1.0
  H  H53  1  0.77669312  0.38058965  0.07596111  1.0
  H  H54  1  0.38409898  0.77523505  0.06796297  1.0
  H  H55  1  0.68367519  0.29263546  0.06779246  1.0
  H  H56  1  0.11017727  0.69738201  0.90536746  1.0
  H  H57  1  0.79532386  0.20798674  0.90549179  1.0
  H  H58  1  0.19674431  0.79955227  0.92911423  1.0
  H  H59  1  0.73247900  0.12957384  0.92922582  1.0
  C  C60  1  0.85738564  0.36215586  0.99746798  1.0
  C  C61  1  0.14004600  0.63532111  0.99748580  1.0
  C  C62  1  0.65926356  0.85240644  0.01313906  1.0
  C  C63  1  0.85213770  0.65820985  0.01303165  1.0
  C  C64  1  0.16089697  0.35484512  0.01310734  1.0
  C  C65  1  0.35383192  0.16071271  0.01312831  1.0
  C  C66  1  0.81443392  0.69507701  0.01281809  1.0
  C  C67  1  0.19837367  0.31775240  0.01291315  1.0
  C  C68  1  0.31666998  0.19811492  0.01288454  1.0
  C  C69  1  0.69618080  0.81476167  0.01287301  1.0
  C  C70  1  0.63674705  0.13996399  0.99816825  1.0
  C  C71  1  0.36143266  0.85820301  0.99821168  1.0
  C  C72  1  0.77372226  0.73584360  0.01277606  1.0
  C  C73  1  0.23903076  0.27693098  0.01283606  1.0
  C  C74  1  0.27625166  0.23914675  0.01286490  1.0
  C  C75  1  0.73656585  0.77369104  0.01282875  1.0
  C  C76  1  0.11574529  0.39717560  0.01156302  1.0
  C  C77  1  0.89576500  0.61435436  0.01151369  1.0
  C  C78  1  0.61486848  0.89544497  0.01136051  1.0
  C  C79  1  0.39644873  0.11589715  0.01135675  1.0
  C  C80  1  0.89337473  0.39335560  0.78679177  1.0
  C  C81  1  0.39405156  0.89404922  0.78812672  1.0
  C  C82  1  0.11389012  0.61393364  0.22789879  1.0
  C  C83  1  0.61329916  0.11330162  0.22653268  1.0
  C  C84  1  0.15746299  0.65752059  0.31507147  1.0
  C  C85  1  0.35046687  0.85044738  0.70094860  1.0
  C  C86  1  0.65687439  0.15687997  0.31366889  1.0
  C  C87  1  0.19466357  0.69470290  0.38942533  1.0
  C  C88  1  0.69404595  0.19402899  0.38802001  1.0
  C  C89  1  0.23527093  0.73530421  0.47061396  1.0
  C  C90  1  0.73464977  0.23462765  0.46925304  1.0
  C  C91  1  0.84974999  0.34973707  0.69959163  1.0
  C  C92  1  0.27267809  0.77269055  0.54541697  1.0
  C  C93  1  0.77202435  0.27199572  0.54404689  1.0
  C  C94  1  0.31328524  0.81328259  0.62661085  1.0
  C  C95  1  0.81260287  0.31258628  0.62525877  1.0
  C  C96  1  0.15828200  0.79017019  0.06289097  1.0
  C  C97  1  0.13998222  0.78444953  0.11946746  1.0
  C  C98  1  0.07812269  0.79626295  0.12361976  1.0
  C  C99  1  0.03324269  0.81477767  0.07115686  1.0
  C  C100  1  0.05101928  0.82135086  0.01502499  1.0
  C  C101  1  0.11272934  0.80914605  0.01089620  1.0
  C  C102  1  0.90465880  0.27293332  0.06310067  1.0
  C  C103  1  0.97947523  0.33530564  0.11970623  1.0
  C  C104  1  0.04556812  0.32776424  0.12399584  1.0
  C  C105  1  0.03812233  0.25681590  0.07164953  1.0
  C  C106  1  0.96428205  0.19403858  0.01549136  1.0
  C  C107  1  0.89834493  0.20198763  0.01121471  1.0
  C  C108  1  0.29000184  0.91273957  0.09216096  1.0
  C  C109  1  0.31466179  0.95798087  0.17439159  1.0
  C  C110  1  0.31345753  0.02932602  0.20575498  1.0
  C  C111  1  0.28833331  0.05805343  0.15542702  1.0
  C  C112  1  0.26481157  0.01455840  0.07402289  1.0
  C  C113  1  0.26519648  0.94249751  0.04251304  1.0
  C  C114  1  0.80215260  0.17948559  0.09220907  1.0
  C  C115  1  0.85971653  0.21653813  0.17447017  1.0
  C  C116  1  0.89228297  0.17661796  0.20593983  1.0
  C  C117  1  0.86706448  0.09754492  0.15567838  1.0
  C  C118  1  0.80924206  0.05959503  0.07426692  1.0
  C  C119  1  0.77732926  0.10008539  0.04265810  1.0
  C  C120  1  0.22474694  0.77323780  0.06139340  1.0
  C  C121  1  0.83659100  0.28823270  0.06144411  1.0
  C  C122  1  0.29147607  0.83453765  0.06644938  1.0
  C  C123  1  0.77491466  0.23192260  0.06644901  1.0
  C  C124  1  0.12123764  0.60686306  0.83041225  1.0
  C  C125  1  0.16255416  0.57512947  0.79974754  1.0
  C  C126  1  0.12404611  0.50481576  0.72630415  1.0
  C  C127  1  0.04300454  0.46477122  0.68148873  1.0
  C  C128  1  0.00084423  0.49625628  0.71051869  1.0
  C  C129  1  0.03979938  0.56661763  0.78392968  1.0
  C  C130  1  0.70932143  0.22342107  0.83039109  1.0
  C  C131  1  0.63737116  0.22453857  0.79964505  1.0
  C  C132  1  0.60254515  0.22133109  0.72613919  1.0
  C  C133  1  0.63880407  0.21639073  0.68133852  1.0
  C  C134  1  0.70998641  0.21393700  0.71046895  1.0
  C  C135  1  0.74434214  0.21708837  0.78395086  1.0
  C  C136  1  0.20441572  0.73785282  0.83072322  1.0
  C  C137  1  0.25560669  0.72818136  0.80399748  1.0
  C  C138  1  0.23621291  0.70933170  0.72538031  1.0
  C  C139  1  0.16482974  0.69981643  0.67136176  1.0
  C  C140  1  0.11332091  0.71017070  0.69732096  1.0
  C  C141  1  0.13326374  0.72928510  0.77606866  1.0
  C  C142  1  0.62645988  0.09274581  0.83072247  1.0
  C  C143  1  0.54852716  0.07568808  0.80385152  1.0
  C  C144  1  0.48939997  0.01588693  0.72522236  1.0
  C  C145  1  0.50687615  0.97135972  0.67132613  1.0
  C  C146  1  0.58436128  0.98697878  0.69742493  1.0
  C  C147  1  0.64307071  0.04664734  0.77618601  1.0
  C  C148  1  0.27292323  0.68005632  0.01287628  1.0
  C  C149  1  0.73982096  0.33272080  0.01272165  1.0
  C  C150  1  0.33104971  0.73818066  0.00809044  1.0
  C  C151  1  0.67693488  0.26980564  0.00794715  1.0
  C  C152  1  0.15910474  0.68509409  0.90775952  1.0
  C  C153  1  0.74872771  0.22260725  0.90777913  1.0
  C  C154  1  0.21693216  0.75521203  0.91340316  1.0
  C  C155  1  0.69654251  0.15812933  0.91341343  1.0
  C  C156  1  0.19744456  0.68909772  0.98964728  1.0
  C  C157  1  0.79215861  0.30052268  0.98962062  1.0
  C  C158  1  0.29893501  0.79345972  0.99006720  1.0
  C  C159  1  0.69110733  0.19654723  0.99001921  1.0
  I  I160  1  0.25564120  0.55967427  0.96144812  1.0
  I  I161  1  0.70565801  0.40159319  0.96117291  1.0
  I  I162  1  0.38798754  0.69392251  0.94410141  1.0
  I  I163  1  0.55598174  0.24993633  0.94376212  1.0
  O  O164  1  0.00407045  0.50406880  0.00816249  1.0
  O  O165  1  0.16953346  0.62583772  0.05693942  1.0
  O  O166  1  0.33931463  0.88143796  0.94962553  1.0
  O  O167  1  0.87954106  0.33915105  0.94792963  1.0
  O  O168  1  0.06837096  0.60875327  0.94790978  1.0
  O  O169  1  0.61029926  0.06814784  0.94960214  1.0
  O  O170  1  0.62535180  0.17034072  0.05602210  1.0
  O  O171  1  0.43067083  0.88573254  0.05609300  1.0
  O  O172  1  0.88729103  0.43108592  0.05688551  1.0
  O  O173  1  0.04353334  0.35715235  0.95778156  1.0
  O  O174  1  0.91419675  0.60059404  0.95774041  1.0
  O  O175  1  0.60689434  0.91959335  0.96237054  1.0
  O  O176  1  0.35546052  0.04277565  0.96237475  1.0
  O  O177  1  0.50409270  0.00409994  0.00820943  1.0
  O  O178  1  0.91600539  0.35715121  0.82083616  1.0
  O  O179  1  0.90481116  0.46358740  0.82082707  1.0
  O  O180  1  0.46268292  0.90084612  0.82232323  1.0
  O  O181  1  0.35962899  0.92142827  0.82233127  1.0
  O  O182  1  0.04009037  0.58362121  0.19390655  1.0
  O  O183  1  0.15371350  0.61027094  0.19392924  1.0
  O  O184  1  0.60577201  0.15286532  0.19266274  1.0
  O  O185  1  0.58695396  0.03988297  0.19267628  1.0
  O  O186  1  0.15275187  0.46973921  0.06385022  1.0
  O  O187  1  0.91105692  0.59409479  0.06383177  1.0
  O  O188  1  0.58828857  0.90458648  0.05833731  1.0
  O  O189  1  0.47000888  0.15373716  0.05834094  1.0
