# generated using pymatgen
data_AlH6C11O5
_symmetry_space_group_name_H-M   'P 1'
_cell_length_a   6.30677317
_cell_length_b   8.70770942
_cell_length_c   15.23276951
_cell_angle_alpha   92.62148358
_cell_angle_beta   101.69972406
_cell_angle_gamma   103.08551506
_symmetry_Int_Tables_number   1
_chemical_formula_structural   AlH6C11O5
_chemical_formula_sum   'Al2 H12 C22 O10'
_cell_volume   794.20299678
_cell_formula_units_Z   2
loop_
 _symmetry_equiv_pos_site_id
 _symmetry_equiv_pos_as_xyz
  1  'x, y, z'
loop_
 _atom_site_type_symbol
 _atom_site_label
 _atom_site_symmetry_multiplicity
 _atom_site_fract_x
 _atom_site_fract_y
 _atom_site_fract_z
 _atom_site_occupancy
  Al  Al0  1  0.99999319  0.49999139  0.50000059  1.0
  Al  Al1  1  0.49999601  0.49999202  0.50000136  1.0
  H  H2  1  0.15935063  0.32267889  0.42383522  1.0
  H  H3  1  0.84064372  0.67732026  0.57616407  1.0
  H  H4  1  0.25909017  0.02104972  0.48725503  1.0
  H  H5  1  0.74091079  0.97893621  0.51274199  1.0
  H  H6  1  0.06522771  0.52491941  0.77025373  1.0
  H  H7  1  0.05267942  0.66479974  0.92235497  1.0
  H  H8  1  0.70374600  0.43470992  0.76964427  1.0
  H  H9  1  0.86031246  0.31346277  0.91827014  1.0
  H  H10  1  0.93476943  0.47508234  0.22974907  1.0
  H  H11  1  0.94733038  0.33522703  0.07765109  1.0
  H  H12  1  0.29624927  0.56528003  0.23035866  1.0
  H  H13  1  0.13970214  0.68656512  0.08173551  1.0
  C  C14  1  0.66267291  0.51671199  0.33826092  1.0
  C  C15  1  0.66796843  0.21282664  0.49700306  1.0
  C  C16  1  0.33732219  0.48327817  0.66174493  1.0
  C  C17  1  0.33202572  0.78715965  0.50299829  1.0
  C  C18  1  0.39425290  0.96024956  0.49734884  1.0
  C  C19  1  0.60574407  0.03973020  0.50264456  1.0
  C  C20  1  0.22178316  0.50623809  0.80859263  1.0
  C  C21  1  0.26305003  0.51302643  0.90234818  1.0
  C  C22  1  0.08723497  0.55515738  0.94840734  1.0
  C  C23  1  0.58434269  0.45763605  0.80826531  1.0
  C  C24  1  0.63547129  0.46450783  0.90202903  1.0
  C  C25  1  0.85740244  0.43097688  0.94708719  1.0
  C  C26  1  0.77822161  0.49377226  0.19141502  1.0
  C  C27  1  0.73696701  0.48700034  0.09765859  1.0
  C  C28  1  0.91276679  0.44486701  0.05159794  1.0
  C  C29  1  0.41566452  0.54237643  0.19173934  1.0
  C  C30  1  0.36452830  0.53550346  0.09797488  1.0
  C  C31  1  0.14260380  0.56904734  0.05291617  1.0
  C  C32  1  0.38055324  0.48010568  0.76124485  1.0
  C  C33  1  0.47409166  0.49403833  0.95036117  1.0
  C  C34  1  0.61944473  0.51989763  0.23876303  1.0
  C  C35  1  0.52592987  0.50600632  0.04964778  1.0
  O  O36  1  0.83550683  0.47268281  0.37657195  1.0
  O  O37  1  0.51322775  0.28421616  0.47331581  1.0
  O  O38  1  0.47817742  0.44685547  0.62055442  1.0
  O  O39  1  0.12465712  0.72008470  0.48383260  1.0
  O  O40  1  0.16449277  0.52730961  0.62343286  1.0
  O  O41  1  0.48676447  0.71577150  0.52668799  1.0
  O  O42  1  0.52180896  0.55312405  0.37945088  1.0
  O  O43  1  0.87533910  0.27990496  0.51616660  1.0
  O  O44  1  0.20516831  0.42859918  0.45414620  1.0
  O  O45  1  0.79482754  0.57139173  0.54585384  1.0
