# generated using pymatgen
data_ZnH6C16N3O8
_symmetry_space_group_name_H-M   'P 1'
_cell_length_a   14.35929167
_cell_length_b   15.07365943
_cell_length_c   15.15171569
_cell_angle_alpha   89.97181607
_cell_angle_beta   90.91261757
_cell_angle_gamma   89.99737480
_symmetry_Int_Tables_number   1
_chemical_formula_structural   ZnH6C16N3O8
_chemical_formula_sum   'Zn2 H12 C32 N6 O16'
_cell_volume   3279.12808698
_cell_formula_units_Z   2
loop_
 _symmetry_equiv_pos_site_id
 _symmetry_equiv_pos_as_xyz
  1  'x, y, z'
loop_
 _atom_site_type_symbol
 _atom_site_label
 _atom_site_symmetry_multiplicity
 _atom_site_fract_x
 _atom_site_fract_y
 _atom_site_fract_z
 _atom_site_occupancy
  Zn  Zn0  1  0.50003466  0.41104453  0.50003690  1.0
  Zn  Zn1  1  0.50002420  0.59998540  0.49996284  1.0
  H  H2  1  0.36584500  0.93962749  0.43134089  1.0
  H  H3  1  0.57681483  0.07034262  0.62488597  1.0
  H  H4  1  0.63415166  0.93962098  0.56865636  1.0
  H  H5  1  0.42312095  0.07045265  0.37513656  1.0
  H  H6  1  0.54500613  0.33772901  0.06163423  1.0
  H  H7  1  0.54468182  0.61086095  0.93995051  1.0
  H  H8  1  0.45493221  0.33773604  0.93849991  1.0
  H  H9  1  0.45523217  0.61082720  0.05995637  1.0
  H  H10  1  0.54203041  0.33745305  0.22537002  1.0
  H  H11  1  0.54198335  0.61094471  0.77571695  1.0
  H  H12  1  0.45790309  0.33749786  0.77476089  1.0
  H  H13  1  0.45803721  0.61092721  0.22418856  1.0
  C  C14  1  0.49972206  0.47529032  0.33289662  1.0
  C  C15  1  0.50032769  0.47532427  0.66711860  1.0
  C  C16  1  0.32191911  0.53914264  0.50469361  1.0
  C  C17  1  0.67810625  0.53914435  0.49526058  1.0
  C  C18  1  0.42693559  0.90788997  0.46073465  1.0
  C  C19  1  0.54376518  0.10209283  0.56799684  1.0
  C  C20  1  0.57309117  0.90787889  0.53925407  1.0
  C  C21  1  0.45618025  0.10216282  0.43202045  1.0
  C  C22  1  0.43349783  0.81592091  0.46011795  1.0
  C  C23  1  0.54389668  0.19407018  0.56193905  1.0
  C  C24  1  0.56660860  0.81590058  0.53983428  1.0
  C  C25  1  0.45601377  0.19412489  0.43808586  1.0
  C  C26  1  0.22172757  0.54310626  0.50520832  1.0
  C  C27  1  0.77829419  0.54313236  0.49470625  1.0
  C  C28  1  0.13630178  0.54459281  0.50354526  1.0
  C  C29  1  0.86372465  0.54460395  0.49639418  1.0
  C  C30  1  0.04296796  0.54544605  0.50121556  1.0
  C  C31  1  0.95705719  0.54542848  0.49868174  1.0
  C  C32  1  0.50000543  0.95607811  0.49999672  1.0
  C  C33  1  0.49998104  0.05394808  0.50000134  1.0
  C  C34  1  0.52408636  0.39741974  0.09679466  1.0
  C  C35  1  0.52363330  0.55122087  0.90405647  1.0
  C  C36  1  0.47585577  0.39743705  0.90327110  1.0
  C  C37  1  0.47629020  0.55120558  0.09590448  1.0
  C  C38  1  0.52350021  0.39714377  0.18852457  1.0
  C  C39  1  0.52307845  0.55158841  0.81233694  1.0
  C  C40  1  0.47643354  0.39718760  0.81154912  1.0
  C  C41  1  0.47690911  0.55157377  0.18762035  1.0
  C  C42  1  0.50017688  0.47437654  0.23475212  1.0
  C  C43  1  0.49981020  0.47441169  0.76527572  1.0
  C  C44  1  0.50010918  0.47422440  0.04869213  1.0
  C  C45  1  0.49981670  0.47424209  0.95131620  1.0
  N  N46  1  0.50006290  0.76825642  0.49997230  1.0
  N  N47  1  0.49995497  0.24168817  0.50001053  1.0
  N  N48  1  0.36159190  0.76796868  0.40640842  1.0
  N  N49  1  0.60186366  0.24244771  0.62876735  1.0
  N  N50  1  0.63858918  0.76793052  0.59347537  1.0
  N  N51  1  0.39803512  0.24253872  0.37124506  1.0
  O  O52  1  0.50671417  0.39969875  0.37264533  1.0
  O  O53  1  0.50776487  0.54935445  0.62819183  1.0
  O  O54  1  0.49333987  0.39971897  0.62743951  1.0
  O  O55  1  0.49227233  0.54931778  0.37175860  1.0
  O  O56  1  0.35933718  0.46350368  0.49896166  1.0
  O  O57  1  0.63578860  0.61438054  0.49008596  1.0
  O  O58  1  0.64068553  0.46351280  0.50105412  1.0
  O  O59  1  0.36424222  0.61437359  0.50980892  1.0
  O  O60  1  0.27986272  0.78848985  0.41972796  1.0
  O  O61  1  0.39135629  0.71622751  0.35077289  1.0
  O  O62  1  0.65826252  0.29584200  0.59973273  1.0
  O  O63  1  0.59046598  0.22059490  0.70651539  1.0
  O  O64  1  0.72028378  0.78851617  0.58008376  1.0
  O  O65  1  0.60891038  0.71613941  0.64916194  1.0
  O  O66  1  0.34163465  0.29589688  0.40027734  1.0
  O  O67  1  0.40940154  0.22070672  0.29350666  1.0
