# generated using pymatgen
data_ZnH16PdC24(NO2)4
_symmetry_space_group_name_H-M   'P 1'
_cell_length_a   11.90811364
_cell_length_b   11.90816339
_cell_length_c   26.55974432
_cell_angle_alpha   89.99972364
_cell_angle_beta   89.99968932
_cell_angle_gamma   92.34042217
_symmetry_Int_Tables_number   1
_chemical_formula_structural   ZnH16PdC24(NO2)4
_chemical_formula_sum   'Zn4 H64 Pd4 C96 N16 O32'
_cell_volume   3763.12998815
_cell_formula_units_Z   4
loop_
 _symmetry_equiv_pos_site_id
 _symmetry_equiv_pos_as_xyz
  1  'x, y, z'
loop_
 _atom_site_type_symbol
 _atom_site_label
 _atom_site_symmetry_multiplicity
 _atom_site_fract_x
 _atom_site_fract_y
 _atom_site_fract_z
 _atom_site_occupancy
  Zn  Zn0  1  0.74999493  0.75000107  0.16196535  1.0
  Zn  Zn1  1  0.25000585  0.25000404  0.33803710  1.0
  Zn  Zn2  1  0.25000518  0.25000037  0.83803363  1.0
  Zn  Zn3  1  0.74999918  0.74999560  0.66196188  1.0
  H  H4  1  0.13544253  0.60031665  0.83428372  1.0
  H  H5  1  0.36456602  0.89967920  0.83427822  1.0
  H  H6  1  0.10031688  0.63543328  0.66572224  1.0
  H  H7  1  0.39967491  0.86455816  0.66571937  1.0
  H  H8  1  0.86456507  0.39968377  0.16571638  1.0
  H  H9  1  0.63544187  0.10031279  0.16571586  1.0
  H  H10  1  0.89968090  0.36455812  0.33427862  1.0
  H  H11  1  0.60032046  0.13543498  0.33428036  1.0
  H  H12  1  0.99335527  0.62202035  0.76480458  1.0
  H  H13  1  0.50664366  0.87795957  0.76479585  1.0
  H  H14  1  0.12204555  0.49335063  0.73520271  1.0
  H  H15  1  0.37797037  0.00663937  0.73520180  1.0
  H  H16  1  0.00664697  0.37797515  0.23519779  1.0
  H  H17  1  0.49335872  0.12202498  0.23519898  1.0
  H  H18  1  0.87796308  0.50663967  0.26479702  1.0
  H  H19  1  0.62203439  0.99335607  0.26479793  1.0
  H  H20  1  0.98578978  0.97336666  0.80145591  1.0
  H  H21  1  0.51419595  0.52661063  0.80145961  1.0
  H  H22  1  0.47339248  0.48580242  0.69853627  1.0
  H  H23  1  0.02661789  0.01419906  0.69854562  1.0
  H  H24  1  0.01420643  0.02662645  0.19854420  1.0
  H  H25  1  0.48579972  0.47337408  0.19854125  1.0
  H  H26  1  0.52661769  0.51419878  0.30145818  1.0
  H  H27  1  0.97338546  0.98580061  0.30145900  1.0
  H  H28  1  0.12576193  0.94169660  0.87011767  1.0
  H  H29  1  0.37422873  0.55830179  0.87012268  1.0
  H  H30  1  0.44169521  0.62576932  0.62987398  1.0
  H  H31  1  0.05829364  0.87423522  0.62988132  1.0
  H  H32  1  0.87424048  0.05830142  0.12988018  1.0
  H  H33  1  0.62577232  0.44170131  0.12987855  1.0
  H  H34  1  0.55829897  0.37423142  0.37012123  1.0
  H  H35  1  0.94169907  0.12576892  0.37012067  1.0
  H  H36  1  0.42089350  0.89568674  0.96377376  1.0
  H  H37  1  0.07910640  0.60432888  0.96377788  1.0
  H  H38  1  0.39566922  0.92089616  0.53622597  1.0
  H  H39  1  0.10431416  0.57911041  0.53622519  1.0
  H  H40  1  0.57910463  0.10432316  0.03622221  1.0
  H  H41  1  0.92089790  0.39567246  0.03622109  1.0
  H  H42  1  0.60432323  0.07910377  0.46377527  1.0
  H  H43  1  0.89568165  0.42088945  0.46377303  1.0
  H  H44  1  0.55520009  0.87264735  0.03673006  1.0
  H  H45  1  0.94479394  0.62737042  0.03673173  1.0
  H  H46  1  0.37264005  0.05520036  0.46326917  1.0
  H  H47  1  0.12736210  0.44479978  0.46327130  1.0
  H  H48  1  0.44479109  0.12737197  0.96327043  1.0
  H  H49  1  0.05520633  0.37263353  0.96326724  1.0
  H  H50  1  0.62736319  0.94479763  0.53673169  1.0
  H  H51  1  0.87264142  0.55520242  0.53672693  1.0
  H  H52  1  0.44716951  0.52430658  0.04262483  1.0
  H  H53  1  0.05282817  0.97570106  0.04262406  1.0
  H  H54  1  0.02429760  0.94716864  0.45737247  1.0
  H  H55  1  0.47570137  0.55283088  0.45737951  1.0
  H  H56  1  0.55282726  0.47570840  0.95737867  1.0
  H  H57  1  0.94716909  0.02429540  0.95737191  1.0
  H  H58  1  0.97570099  0.05283535  0.54262764  1.0
  H  H59  1  0.52430114  0.44716882  0.54262399  1.0
  H  H60  1  0.31775764  0.55819904  0.97039593  1.0
  H  H61  1  0.18224693  0.94181219  0.97039981  1.0
  H  H62  1  0.05818490  0.81775705  0.52960218  1.0
  H  H63  1  0.44180632  0.68225278  0.52960337  1.0
  H  H64  1  0.68224760  0.44180396  0.02960192  1.0
  H  H65  1  0.81775821  0.05818913  0.02960067  1.0
  H  H66  1  0.94181117  0.18224701  0.47039792  1.0
  H  H67  1  0.55819452  0.31774696  0.47040012  1.0
  Pd  Pd68  1  0.24999769  0.75000691  0.90940990  1.0
  Pd  Pd69  1  0.24999612  0.75000540  0.59059094  1.0
  Pd  Pd70  1  0.75000504  0.24999615  0.09058833  1.0
  Pd  Pd71  1  0.74999979  0.24999614  0.40940917  1.0
  C  C72  1  0.09428636  0.87263362  0.84621130  1.0
  C  C73  1  0.40570746  0.62735739  0.84621345  1.0
  C  C74  1  0.37263748  0.59428668  0.65378359  1.0
  C  C75  1  0.12735483  0.90571076  0.65379107  1.0
  C  C76  1  0.90571275  0.12736532  0.15378617  1.0
  C  C77  1  0.59429461  0.37263558  0.15378666  1.0
  C  C78  1  0.62735989  0.40571145  0.34621275  1.0
  C  C79  1  0.87263946  0.09429165  0.34621280  1.0
  C  C80  1  0.01680410  0.88977571  0.80818127  1.0
  C  C81  1  0.48318373  0.61020662  0.80818101  1.0
  C  C82  1  0.38979553  0.51681682  0.69181715  1.0
  C  C83  1  0.11021037  0.98318997  0.69182300  1.0
  C  C84  1  0.98318875  0.11021748  0.19181846  1.0
  C  C85  1  0.51681545  0.38978054  0.19181797  1.0
  C  C86  1  0.61021123  0.48318362  0.30817994  1.0
  C  C87  1  0.88978800  0.01681066  0.30818351  1.0
  C  C88  1  0.98038796  0.79945793  0.77787041  1.0
  C  C89  1  0.51960264  0.70052541  0.77786732  1.0
  C  C90  1  0.29947945  0.48038923  0.72212972  1.0
  C  C91  1  0.20053192  0.01960606  0.72213411  1.0
  C  C92  1  0.01961004  0.20053683  0.22213044  1.0
  C  C93  1  0.48039665  0.29946342  0.22213053  1.0
  C  C94  1  0.70052782  0.51960614  0.27786775  1.0
  C  C95  1  0.79947322  0.98039526  0.27786939  1.0
  C  C96  1  0.89678814  0.81725331  0.73589005  1.0
  C  C97  1  0.60320653  0.68272031  0.73589055  1.0
  C  C98  1  0.31727977  0.39679139  0.76410798  1.0
  C  C99  1  0.18273628  0.10320584  0.76411185  1.0
  C  C100  1  0.10321221  0.18273886  0.26411006  1.0
  C  C101  1  0.39680172  0.31726411  0.26411144  1.0
  C  C102  1  0.68273365  0.60320805  0.23588949  1.0
  C  C103  1  0.81726635  0.89679554  0.23589202  1.0
  C  C104  1  0.02209990  0.69352797  0.78756569  1.0
  C  C105  1  0.47789742  0.80645437  0.78755974  1.0
  C  C106  1  0.19354789  0.52210099  0.71243957  1.0
  C  C107  1  0.30645940  0.97789206  0.71243968  1.0
  C  C108  1  0.97790051  0.30646504  0.21243668  1.0
  C  C109  1  0.52210512  0.19353271  0.21243547  1.0
  C  C110  1  0.80645938  0.47789438  0.28755978  1.0
  C  C111  1  0.69354121  0.02210431  0.28756230  1.0
  C  C112  1  0.09918233  0.68103712  0.82615973  1.0
  C  C113  1  0.40081946  0.81895646  0.82615507  1.0
  C  C114  1  0.18104330  0.59917782  0.67384312  1.0
  C  C115  1  0.31895504  0.90081252  0.67384375  1.0
  C  C116  1  0.90082611  0.31896328  0.17384000  1.0
  C  C117  1  0.59918754  0.18103472  0.17384165  1.0
  C  C118  1  0.81895554  0.40081692  0.32615548  1.0
  C  C119  1  0.68104106  0.09917891  0.32615673  1.0
  C  C120  1  0.36940613  0.62640692  0.98686884  1.0
  C  C121  1  0.13059326  0.87360508  0.98687036  1.0
  C  C122  1  0.12639258  0.86940807  0.51313050  1.0
  C  C123  1  0.37359963  0.63060108  0.51313121  1.0
  C  C124  1  0.63059452  0.37360292  0.01313014  1.0
  C  C125  1  0.86940941  0.12639714  0.01312974  1.0
  C  C126  1  0.87360087  0.13059437  0.48687036  1.0
  C  C127  1  0.62640120  0.36939866  0.48687002  1.0
  C  C128  1  0.44256900  0.60785564  0.02638663  1.0
  C  C129  1  0.05742486  0.89215479  0.02638792  1.0
  C  C130  1  0.10784543  0.94256951  0.47361199  1.0
  C  C131  1  0.39215261  0.55743153  0.47361734  1.0
  C  C132  1  0.55742337  0.39215608  0.97361422  1.0
  C  C133  1  0.94256832  0.10784344  0.97361106  1.0
  C  C134  1  0.89215295  0.05743112  0.52638849  1.0
  C  C135  1  0.60785012  0.44257153  0.52638390  1.0
  C  C136  1  0.51237747  0.69598417  0.04438173  1.0
  C  C137  1  0.98760954  0.80403032  0.04438066  1.0
  C  C138  1  0.19597244  0.01237768  0.45561838  1.0
  C  C139  1  0.30402618  0.48761843  0.45562187  1.0
  C  C140  1  0.48760757  0.30403109  0.95562402  1.0
  C  C141  1  0.01238286  0.19596878  0.95561756  1.0
  C  C142  1  0.80402677  0.98762294  0.54438436  1.0
  C  C143  1  0.69597639  0.51238211  0.54437749  1.0
  C  C144  1  0.50340878  0.80214635  0.02246425  1.0
  C  C145  1  0.99658548  0.69787241  0.02246640  1.0
  C  C146  1  0.30213264  0.00340864  0.47753639  1.0
  C  C147  1  0.19786509  0.49659061  0.47753786  1.0
  C  C148  1  0.49658061  0.19787133  0.97753850  1.0
  C  C149  1  0.00341384  0.30212988  0.97753258  1.0
  C  C150  1  0.69786652  0.99659114  0.52246635  1.0
  C  C151  1  0.80213591  0.50341165  0.52246036  1.0
  C  C152  1  0.42952155  0.81529969  0.98271566  1.0
  C  C153  1  0.07047901  0.68471654  0.98271812  1.0
  C  C154  1  0.31528507  0.92952437  0.51728499  1.0
  C  C155  1  0.18470520  0.57048141  0.51728253  1.0
  C  C156  1  0.57047685  0.18471442  0.01728332  1.0
  C  C157  1  0.92952803  0.31528809  0.01728123  1.0
  C  C158  1  0.68471063  0.07047381  0.48271813  1.0
  C  C159  1  0.81529401  0.42951920  0.48271419  1.0
  C  C160  1  0.60006729  0.67564895  0.08429280  1.0
  C  C161  1  0.89991764  0.82436681  0.08429001  1.0
  C  C162  1  0.17563801  0.10006893  0.41570904  1.0
  C  C163  1  0.32436906  0.39992070  0.41571342  1.0
  C  C164  1  0.39991618  0.32436803  0.91571145  1.0
  C  C165  1  0.10007748  0.17563558  0.91570746  1.0
  C  C166  1  0.82435685  0.89992927  0.58429333  1.0
  C  C167  1  0.67563681  0.60007892  0.58428669  1.0
  N  N168  1  0.36427413  0.72852391  0.96507447  1.0
  N  N169  1  0.13573005  0.77149327  0.96507772  1.0
  N  N170  1  0.22850931  0.86427369  0.53492577  1.0
  N  N171  1  0.27148147  0.63573019  0.53492446  1.0
  N  N172  1  0.63572757  0.27148927  0.03492300  1.0
  N  N173  1  0.86427547  0.22851393  0.03492201  1.0
  N  N174  1  0.77148482  0.13572621  0.46507622  1.0
  N  N175  1  0.72851753  0.36426706  0.46507489  1.0
  N  N176  1  0.13432656  0.76966154  0.85476378  1.0
  N  N177  1  0.36566994  0.73033352  0.85476241  1.0
  N  N178  1  0.26966446  0.63433197  0.64523577  1.0
  N  N179  1  0.23032828  0.86567062  0.64523895  1.0
  N  N180  1  0.86567338  0.23033738  0.14523595  1.0
  N  N181  1  0.63433387  0.26966025  0.14523543  1.0
  N  N182  1  0.73033291  0.36566617  0.35476132  1.0
  N  N183  1  0.76966511  0.13433098  0.35476191  1.0
  O  O184  1  0.88610840  0.73448408  0.70426673  1.0
  O  O185  1  0.61387974  0.76548669  0.70426213  1.0
  O  O186  1  0.23450745  0.38611613  0.79573113  1.0
  O  O187  1  0.26550930  0.11388493  0.79573441  1.0
  O  O188  1  0.11388954  0.26550983  0.29573338  1.0
  O  O189  1  0.38612153  0.23449369  0.29573346  1.0
  O  O190  1  0.76549731  0.61387930  0.20426558  1.0
  O  O191  1  0.73450411  0.88611451  0.20426984  1.0
  O  O192  1  0.84621860  0.90650838  0.73489000  1.0
  O  O193  1  0.65377646  0.59347113  0.73489434  1.0
  O  O194  1  0.40652932  0.34621258  0.76510454  1.0
  O  O195  1  0.09348638  0.15377960  0.76511078  1.0
  O  O196  1  0.15378773  0.09348534  0.26510672  1.0
  O  O197  1  0.34622462  0.40651934  0.26510652  1.0
  O  O198  1  0.59347982  0.65379874  0.23489594  1.0
  O  O199  1  0.90652790  0.84620719  0.23489723  1.0
  O  O200  1  0.62276646  0.75995350  0.11280688  1.0
  O  O201  1  0.87721861  0.74006951  0.11280471  1.0
  O  O202  1  0.25993850  0.12277268  0.38719244  1.0
  O  O203  1  0.24006254  0.37722246  0.38719671  1.0
  O  O204  1  0.37722174  0.24007178  0.88719661  1.0
  O  O205  1  0.12277736  0.25993287  0.88719012  1.0
  O  O206  1  0.74006255  0.87723042  0.61280954  1.0
  O  O207  1  0.75994270  0.62278054  0.61280039  1.0
  O  O208  1  0.64306308  0.58120373  0.08439978  1.0
  O  O209  1  0.85691498  0.91880967  0.08439425  1.0
  O  O210  1  0.08119509  0.14307102  0.41560105  1.0
  O  O211  1  0.41880108  0.35691887  0.41561057  1.0
  O  O212  1  0.35691462  0.41881507  0.91560710  1.0
  O  O213  1  0.14307585  0.08119114  0.91560058  1.0
  O  O214  1  0.91880685  0.85693290  0.58440019  1.0
  O  O215  1  0.58119351  0.64307512  0.58439218  1.0
