# generated using pymatgen
data_AlH12C33(NO10)3
_symmetry_space_group_name_H-M   'P 1'
_cell_length_a   4.39174972
_cell_length_b   27.77912855
_cell_length_c   27.77915879
_cell_angle_alpha   60.00412195
_cell_angle_beta   89.99974453
_cell_angle_gamma   89.99672618
_symmetry_Int_Tables_number   1
_chemical_formula_structural   AlH12C33(NO10)3
_chemical_formula_sum   'Al2 H24 C66 N6 O60'
_cell_volume   2935.10713358
_cell_formula_units_Z   2
loop_
 _symmetry_equiv_pos_site_id
 _symmetry_equiv_pos_as_xyz
  1  'x, y, z'
loop_
 _atom_site_type_symbol
 _atom_site_label
 _atom_site_symmetry_multiplicity
 _atom_site_fract_x
 _atom_site_fract_y
 _atom_site_fract_z
 _atom_site_occupancy
  Al  Al0  1  0.07933480  0.99999408  0.50001006  1.0
  Al  Al1  1  0.07934501  0.66667310  0.16665432  1.0
  H  H2  1  0.31952203  0.51733978  0.10867168  1.0
  H  H3  1  0.84066471  0.39016030  0.17606251  1.0
  H  H4  1  0.83054716  0.54256594  0.31387943  1.0
  H  H5  1  0.69720687  0.40152237  0.40047486  1.0
  H  H6  1  0.84061098  0.27650431  0.49060492  1.0
  H  H7  1  0.31948570  0.14932747  0.55799675  1.0
  H  H8  1  0.69720365  0.26514403  0.26619470  1.0
  H  H9  1  0.83045643  0.12409666  0.35278794  1.0
  H  H10  1  0.31966072  0.60867617  0.37396438  1.0
  H  H11  1  0.84078777  0.67605889  0.43374606  1.0
  H  H12  1  0.82990644  0.81391933  0.14349059  1.0
  H  H13  1  0.69734391  0.90049121  0.19800985  1.0
  H  H14  1  0.84078993  0.99060999  0.23291471  1.0
  H  H15  1  0.31964985  0.05799232  0.29270127  1.0
  H  H16  1  0.69740278  0.76618361  0.46864809  1.0
  H  H17  1  0.82982203  0.85274619  0.52318288  1.0
  H  H18  1  0.31951037  0.87402630  0.01731075  1.0
  H  H19  1  0.84072353  0.93379160  0.89014967  1.0
  H  H20  1  0.83020752  0.64352944  0.04257757  1.0
  H  H21  1  0.69728877  0.69801195  0.90152145  1.0
  H  H22  1  0.84078422  0.73287863  0.77651739  1.0
  H  H23  1  0.31958844  0.79264053  0.64935861  1.0
  H  H24  1  0.69726045  0.96866588  0.76514051  1.0
  H  H25  1  0.83024731  0.02313358  0.62408959  1.0
  C  C26  1  0.58379809  0.94609273  0.58408914  1.0
  C  C27  1  0.58378252  0.08408163  0.46982745  1.0
  C  C28  1  0.58378190  0.96980826  0.44611409  1.0
  C  C29  1  0.58384141  0.58258594  0.19684056  1.0
  C  C30  1  0.58376916  0.69686014  0.22054990  1.0
  C  C31  1  0.58376890  0.72057442  0.08257512  1.0
  C  C32  1  0.57287280  0.51959057  0.22564268  1.0
  C  C33  1  0.47689945  0.49144636  0.28173582  1.0
  C  C34  1  0.42957491  0.43399659  0.31090007  1.0
  C  C35  1  0.46625592  0.40436066  0.28245679  1.0
  C  C36  1  0.52627313  0.43293128  0.22493648  1.0
  C  C37  1  0.60033203  0.48974013  0.19719189  1.0
  C  C38  1  0.52623950  0.23373791  0.44173041  1.0
  C  C39  1  0.46622937  0.26231143  0.38420871  1.0
  C  C40  1  0.42954783  0.23267657  0.35576529  1.0
  C  C41  1  0.47684617  0.17522441  0.38493285  1.0
  C  C42  1  0.57280315  0.14707666  0.44102767  1.0
  C  C43  1  0.60028329  0.17692692  0.46947780  1.0
  C  C44  1  0.57283430  0.72566388  0.25474156  1.0
  C  C45  1  0.47682822  0.78176195  0.22680059  1.0
  C  C46  1  0.42963899  0.81091807  0.25509658  1.0
  C  C47  1  0.46642371  0.78246504  0.31317250  1.0
  C  C48  1  0.52637535  0.72493873  0.34211940  1.0
  C  C49  1  0.60038270  0.69720527  0.31304254  1.0
  C  C50  1  0.52640285  0.94172974  0.32454440  1.0
  C  C51  1  0.46644101  0.88420549  0.35349033  1.0
  C  C52  1  0.42964914  0.85575478  0.41156549  1.0
  C  C53  1  0.47684597  0.88490810  0.43986355  1.0
  C  C54  1  0.57285531  0.94100252  0.41192488  1.0
  C  C55  1  0.60041168  0.96945938  0.35362418  1.0
  C  C56  1  0.57279708  0.75477699  0.01958380  1.0
  C  C57  1  0.47681281  0.72683063  0.99143781  1.0
  C  C58  1  0.42955849  0.75511685  0.93398820  1.0
  C  C59  1  0.46636770  0.81319340  0.90435199  1.0
  C  C60  1  0.52634537  0.84214640  0.93292306  1.0
  C  C61  1  0.60032501  0.81308191  0.98973499  1.0
  C  C62  1  0.52637882  0.82452384  0.73374143  1.0
  C  C63  1  0.46640430  0.85347807  0.76231230  1.0
  C  C64  1  0.42960731  0.91155652  0.73267482  1.0
  C  C65  1  0.47686657  0.93984243  0.67522567  1.0
  C  C66  1  0.57284699  0.91189273  0.64708098  1.0
  C  C67  1  0.60037210  0.85358742  0.67693024  1.0
  C  C68  1  0.72240543  0.51357641  0.13887621  1.0
  C  C69  1  0.43198814  0.40328874  0.19389930  1.0
  C  C70  1  0.40247418  0.52407448  0.30993705  1.0
  C  C71  1  0.29841018  0.40732852  0.36894415  1.0
  C  C72  1  0.43194133  0.26338067  0.47276721  1.0
  C  C73  1  0.72236771  0.15309190  0.52779345  1.0
  C  C74  1  0.29839114  0.25934552  0.29772018  1.0
  C  C75  1  0.40239228  0.14259762  0.35673283  1.0
  C  C76  1  0.72250416  0.63888841  0.34752063  1.0
  C  C77  1  0.43211043  0.69389016  0.40280353  1.0
  C  C78  1  0.40200490  0.80996134  0.16598813  1.0
  C  C79  1  0.29851288  0.86896609  0.22373385  1.0
  C  C80  1  0.43212333  0.97278018  0.26385979  1.0
  C  C81  1  0.72250807  0.02777449  0.31914886  1.0
  C  C82  1  0.29854491  0.79770848  0.44292533  1.0
  C  C83  1  0.40195758  0.85671159  0.50067234  1.0
  C  C84  1  0.72239521  0.84757840  0.01356004  1.0
  C  C85  1  0.43204901  0.90283056  0.90328260  1.0
  C  C86  1  0.40220859  0.66600812  0.02405882  1.0
  C  C87  1  0.29845942  0.72373574  0.90732130  1.0
  C  C88  1  0.43208293  0.76384155  0.76338068  1.0
  C  C89  1  0.72245534  0.81908783  0.65310706  1.0
  C  C90  1  0.29845327  0.94293934  0.75933919  1.0
  C  C91  1  0.40225483  0.00066606  0.64260282  1.0
  N  N92  1  0.45347815  0.34638101  0.30701592  1.0
  N  N93  1  0.45348656  0.32029159  0.35964970  1.0
  N  N94  1  0.45367517  0.80701776  0.34659773  1.0
  N  N95  1  0.45368946  0.85965286  0.32006471  1.0
  N  N96  1  0.45366096  0.84661172  0.84637376  1.0
  N  N97  1  0.45364055  0.82006024  0.82028994  1.0
  O  O98  1  0.81758384  0.99732175  0.44469373  1.0
  O  O99  1  0.81760526  0.94466151  0.55800150  1.0
  O  O100  1  0.81759089  0.05798581  0.49734404  1.0
  O  O101  1  0.34378136  0.96190589  0.47495254  1.0
  O  O102  1  0.34376735  0.06314887  0.46192511  1.0
  O  O103  1  0.34377960  0.97493232  0.56315367  1.0
  O  O104  1  0.81758174  0.72200367  0.10866207  1.0
  O  O105  1  0.81762571  0.60867979  0.16932184  1.0
  O  O106  1  0.81759404  0.66934884  0.22196606  1.0
  O  O107  1  0.34377825  0.69173310  0.10351169  1.0
  O  O108  1  0.34376284  0.70476327  0.19171239  1.0
  O  O109  1  0.34381100  0.60351988  0.20474326  1.0
  O  O110  1  0.54166845  0.51633247  0.09977890  1.0
  O  O111  1  0.99580403  0.52446421  0.13124248  1.0
  O  O112  1  0.61766803  0.38641919  0.16886380  1.0
  O  O113  1  0.15320301  0.39836746  0.19277573  1.0
  O  O114  1  0.61253069  0.55499667  0.31439510  1.0
  O  O115  1  0.14445901  0.52168768  0.32846945  1.0
  O  O116  1  0.47503142  0.40027550  0.41029523  1.0
  O  O117  1  0.02244274  0.39804619  0.37444203  1.0
  O  O118  1  0.61761685  0.28024691  0.49780455  1.0
  O  O119  1  0.15316281  0.26830671  0.47389012  1.0
  O  O120  1  0.54163145  0.15033497  0.56689065  1.0
  O  O121  1  0.99578078  0.14220728  0.53542604  1.0
  O  O122  1  0.47502546  0.26639072  0.25637356  1.0
  O  O123  1  0.02242822  0.26863633  0.29221761  1.0
  O  O124  1  0.61243940  0.11167319  0.35226957  1.0
  O  O125  1  0.14435572  0.14498862  0.33820722  1.0
  O  O126  1  0.54180668  0.59978549  0.38386701  1.0
  O  O127  1  0.99588462  0.63125856  0.34424527  1.0
  O  O128  1  0.61782142  0.66883735  0.44470124  1.0
  O  O129  1  0.15333567  0.69278680  0.40885764  1.0
  O  O130  1  0.61186121  0.81444113  0.13056547  1.0
  O  O131  1  0.14383221  0.82843940  0.14991355  1.0
  O  O132  1  0.47515899  0.91031339  0.18943211  1.0
  O  O133  1  0.02258499  0.87447378  0.22754245  1.0
  O  O134  1  0.61781329  0.99782969  0.22196067  1.0
  O  O135  1  0.15334355  0.97388665  0.25780801  1.0
  O  O136  1  0.54179378  0.06688110  0.28280333  1.0
  O  O137  1  0.99588463  0.03540295  0.32242572  1.0
  O  O138  1  0.47522266  0.75636082  0.47722599  1.0
  O  O139  1  0.02262214  0.79219929  0.43911667  1.0
  O  O140  1  0.61177228  0.85221878  0.53610778  1.0
  O  O141  1  0.14375977  0.83824647  0.51672882  1.0
  O  O142  1  0.54164941  0.88392874  0.01630698  1.0
  O  O143  1  0.99577673  0.84431317  0.02446625  1.0
  O  O144  1  0.61771857  0.94473694  0.88640616  1.0
  O  O145  1  0.15325659  0.90887338  0.89836247  1.0
  O  O146  1  0.61216318  0.63059697  0.05498486  1.0
  O  O147  1  0.14409914  0.64991114  0.02165680  1.0
  O  O148  1  0.47511754  0.68943305  0.90027590  1.0
  O  O149  1  0.02251158  0.72753723  0.89801331  1.0
  O  O150  1  0.61778243  0.72193437  0.78026202  1.0
  O  O151  1  0.15329575  0.75780225  0.76829861  1.0
  O  O152  1  0.54173018  0.78273537  0.65036532  1.0
  O  O153  1  0.99582629  0.82235250  0.64219762  1.0
  O  O154  1  0.47507804  0.97724210  0.76638582  1.0
  O  O155  1  0.02250263  0.93914176  0.76863974  1.0
  O  O156  1  0.61220577  0.03607041  0.61167457  1.0
  O  O157  1  0.14414862  0.01677348  0.64500059  1.0
