# generated using pymatgen
data_CuH13C21(NO)4
_symmetry_space_group_name_H-M   'P 1'
_cell_length_a   10.21805694
_cell_length_b   12.86719626
_cell_length_c   21.08583922
_cell_angle_alpha   89.99975631
_cell_angle_beta   89.99883249
_cell_angle_gamma   89.99907902
_symmetry_Int_Tables_number   1
_chemical_formula_structural   CuH13C21(NO)4
_chemical_formula_sum   'Cu4 H52 C84 N16 O16'
_cell_volume   2772.31857094
_cell_formula_units_Z   4
loop_
 _symmetry_equiv_pos_site_id
 _symmetry_equiv_pos_as_xyz
  1  'x, y, z'
loop_
 _atom_site_type_symbol
 _atom_site_label
 _atom_site_symmetry_multiplicity
 _atom_site_fract_x
 _atom_site_fract_y
 _atom_site_fract_z
 _atom_site_occupancy
  Cu  Cu0  1  0.70564265  0.09217342  0.00000184  1.0
  Cu  Cu1  1  0.79434386  0.59218730  0.50000644  1.0
  Cu  Cu2  1  0.29434569  0.90783046  0.00000004  1.0
  Cu  Cu3  1  0.20567463  0.40781493  0.50000212  1.0
  H  H4  1  0.96363024  0.11775207  0.99999905  1.0
  H  H5  1  0.50013084  0.67249791  0.60854846  1.0
  H  H6  1  0.00354079  0.78757746  0.78168761  1.0
  H  H7  1  0.00013351  0.82750856  0.10855580  1.0
  H  H8  1  0.49987297  0.32752997  0.39144540  1.0
  H  H9  1  0.99643562  0.21240068  0.21832853  1.0
  H  H10  1  0.87577513  0.43128358  0.73963208  1.0
  H  H11  1  0.48375693  0.78683670  0.82615206  1.0
  H  H12  1  0.62419820  0.93133902  0.76037389  1.0
  H  H13  1  0.60687243  0.85587265  0.65229589  1.0
  H  H14  1  0.15430093  0.48191619  0.64380498  1.0
  H  H15  1  0.84570484  0.51810236  0.35618888  1.0
  H  H16  1  0.49642863  0.28761295  0.28168267  1.0
  H  H17  1  0.34571572  0.98192222  0.85620054  1.0
  H  H18  1  0.39313031  0.14411265  0.65228722  1.0
  H  H19  1  0.50357127  0.71241259  0.71830833  1.0
  H  H20  1  0.84570551  0.51807156  0.64380133  1.0
  H  H21  1  0.49640180  0.28758654  0.71830224  1.0
  H  H22  1  0.37577592  0.06864164  0.76036376  1.0
  H  H23  1  0.65424907  0.01804309  0.85621883  1.0
  H  H24  1  0.50357559  0.71240558  0.28167644  1.0
  H  H25  1  0.00013060  0.82749679  0.89145658  1.0
  H  H26  1  0.62422495  0.93134194  0.23964527  1.0
  H  H27  1  0.99986049  0.17250155  0.10854818  1.0
  H  H28  1  0.89308291  0.35579710  0.84770249  1.0
  H  H29  1  0.49987862  0.32749112  0.60853659  1.0
  H  H30  1  0.01630607  0.28683668  0.67382688  1.0
  H  H31  1  0.89310650  0.35586343  0.15228080  1.0
  H  H32  1  0.98370601  0.71315997  0.67383585  1.0
  H  H33  1  0.87576325  0.43134838  0.26035118  1.0
  H  H34  1  0.50011932  0.67251654  0.39145157  1.0
  H  H35  1  0.15431201  0.48190891  0.35619821  1.0
  H  H36  1  0.37579191  0.06866865  0.23962518  1.0
  H  H37  1  0.99644463  0.21241922  0.78167533  1.0
  H  H38  1  0.00357092  0.78760399  0.21832326  1.0
  H  H39  1  0.46365383  0.38225822  0.49999122  1.0
  H  H40  1  0.48373310  0.78683511  0.17383086  1.0
  H  H41  1  0.51622374  0.21314536  0.82615114  1.0
  H  H42  1  0.99984975  0.17248279  0.89144706  1.0
  H  H43  1  0.03636183  0.88225093  0.00000619  1.0
  H  H44  1  0.98373591  0.71317954  0.32617646  1.0
  H  H45  1  0.60688231  0.85586549  0.34771707  1.0
  H  H46  1  0.10687882  0.64416161  0.15229563  1.0
  H  H47  1  0.39314215  0.14413812  0.34769891  1.0
  H  H48  1  0.10691493  0.64413958  0.84771969  1.0
  H  H49  1  0.53635781  0.61776189  0.50000073  1.0
  H  H50  1  0.65430571  0.01809866  0.14381418  1.0
  H  H51  1  0.51625177  0.21318495  0.17383990  1.0
  H  H52  1  0.12421988  0.56868834  0.26037078  1.0
  H  H53  1  0.01628801  0.28682283  0.32617745  1.0
  H  H54  1  0.34571462  0.98192649  0.14379257  1.0
  H  H55  1  0.12424448  0.56866551  0.73964599  1.0
  C  C56  1  0.09506408  0.23945342  0.69336505  1.0
  C  C57  1  0.90496713  0.76055269  0.30663734  1.0
  C  C58  1  0.81420567  0.86346054  0.22025921  1.0
  C  C59  1  0.27017161  0.77478490  0.90549098  1.0
  C  C60  1  0.17715265  0.09565451  0.15560830  1.0
  C  C61  1  0.69312667  0.84149055  0.31858314  1.0
  C  C62  1  0.20377338  0.61640788  0.75813700  1.0
  C  C63  1  0.30688987  0.15849458  0.68142257  1.0
  C  C64  1  0.70375415  0.88359886  0.25813723  1.0
  C  C65  1  0.08449884  0.12069730  0.89054206  1.0
  C  C66  1  0.70745371  0.27806673  0.15681465  1.0
  C  C67  1  0.77012988  0.72523654  0.59451805  1.0
  C  C68  1  0.81417745  0.86344880  0.77975650  1.0
  C  C69  1  0.41550797  0.69744508  0.25397034  1.0
  C  C70  1  0.72980811  0.22518981  0.90547653  1.0
  C  C71  1  0.32285589  0.59564675  0.65561454  1.0
  C  C72  1  0.29253465  0.72195280  0.15682141  1.0
  C  C73  1  0.29626318  0.11640836  0.25812250  1.0
  C  C74  1  0.17715150  0.09564807  0.84438668  1.0
  C  C75  1  0.69311066  0.84149731  0.68143093  1.0
  C  C76  1  0.32284612  0.59566061  0.34438955  1.0
  C  C77  1  0.20374832  0.61642786  0.24187394  1.0
  C  C78  1  0.31421516  0.63654796  0.72025377  1.0
  C  C79  1  0.26081626  0.02284973  0.87428671  1.0
  C  C80  1  0.77015590  0.72523244  0.40549593  1.0
  C  C81  1  0.19312420  0.65852990  0.18142593  1.0
  C  C82  1  0.08450658  0.19743887  0.24603369  1.0
  C  C83  1  0.72983612  0.22523054  0.09450430  1.0
  C  C84  1  0.30689413  0.15850958  0.31856957  1.0
  C  C85  1  0.79623630  0.38360523  0.24186159  1.0
  C  C86  1  0.79623298  0.38355028  0.75812276  1.0
  C  C87  1  0.68577949  0.36343094  0.72024378  1.0
  C  C88  1  0.18580499  0.13654246  0.77974603  1.0
  C  C89  1  0.90494164  0.76054529  0.69337319  1.0
  C  C90  1  0.23919553  0.52284460  0.62571734  1.0
  C  C91  1  0.27014873  0.77478133  0.09451116  1.0
  C  C92  1  0.58446746  0.30253772  0.74601355  1.0
  C  C93  1  0.73915485  0.97712542  0.87430339  1.0
  C  C94  1  0.82282865  0.90433606  0.84439930  1.0
  C  C95  1  0.53612306  0.44583321  0.49999599  1.0
  C  C96  1  0.09505826  0.23945228  0.30663536  1.0
  C  C97  1  0.08450178  0.12070595  0.10945482  1.0
  C  C98  1  0.58451503  0.37931765  0.39054086  1.0
  C  C99  1  0.79253778  0.77806651  0.34318701  1.0
  C  C100  1  0.23919532  0.52284794  0.37428794  1.0
  C  C101  1  0.26081569  0.02285349  0.12570707  1.0
  C  C102  1  0.03610803  0.05417999  0.00000003  1.0
  C  C103  1  0.22988567  0.27476568  0.40548813  1.0
  C  C104  1  0.73919343  0.97716493  0.12572185  1.0
  C  C105  1  0.41549661  0.62070012  0.60945631  1.0
  C  C106  1  0.20749244  0.22193794  0.34317978  1.0
  C  C107  1  0.67714692  0.40434084  0.65560572  1.0
  C  C108  1  0.91548833  0.87929084  0.89055089  1.0
  C  C109  1  0.31420083  0.63655963  0.27974865  1.0
  C  C110  1  0.76081709  0.47717239  0.37428030  1.0
  C  C111  1  0.70742708  0.27801679  0.84316628  1.0
  C  C112  1  0.58448870  0.30257774  0.25396958  1.0
  C  C113  1  0.91550946  0.80256851  0.24603587  1.0
  C  C114  1  0.67715477  0.40437180  0.34438216  1.0
  C  C115  1  0.29255891  0.72195026  0.84318157  1.0
  C  C116  1  0.91549225  0.87930259  0.10946080  1.0
  C  C117  1  0.76081730  0.47714185  0.62571018  1.0
  C  C118  1  0.40496410  0.73946319  0.19336962  1.0
  C  C119  1  0.96388599  0.94582379  0.00000379  1.0
  C  C120  1  0.29625456  0.11639094  0.74186943  1.0
  C  C121  1  0.70372987  0.88359776  0.74187894  1.0
  C  C122  1  0.08451196  0.19744537  0.75396794  1.0
  C  C123  1  0.79251430  0.77806584  0.65682546  1.0
  C  C124  1  0.58450897  0.37929434  0.60944655  1.0
  C  C125  1  0.40497863  0.73946661  0.80662432  1.0
  C  C126  1  0.18580679  0.13654721  0.22025016  1.0
  C  C127  1  0.82285036  0.90435804  0.15561904  1.0
  C  C128  1  0.59499959  0.26051573  0.80661475  1.0
  C  C129  1  0.59503007  0.26055427  0.19337048  1.0
  C  C130  1  0.20749050  0.22192717  0.65681681  1.0
  C  C131  1  0.46389054  0.55418456  0.49999929  1.0
  C  C132  1  0.80686282  0.34149472  0.18141520  1.0
  C  C133  1  0.80684633  0.34143347  0.81856603  1.0
  C  C134  1  0.41548799  0.62071411  0.39054589  1.0
  C  C135  1  0.22987532  0.27475502  0.59450836  1.0
  C  C136  1  0.68579159  0.36347059  0.27974198  1.0
  C  C137  1  0.41551413  0.69744858  0.74602332  1.0
  C  C138  1  0.91547962  0.80255170  0.75397724  1.0
  C  C139  1  0.19315274  0.65851761  0.81858292  1.0
  N  N140  1  0.22180601  0.00391342  0.06630135  1.0
  N  N141  1  0.77819672  0.99610196  0.06631370  1.0
  N  N142  1  0.27820196  0.50390719  0.43369461  1.0
  N  N143  1  0.11481871  0.06506249  0.94330931  1.0
  N  N144  1  0.88517532  0.93494207  0.05669450  1.0
  N  N145  1  0.38517838  0.56506438  0.55669000  1.0
  N  N146  1  0.11482424  0.06507111  0.05668631  1.0
  N  N147  1  0.61483620  0.43495261  0.44330717  1.0
  N  N148  1  0.22180611  0.00391193  0.93369390  1.0
  N  N149  1  0.88516588  0.93492723  0.94331892  1.0
  N  N150  1  0.72181682  0.49610764  0.43368940  1.0
  N  N151  1  0.27820069  0.50390625  0.56630873  1.0
  N  N152  1  0.61483664  0.43493471  0.55668231  1.0
  N  N153  1  0.38517304  0.56507373  0.44331249  1.0
  N  N154  1  0.77817040  0.99607171  0.93370721  1.0
  N  N155  1  0.72181751  0.49608805  0.56630304  1.0
  O  O156  1  0.15735692  0.77460809  0.92904188  1.0
  O  O157  1  0.63119980  0.17636128  0.06933938  1.0
  O  O158  1  0.84262535  0.22537096  0.92902406  1.0
  O  O159  1  0.36880597  0.82365105  0.93066016  1.0
  O  O160  1  0.84264885  0.22540347  0.07095150  1.0
  O  O161  1  0.15733345  0.77460329  0.07096410  1.0
  O  O162  1  0.63117536  0.17632797  0.93065203  1.0
  O  O163  1  0.86876786  0.67636925  0.56934966  1.0
  O  O164  1  0.86879353  0.67637178  0.43066559  1.0
  O  O165  1  0.34269198  0.27457744  0.57095888  1.0
  O  O166  1  0.13124965  0.32362754  0.43066174  1.0
  O  O167  1  0.34270390  0.27459322  0.42903330  1.0
  O  O168  1  0.65731459  0.72541057  0.57096862  1.0
  O  O169  1  0.65733728  0.72540225  0.42904351  1.0
  O  O170  1  0.36878344  0.82364783  0.06934088  1.0
  O  O171  1  0.13124062  0.32362578  0.56934249  1.0
