# generated using pymatgen
data_GaH5C8O5
_symmetry_space_group_name_H-M   'P 1'
_cell_length_a   6.84603607
_cell_length_b   11.01077557
_cell_length_c   11.23491597
_cell_angle_alpha   119.34182389
_cell_angle_beta   107.72967392
_cell_angle_gamma   90.00075149
_symmetry_Int_Tables_number   1
_chemical_formula_structural   GaH5C8O5
_chemical_formula_sum   'Ga2 H10 C16 O10'
_cell_volume   691.72872689
_cell_formula_units_Z   2
loop_
 _symmetry_equiv_pos_site_id
 _symmetry_equiv_pos_as_xyz
  1  'x, y, z'
loop_
 _atom_site_type_symbol
 _atom_site_label
 _atom_site_symmetry_multiplicity
 _atom_site_fract_x
 _atom_site_fract_y
 _atom_site_fract_z
 _atom_site_occupancy
  Ga  Ga0  1  0.99999962  0.50000081  0.00000109  1.0
  Ga  Ga1  1  0.49999990  0.50000036  0.00000089  1.0
  H  H2  1  0.12425962  0.88932561  0.37527722  1.0
  H  H3  1  0.37573942  0.51404446  0.62471927  1.0
  H  H4  1  0.24911751  0.11073362  0.62481915  1.0
  H  H5  1  0.25087921  0.48591089  0.37517597  1.0
  H  H6  1  0.87573960  0.11067361  0.62472251  1.0
  H  H7  1  0.62426189  0.48595689  0.37528099  1.0
  H  H8  1  0.75088170  0.88926561  0.37518059  1.0
  H  H9  1  0.74912085  0.51409152  0.62482457  1.0
  H  H10  1  0.24999823  0.33140018  0.99999952  1.0
  H  H11  1  0.74999945  0.66859904  0.00000082  1.0
  C  C12  1  0.28814931  0.93924806  0.43117106  1.0
  C  C13  1  0.21184758  0.50807465  0.56882519  1.0
  C  C14  1  0.35702035  0.06077801  0.56889604  1.0
  C  C15  1  0.14297818  0.49187774  0.43109777  1.0
  C  C16  1  0.71184837  0.06075117  0.56882840  1.0
  C  C17  1  0.78815344  0.49192564  0.43117450  1.0
  C  C18  1  0.64298068  0.93922227  0.43110454  1.0
  C  C19  1  0.85702284  0.50812255  0.56890014  1.0
  C  C20  1  0.43081413  0.87803119  0.36157782  1.0
  C  C21  1  0.35769563  0.74496897  0.21524394  1.0
  C  C22  1  0.06918790  0.51645568  0.63842322  1.0
  C  C23  1  0.14230225  0.52972902  0.78476014  1.0
  C  C24  1  0.56918480  0.12196698  0.63842224  1.0
  C  C25  1  0.64230359  0.25503025  0.78475668  1.0
  C  C26  1  0.93081313  0.48354460  0.36157736  1.0
  C  C27  1  0.85769571  0.47027127  0.21523899  1.0
  O  O28  1  0.16340835  0.69383563  0.15947757  1.0
  O  O29  1  0.33659595  0.53436228  0.84052617  1.0
  O  O30  1  0.50378130  0.30608372  0.84056497  1.0
  O  O31  1  0.99621565  0.46551816  0.15943465  1.0
  O  O32  1  0.83659267  0.30616466  0.84052301  1.0
  O  O33  1  0.66340298  0.46563589  0.15947300  1.0
  O  O34  1  0.49621821  0.69391656  0.15943622  1.0
  O  O35  1  0.00378538  0.53448212  0.84056593  1.0
  O  O36  1  0.24999927  0.41942381  0.00000075  1.0
  O  O37  1  0.74999994  0.58057540  0.99999987  1.0
