# generated using pymatgen
data_Zn3H24C30(NO5)2
_symmetry_space_group_name_H-M   'P 1'
_cell_length_a   15.18234302
_cell_length_b   17.74988927
_cell_length_c   17.74988215
_cell_angle_alpha   90.00000896
_cell_angle_beta   89.99997074
_cell_angle_gamma   89.99997686
_symmetry_Int_Tables_number   1
_chemical_formula_structural   Zn3H24C30(NO5)2
_chemical_formula_sum   'Zn12 H96 C120 N8 O40'
_cell_volume   4783.32534869
_cell_formula_units_Z   4
loop_
 _symmetry_equiv_pos_site_id
 _symmetry_equiv_pos_as_xyz
  1  'x, y, z'
loop_
 _atom_site_type_symbol
 _atom_site_label
 _atom_site_symmetry_multiplicity
 _atom_site_fract_x
 _atom_site_fract_y
 _atom_site_fract_z
 _atom_site_occupancy
  Zn  Zn0  1  0.03044319  0.14571077  0.10091335  1.0
  Zn  Zn1  1  0.03044345  0.85428990  0.89908659  1.0
  Zn  Zn2  1  0.96955626  0.10091320  0.85428941  1.0
  Zn  Zn3  1  0.96955629  0.89908658  0.14571069  1.0
  Zn  Zn4  1  0.53044351  0.14571075  0.89908643  1.0
  Zn  Zn5  1  0.53044359  0.85428919  0.10091386  1.0
  Zn  Zn6  1  0.46955657  0.10091324  0.14571017  1.0
  Zn  Zn7  1  0.46955683  0.89908672  0.85428958  1.0
  Zn  Zn8  1  0.25000020  0.14892991  0.14892940  1.0
  Zn  Zn9  1  0.24999982  0.85107012  0.85107045  1.0
  Zn  Zn10  1  0.74999989  0.14892988  0.85107029  1.0
  Zn  Zn11  1  0.74999993  0.85106998  0.14892991  1.0
  H  H12  1  0.22728427  0.13693099  0.38518505  1.0
  H  H13  1  0.22728403  0.86306905  0.61481424  1.0
  H  H14  1  0.77271635  0.38518544  0.86306869  1.0
  H  H15  1  0.77271586  0.61481442  0.13693093  1.0
  H  H16  1  0.72728410  0.13693035  0.61481407  1.0
  H  H17  1  0.72728400  0.86306951  0.38518613  1.0
  H  H18  1  0.27271601  0.38518547  0.13693102  1.0
  H  H19  1  0.27271640  0.61481456  0.86306882  1.0
  H  H20  1  0.19018258  0.12107795  0.52104681  1.0
  H  H21  1  0.19018242  0.87892267  0.47895307  1.0
  H  H22  1  0.80981731  0.52104656  0.87892232  1.0
  H  H23  1  0.80981754  0.47895328  0.12107785  1.0
  H  H24  1  0.69018250  0.12107729  0.47895290  1.0
  H  H25  1  0.69018230  0.87892259  0.52104676  1.0
  H  H26  1  0.30981697  0.52104659  0.12107796  1.0
  H  H27  1  0.30981676  0.47895286  0.87892186  1.0
  H  H28  1  0.91537700  0.10211263  0.46236513  1.0
  H  H29  1  0.91537744  0.89788774  0.53763499  1.0
  H  H30  1  0.08462358  0.46236576  0.89788711  1.0
  H  H31  1  0.08462314  0.53763490  0.10211281  1.0
  H  H32  1  0.41537707  0.10211272  0.53763447  1.0
  H  H33  1  0.41537691  0.89788726  0.46236530  1.0
  H  H34  1  0.58462306  0.46236504  0.10211326  1.0
  H  H35  1  0.58462347  0.53763487  0.89788757  1.0
  H  H36  1  0.95404102  0.12071723  0.32694676  1.0
  H  H37  1  0.95404140  0.87928256  0.67305334  1.0
  H  H38  1  0.04595897  0.32694745  0.87928304  1.0
  H  H39  1  0.04595846  0.67305321  0.12071690  1.0
  H  H40  1  0.45404168  0.12071678  0.67305283  1.0
  H  H41  1  0.45404094  0.87928262  0.32694637  1.0
  H  H42  1  0.54595910  0.32694674  0.12071733  1.0
  H  H43  1  0.54595879  0.67305319  0.87928295  1.0
  H  H44  1  0.90268852  0.16410965  0.57434898  1.0
  H  H45  1  0.90268907  0.83589016  0.42565115  1.0
  H  H46  1  0.09731134  0.57434955  0.83589008  1.0
  H  H47  1  0.09731092  0.42565054  0.16410983  1.0
  H  H48  1  0.40268933  0.16410972  0.42565064  1.0
  H  H49  1  0.40268912  0.83589026  0.57434914  1.0
  H  H50  1  0.59731078  0.57434941  0.16410974  1.0
  H  H51  1  0.59731128  0.42565107  0.83589052  1.0
  H  H52  1  0.87226762  0.15520989  0.71202145  1.0
  H  H53  1  0.87226758  0.84479049  0.28797869  1.0
  H  H54  1  0.12773217  0.71202195  0.84479099  1.0
  H  H55  1  0.12773182  0.28797812  0.15521004  1.0
  H  H56  1  0.37226785  0.15520938  0.28797874  1.0
  H  H57  1  0.37226822  0.84479061  0.71202161  1.0
  H  H58  1  0.62773162  0.71202125  0.15520996  1.0
  H  H59  1  0.62773217  0.28797866  0.84479028  1.0
  H  H60  1  0.10755365  0.04486849  0.75168835  1.0
  H  H61  1  0.10755359  0.95513159  0.24831156  1.0
  H  H62  1  0.89244611  0.75168855  0.95513184  1.0
  H  H63  1  0.89244584  0.24831182  0.04486829  1.0
  H  H64  1  0.60755370  0.04486836  0.24831194  1.0
  H  H65  1  0.60755400  0.95513155  0.75168831  1.0
  H  H66  1  0.39244582  0.75168801  0.04486844  1.0
  H  H67  1  0.39244567  0.24831198  0.95513191  1.0
  H  H68  1  0.14616433  0.04411016  0.61506997  1.0
  H  H69  1  0.14616485  0.95589047  0.38492992  1.0
  H  H70  1  0.85383550  0.61507024  0.95588959  1.0
  H  H71  1  0.85383583  0.38493014  0.04411000  1.0
  H  H72  1  0.64616496  0.04411005  0.38492974  1.0
  H  H73  1  0.64616468  0.95589041  0.61506993  1.0
  H  H74  1  0.35383587  0.61506969  0.04411012  1.0
  H  H75  1  0.35383500  0.38493030  0.95588968  1.0
  H  H76  1  0.22840580  0.09888291  0.98194563  1.0
  H  H77  1  0.22840524  0.90111657  0.01805423  1.0
  H  H78  1  0.77159450  0.98194578  0.90111688  1.0
  H  H79  1  0.77159497  0.01805464  0.09888331  1.0
  H  H80  1  0.72840533  0.09888331  0.01805405  1.0
  H  H81  1  0.72840551  0.90111712  0.98194559  1.0
  H  H82  1  0.27159484  0.98194580  0.09888293  1.0
  H  H83  1  0.27159483  0.01805422  0.90111691  1.0
  H  H84  1  0.26988253  0.23386451  0.00877354  1.0
  H  H85  1  0.26988211  0.76613551  0.99122630  1.0
  H  H86  1  0.73011764  0.00877351  0.76613563  1.0
  H  H87  1  0.73011757  0.99122636  0.23386457  1.0
  H  H88  1  0.76988214  0.23386450  0.99122615  1.0
  H  H89  1  0.76988230  0.76613535  0.00877347  1.0
  H  H90  1  0.23011790  0.00877355  0.23386404  1.0
  H  H91  1  0.23011751  0.99122649  0.76613582  1.0
  H  H92  1  0.16247457  0.26260563  0.98119185  1.0
  H  H93  1  0.16247474  0.73739443  0.01880803  1.0
  H  H94  1  0.83752509  0.98119195  0.73739465  1.0
  H  H95  1  0.83752480  0.01880844  0.26260607  1.0
  H  H96  1  0.66247475  0.26260547  0.01880789  1.0
  H  H97  1  0.66247501  0.73739442  0.98119234  1.0
  H  H98  1  0.33752533  0.98119200  0.26260569  1.0
  H  H99  1  0.33752541  0.01880800  0.73739468  1.0
  H  H100  1  0.23427511  0.21861773  0.91380998  1.0
  H  H101  1  0.23427522  0.78138231  0.08618988  1.0
  H  H102  1  0.76572392  0.91380957  0.78138256  1.0
  H  H103  1  0.76572428  0.08619028  0.21861763  1.0
  H  H104  1  0.73427592  0.21861758  0.08618972  1.0
  H  H105  1  0.73427554  0.78138172  0.91380991  1.0
  H  H106  1  0.26572419  0.91381018  0.21861780  1.0
  H  H107  1  0.26572487  0.08619041  0.78138260  1.0
  C  C108  1  0.09275366  0.13076139  0.34817639  1.0
  C  C109  1  0.09275472  0.86923813  0.65182353  1.0
  C  C110  1  0.90724566  0.34817673  0.86923884  1.0
  C  C111  1  0.90724581  0.65182364  0.13076185  1.0
  C  C112  1  0.59275413  0.13076133  0.65182336  1.0
  C  C113  1  0.59275405  0.86923859  0.34817690  1.0
  C  C114  1  0.40724598  0.34817620  0.13076137  1.0
  C  C115  1  0.40724635  0.65182378  0.86923841  1.0
  C  C116  1  0.15918872  0.12944250  0.40299983  1.0
  C  C117  1  0.15918914  0.87055756  0.59700005  1.0
  C  C118  1  0.84081124  0.40300018  0.87055718  1.0
  C  C119  1  0.84081075  0.59700021  0.12944298  1.0
  C  C120  1  0.65918922  0.12944243  0.59699989  1.0
  C  C121  1  0.65918844  0.87055746  0.40300035  1.0
  C  C122  1  0.34081090  0.40300021  0.12944251  1.0
  C  C123  1  0.34081063  0.59699979  0.87055674  1.0
  C  C124  1  0.13815637  0.11974104  0.47863358  1.0
  C  C125  1  0.13815749  0.88025959  0.52136632  1.0
  C  C126  1  0.86184288  0.47863389  0.88025865  1.0
  C  C127  1  0.86184310  0.52136593  0.11974093  1.0
  C  C128  1  0.63815757  0.11974040  0.52136615  1.0
  C  C129  1  0.63815741  0.88026007  0.47863409  1.0
  C  C130  1  0.36184321  0.47863392  0.11974104  1.0
  C  C131  1  0.36184297  0.52136608  0.88025933  1.0
  C  C132  1  0.04997696  0.11115227  0.50147375  1.0
  C  C133  1  0.04997743  0.88884839  0.49852619  1.0
  C  C134  1  0.95002294  0.50147346  0.88884742  1.0
  C  C135  1  0.95002317  0.49852633  0.11115212  1.0
  C  C136  1  0.54997686  0.11115219  0.49852658  1.0
  C  C137  1  0.54997733  0.88884831  0.50147426  1.0
  C  C138  1  0.45002327  0.50147348  0.11115223  1.0
  C  C139  1  0.45002304  0.49852705  0.88884753  1.0
  C  C140  1  0.98386840  0.11102760  0.44591994  1.0
  C  C141  1  0.98386819  0.88897218  0.55408015  1.0
  C  C142  1  0.01613153  0.44591947  0.88897213  1.0
  C  C143  1  0.01613173  0.55408065  0.11102782  1.0
  C  C144  1  0.48386913  0.11102713  0.55408020  1.0
  C  C145  1  0.48386832  0.88897226  0.44592011  1.0
  C  C146  1  0.51613100  0.44591988  0.11102770  1.0
  C  C147  1  0.51613140  0.55408062  0.88897203  1.0
  C  C148  1  0.00492532  0.12081261  0.37025880  1.0
  C  C149  1  0.00492572  0.87918807  0.62974115  1.0
  C  C150  1  0.99507465  0.37025911  0.87918706  1.0
  C  C151  1  0.99507482  0.62974123  0.12081303  1.0
  C  C152  1  0.50492514  0.12081255  0.62974098  1.0
  C  C153  1  0.50492570  0.87918796  0.37025932  1.0
  C  C154  1  0.49507432  0.37025857  0.12081312  1.0
  C  C155  1  0.49507469  0.62974138  0.87918719  1.0
  C  C156  1  0.02794872  0.10509253  0.58216556  1.0
  C  C157  1  0.02794924  0.89490758  0.41783439  1.0
  C  C158  1  0.97205114  0.58216522  0.89490718  1.0
  C  C159  1  0.97205076  0.41783456  0.10509348  1.0
  C  C160  1  0.52794866  0.10509243  0.41783422  1.0
  C  C161  1  0.52794909  0.89490751  0.58216551  1.0
  C  C162  1  0.47205082  0.58216525  0.10509303  1.0
  C  C163  1  0.47205062  0.41783471  0.89490728  1.0
  C  C164  1  0.94937104  0.13544749  0.61116950  1.0
  C  C165  1  0.94937093  0.86455287  0.38883061  1.0
  C  C166  1  0.05062881  0.61116951  0.86455169  1.0
  C  C167  1  0.05062908  0.38883116  0.13544768  1.0
  C  C168  1  0.44937120  0.13544756  0.38883066  1.0
  C  C169  1  0.44937096  0.86455241  0.61116966  1.0
  C  C170  1  0.55062892  0.61116936  0.13544759  1.0
  C  C171  1  0.55062876  0.38883113  0.86455269  1.0
  C  C172  1  0.93251525  0.13177987  0.68800099  1.0
  C  C173  1  0.93251519  0.86821993  0.31199856  1.0
  C  C174  1  0.06748521  0.68800153  0.86821989  1.0
  C  C175  1  0.06748552  0.31199856  0.13178060  1.0
  C  C176  1  0.43251480  0.13177993  0.31199861  1.0
  C  C177  1  0.43251518  0.86822004  0.68800172  1.0
  C  C178  1  0.56748467  0.68800139  0.13177996  1.0
  C  C179  1  0.56748520  0.31199854  0.86821975  1.0
  C  C180  1  0.06402349  0.06986133  0.70984245  1.0
  C  C181  1  0.06402407  0.93013877  0.29015748  1.0
  C  C182  1  0.93597630  0.70984265  0.93013842  1.0
  C  C183  1  0.93597600  0.29015715  0.06986113  1.0
  C  C184  1  0.56402351  0.06986177  0.29015674  1.0
  C  C185  1  0.56402384  0.93013872  0.70984297  1.0
  C  C186  1  0.43597600  0.70984210  0.06986183  1.0
  C  C187  1  0.43597650  0.29015730  0.93013850  1.0
  C  C188  1  0.08547079  0.07093287  0.63382786  1.0
  C  C189  1  0.08547067  0.92906722  0.36617206  1.0
  C  C190  1  0.91452903  0.63382866  0.92906630  1.0
  C  C191  1  0.91452935  0.36617227  0.07093269  1.0
  C  C192  1  0.58547077  0.07093276  0.36617189  1.0
  C  C193  1  0.58547115  0.92906715  0.63382782  1.0
  C  C194  1  0.41452939  0.63382755  0.07093282  1.0
  C  C195  1  0.41452920  0.36617186  0.92906695  1.0
  C  C196  1  0.11532596  0.14176314  0.26645866  1.0
  C  C197  1  0.11532631  0.85823638  0.73354069  1.0
  C  C198  1  0.88467407  0.26645904  0.85823651  1.0
  C  C199  1  0.88467417  0.73354077  0.14176306  1.0
  C  C200  1  0.61532638  0.14176309  0.73354109  1.0
  C  C201  1  0.61532635  0.85823625  0.26645917  1.0
  C  C202  1  0.38467372  0.26645851  0.14176313  1.0
  C  C203  1  0.38467406  0.73354091  0.85823666  1.0
  C  C204  1  0.17833051  0.14170572  0.99643194  1.0
  C  C205  1  0.17833064  0.85829434  0.00356794  1.0
  C  C206  1  0.82166979  0.99643206  0.85829461  1.0
  C  C207  1  0.82166958  0.00356778  0.14170611  1.0
  C  C208  1  0.67833071  0.14170612  0.00356834  1.0
  C  C209  1  0.67833090  0.85829377  0.99643245  1.0
  C  C210  1  0.32166944  0.99643152  0.14170574  1.0
  C  C211  1  0.32167012  0.00356792  0.85829464  1.0
  C  C212  1  0.09578925  0.12490394  0.95043560  1.0
  C  C213  1  0.09578934  0.87509615  0.04956432  1.0
  C  C214  1  0.90421041  0.95043570  0.87509583  1.0
  C  C215  1  0.90421019  0.04956411  0.12490430  1.0
  C  C216  1  0.59578942  0.12490378  0.04956415  1.0
  C  C217  1  0.59578963  0.87509557  0.95043554  1.0
  C  C218  1  0.40421073  0.95043573  0.12490448  1.0
  C  C219  1  0.40421072  0.04956425  0.87509587  1.0
  C  C220  1  0.21346473  0.21934676  0.97300305  1.0
  C  C221  1  0.21346488  0.78065329  0.02699681  1.0
  C  C222  1  0.78653492  0.97300318  0.78065354  1.0
  C  C223  1  0.78653531  0.02699667  0.21934720  1.0
  C  C224  1  0.71346492  0.21934716  0.02699666  1.0
  C  C225  1  0.71346516  0.78065271  0.97300355  1.0
  C  C226  1  0.28653519  0.97300322  0.21934682  1.0
  C  C227  1  0.28653524  0.02699680  0.78065357  1.0
  N  N228  1  0.98924891  0.10007544  0.73677088  1.0
  N  N229  1  0.98924886  0.89992434  0.26322864  1.0
  N  N230  1  0.01075086  0.73677143  0.89992434  1.0
  N  N231  1  0.01075121  0.26322869  0.10007561  1.0
  N  N232  1  0.48924915  0.10007549  0.26322869  1.0
  N  N233  1  0.48924948  0.89992446  0.73677162  1.0
  N  N234  1  0.51075100  0.73677128  0.10007554  1.0
  N  N235  1  0.51075087  0.26322810  0.89992419  1.0
  O  O236  1  0.05272167  0.14514176  0.21992935  1.0
  O  O237  1  0.05272199  0.85485778  0.78007002  1.0
  O  O238  1  0.94727772  0.21992973  0.85485788  1.0
  O  O239  1  0.94727780  0.78007007  0.14514223  1.0
  O  O240  1  0.55272206  0.14514228  0.78006986  1.0
  O  O241  1  0.55272206  0.85485765  0.21992986  1.0
  O  O242  1  0.44727803  0.21992976  0.14514173  1.0
  O  O243  1  0.44727769  0.78007021  0.85485803  1.0
  O  O244  1  0.19799700  0.14646569  0.25161516  1.0
  O  O245  1  0.19799734  0.85353380  0.74838415  1.0
  O  O246  1  0.80200304  0.25161558  0.85353396  1.0
  O  O247  1  0.80200313  0.74838426  0.14646621  1.0
  O  O248  1  0.69799741  0.14646564  0.74838398  1.0
  O  O249  1  0.69799673  0.85353424  0.25161623  1.0
  O  O250  1  0.30200269  0.25161561  0.14646571  1.0
  O  O251  1  0.30200368  0.74838440  0.85353411  1.0
  O  O252  1  0.15840567  0.13831577  0.07434075  1.0
  O  O253  1  0.15840590  0.86168429  0.92565970  1.0
  O  O254  1  0.84159512  0.07434067  0.86168442  1.0
  O  O255  1  0.84159448  0.92565916  0.13831574  1.0
  O  O256  1  0.65840531  0.13831575  0.92565953  1.0
  O  O257  1  0.65840540  0.86168414  0.07434070  1.0
  O  O258  1  0.34159478  0.07434070  0.13831578  1.0
  O  O259  1  0.34159436  0.92565987  0.86168459  1.0
  O  O260  1  0.02096745  0.12526621  0.98318963  1.0
  O  O261  1  0.02096757  0.87473391  0.01681032  1.0
  O  O262  1  0.97903219  0.98318969  0.87473412  1.0
  O  O263  1  0.97903264  0.01681065  0.12526597  1.0
  O  O264  1  0.52096764  0.12526604  0.01681015  1.0
  O  O265  1  0.52096784  0.87473389  0.98318958  1.0
  O  O266  1  0.47903251  0.98318916  0.12526559  1.0
  O  O267  1  0.47903252  0.01681023  0.87473416  1.0
  O  O268  1  0.10293310  0.11379006  0.87991118  1.0
  O  O269  1  0.10293380  0.88620946  0.12008929  1.0
  O  O270  1  0.89706726  0.87991132  0.88620970  1.0
  O  O271  1  0.89706701  0.12008905  0.11379043  1.0
  O  O272  1  0.60293323  0.11379047  0.12008913  1.0
  O  O273  1  0.60293347  0.88620944  0.87991113  1.0
  O  O274  1  0.39706693  0.87991078  0.11379060  1.0
  O  O275  1  0.39706688  0.12008864  0.88620975  1.0
