# generated using pymatgen
data_Al2H16C26S2O11
_symmetry_space_group_name_H-M   'P 1'
_cell_length_a   6.61067542
_cell_length_b   12.46719793
_cell_length_c   17.69203727
_cell_angle_alpha   93.97088150
_cell_angle_beta   100.66590867
_cell_angle_gamma   101.49674857
_symmetry_Int_Tables_number   1
_chemical_formula_structural   Al2H16C26S2O11
_chemical_formula_sum   'Al2 H16 C26 S2 O11'
_cell_volume   1395.62087298
_cell_formula_units_Z   1
loop_
 _symmetry_equiv_pos_site_id
 _symmetry_equiv_pos_as_xyz
  1  'x, y, z'
loop_
 _atom_site_type_symbol
 _atom_site_label
 _atom_site_symmetry_multiplicity
 _atom_site_fract_x
 _atom_site_fract_y
 _atom_site_fract_z
 _atom_site_occupancy
  Al  Al0  1  0.00967737  0.51086256  0.50207923  1.0
  Al  Al1  1  0.50605892  0.50559403  0.50013481  1.0
  H  H2  1  0.33165221  0.55631018  0.59939479  1.0
  H  H3  1  0.69231828  0.38219261  0.44513696  1.0
  H  H4  1  0.81983162  0.46009396  0.27528682  1.0
  H  H5  1  0.72628287  0.43487413  0.13083638  1.0
  H  H6  1  0.36669499  0.59059051  0.12529087  1.0
  H  H7  1  0.60947855  0.37623025  0.86629724  1.0
  H  H8  1  0.17695332  0.55430474  0.73923570  1.0
  H  H9  1  0.24558051  0.55871075  0.88284322  1.0
  H  H10  1  0.22967568  0.84840309  0.53746374  1.0
  H  H11  1  0.60689656  0.57819235  0.31310333  1.0
  H  H12  1  0.52150725  0.70259485  0.31949981  1.0
  H  H13  1  0.61552294  0.66292213  0.23603524  1.0
  H  H14  1  0.35806453  0.40258348  0.71183262  1.0
  H  H15  1  0.42467049  0.27848771  0.73952071  1.0
  H  H16  1  0.48038424  0.32831198  0.65189276  1.0
  H  H17  1  0.59760868  0.12315012  0.45614457  1.0
  C  C18  1  0.82956700  0.70455122  0.51167674  1.0
  C  C19  1  0.82210536  0.48115474  0.63823689  1.0
  C  C20  1  0.17488451  0.30926380  0.48606498  1.0
  C  C21  1  0.18911184  0.53349130  0.36647835  1.0
  C  C22  1  0.14510337  0.53450573  0.28085815  1.0
  C  C23  1  0.93838120  0.48753856  0.24133303  1.0
  C  C24  1  0.88614665  0.47352263  0.16110123  1.0
  C  C25  1  0.04281168  0.50884280  0.11850258  1.0
  C  C26  1  0.24807443  0.56062983  0.15878543  1.0
  C  C27  1  0.30355975  0.57395791  0.23945986  1.0
  C  C28  1  0.99742750  0.49296097  0.03666984  1.0
  C  C29  1  0.96277340  0.47944852  0.96604956  1.0
  C  C30  1  0.92863419  0.47085840  0.88434151  1.0
  C  C31  1  0.73262339  0.41690215  0.83800977  1.0
  C  C32  1  0.69064440  0.41454618  0.75741369  1.0
  C  C33  1  0.85345646  0.46774965  0.72242441  1.0
  C  C34  1  0.05316863  0.51600423  0.76797270  1.0
  C  C35  1  0.09189882  0.51877443  0.84780291  1.0
  C  C36  1  0.89841862  0.12951482  0.47478692  1.0
  C  C37  1  0.09395832  0.88505514  0.52113649  1.0
  C  C38  1  0.10540309  0.19124391  0.48828852  1.0
  C  C39  1  0.88958807  0.82372417  0.50753235  1.0
  C  C40  1  0.09678378  0.99607647  0.50986530  1.0
  C  C41  1  0.89454376  0.01752117  0.48720549  1.0
  C  C42  1  0.52392175  0.63222267  0.27882746  1.0
  C  C43  1  0.47808659  0.35272330  0.71229933  1.0
  S  S44  1  0.29219129  0.11310612  0.51740735  1.0
  S  S45  1  0.69969145  0.90017074  0.48037706  1.0
  O  O46  1  0.98196111  0.65635835  0.52873390  1.0
  O  O47  1  0.64744245  0.50302147  0.60624434  1.0
  O  O48  1  0.37378365  0.34963153  0.49851220  1.0
  O  O49  1  0.04751994  0.55198368  0.40256551  1.0
  O  O50  1  0.03064161  0.36366411  0.47223984  1.0
  O  O51  1  0.36081996  0.50812536  0.39738113  1.0
  O  O52  1  0.63436239  0.65935021  0.49825326  1.0
  O  O53  1  0.97565137  0.47462269  0.60499175  1.0
  O  O54  1  0.29720272  0.55077134  0.54333868  1.0
  O  O55  1  0.72185068  0.46048559  0.46246436  1.0
  O  O56  1  0.72881605  0.17324519  0.45190007  1.0
