# generated using pymatgen
data_Zn4H20C44Br8O13
_symmetry_space_group_name_H-M   'P 1'
_cell_length_a   23.72244496
_cell_length_b   23.71887871
_cell_length_c   23.72219045
_cell_angle_alpha   113.90607707
_cell_angle_beta   107.32369186
_cell_angle_gamma   107.28363796
_symmetry_Int_Tables_number   1
_chemical_formula_structural   Zn4H20C44Br8O13
_chemical_formula_sum   'Zn8 H40 C88 Br16 O26'
_cell_volume   10227.76348730
_cell_formula_units_Z   2
loop_
 _symmetry_equiv_pos_site_id
 _symmetry_equiv_pos_as_xyz
  1  'x, y, z'
loop_
 _atom_site_type_symbol
 _atom_site_label
 _atom_site_symmetry_multiplicity
 _atom_site_fract_x
 _atom_site_fract_y
 _atom_site_fract_z
 _atom_site_occupancy
  Zn  Zn0  1  0.94041085  0.89949429  0.45232522  1.0
  Zn  Zn1  1  0.94038465  0.04087535  0.48803269  1.0
  Zn  Zn2  1  0.05964128  0.04765362  0.60050302  1.0
  Zn  Zn3  1  0.05960021  0.01191360  0.45912675  1.0
  Zn  Zn4  1  0.05283432  0.60047094  0.04090188  1.0
  Zn  Zn5  1  0.94717363  0.45910814  0.89950118  1.0
  Zn  Zn6  1  0.05284137  0.45230651  0.01196108  1.0
  Zn  Zn7  1  0.94718202  0.48804982  0.04765085  1.0
  H  H8  1  0.07782305  0.73019702  0.96315504  1.0
  H  H9  1  0.92221516  0.53690671  0.76975496  1.0
  H  H10  1  0.07489841  0.96792072  0.72703936  1.0
  H  H11  1  0.92505696  0.77302425  0.53210014  1.0
  H  H12  1  0.92223665  0.38538455  0.15244370  1.0
  H  H13  1  0.07776641  0.34747252  0.11468296  1.0
  H  H14  1  0.92509494  0.15210507  0.39301400  1.0
  H  H15  1  0.07489935  0.10696870  0.34793962  1.0
  H  H16  1  0.25906824  0.72697971  0.15204528  1.0
  H  H17  1  0.25911747  0.53208431  0.10703448  1.0
  H  H18  1  0.73283932  0.96310991  0.38535851  1.0
  H  H19  1  0.73295084  0.76978415  0.34758597  1.0
  H  H20  1  0.74090296  0.34800093  0.77297922  1.0
  H  H21  1  0.74095462  0.39302346  0.96788224  1.0
  H  H22  1  0.26709157  0.11457678  0.53686876  1.0
  H  H23  1  0.26717304  0.15257070  0.73029267  1.0
  H  H24  1  0.13309507  0.92204452  0.33885914  1.0
  H  H25  1  0.05826026  0.92731842  0.31131521  1.0
  H  H26  1  0.08650782  0.89446592  0.25013042  1.0
  H  H27  1  0.91666538  0.57786410  0.21085454  1.0
  H  H28  1  0.88395006  0.57269013  0.13078807  1.0
  H  H29  1  0.85555712  0.60550207  0.19183804  1.0
  H  H30  1  0.08331865  0.79422912  0.16123798  1.0
  H  H31  1  0.11604436  0.74686733  0.18875852  1.0
  H  H32  1  0.14443789  0.83632263  0.24997431  1.0
  H  H33  1  0.86690059  0.70575428  0.28891419  1.0
  H  H34  1  0.94173393  0.75301828  0.36902106  1.0
  H  H35  1  0.91345589  0.66357040  0.30789384  1.0
  H  H36  1  0.13299323  0.21082448  0.79424556  1.0
  H  H37  1  0.05810940  0.13077408  0.74686845  1.0
  H  H38  1  0.08636840  0.19182681  0.83633260  1.0
  H  H39  1  0.91679884  0.33887066  0.70572934  1.0
  H  H40  1  0.88400163  0.31133058  0.75300617  1.0
  H  H41  1  0.85565961  0.25015623  0.66355954  1.0
  H  H42  1  0.08319503  0.28890929  0.92206675  1.0
  H  H43  1  0.11601971  0.36900007  0.92734137  1.0
  H  H44  1  0.14433975  0.30787154  0.89450958  1.0
  H  H45  1  0.86699103  0.16124088  0.57786167  1.0
  H  H46  1  0.94185908  0.18873622  0.57267897  1.0
  H  H47  1  0.91362040  0.24996371  0.60548325  1.0
  C  C48  1  0.81538689  0.90768977  0.40768298  1.0
  C  C49  1  0.00001293  0.13806449  0.63807831  1.0
  C  C50  1  0.00001843  0.91175777  0.58826007  1.0
  C  C51  1  0.18463793  0.09230343  0.59233098  1.0
  C  C52  1  0.00000361  0.86188763  0.36189823  1.0
  C  C53  1  0.99999817  0.08823305  0.41177745  1.0
  C  C54  1  0.99999117  0.59230621  0.90769037  1.0
  C  C55  1  0.00000290  0.36189835  0.86190820  1.0
  C  C56  1  0.17648811  0.58824184  0.08827506  1.0
  C  C57  1  0.00002002  0.40768714  0.09232673  1.0
  C  C58  1  0.00001068  0.63806960  0.13808470  1.0
  C  C59  1  0.82353127  0.41177766  0.91173262  1.0
  C  C60  1  0.00000468  0.80403811  0.30403713  1.0
  C  C61  1  0.00000205  0.69592588  0.19593651  1.0
  C  C62  1  0.04201051  0.82100281  0.27532159  1.0
  C  C63  1  0.95426641  0.67896846  0.22092064  1.0
  C  C64  1  0.04573221  0.76667299  0.22472032  1.0
  C  C65  1  0.95798636  0.73329063  0.27896903  1.0
  C  C66  1  0.00000170  0.19592494  0.69593138  1.0
  C  C67  1  0.00001080  0.30403735  0.80404717  1.0
  C  C68  1  0.04196726  0.22091502  0.76668354  1.0
  C  C69  1  0.95431271  0.27532361  0.73328758  1.0
  C  C70  1  0.04569917  0.27896810  0.82101830  1.0
  C  C71  1  0.95803775  0.22471370  0.67896401  1.0
  C  C72  1  0.00000379  0.62987387  0.87013276  1.0
  C  C73  1  0.04389481  0.70196333  0.90715602  1.0
  C  C74  1  0.04350148  0.73666972  0.87208682  1.0
  C  C75  1  0.00005414  0.70126004  0.79883015  1.0
  C  C76  1  0.95660676  0.62800921  0.76336602  1.0
  C  C77  1  0.95615256  0.59289940  0.79803000  1.0
  C  C78  1  0.00003598  0.73668150  0.76341969  1.0
  C  C79  1  0.99998157  0.76741628  0.73264868  1.0
  C  C80  1  0.99995819  0.80282932  0.69723160  1.0
  C  C81  1  0.04228072  0.87636793  0.73297348  1.0
  C  C82  1  0.04224040  0.91157694  0.69841774  1.0
  C  C83  1  0.99998680  0.87416751  0.62587545  1.0
  C  C84  1  0.95771059  0.80164223  0.58846384  1.0
  C  C85  1  0.95763509  0.76709339  0.62367950  1.0
  C  C86  1  0.00001895  0.37012330  0.12991046  1.0
  C  C87  1  0.95615223  0.36329453  0.15812543  1.0
  C  C88  1  0.95655218  0.32862826  0.19323333  1.0
  C  C89  1  0.99995827  0.29876558  0.20122131  1.0
  C  C90  1  0.04337389  0.30669017  0.17138750  1.0
  C  C91  1  0.04385097  0.34183415  0.13675458  1.0
  C  C92  1  0.99994937  0.26333915  0.23663601  1.0
  C  C93  1  0.99995643  0.23258724  0.26738678  1.0
  C  C94  1  0.99997485  0.19717119  0.30281803  1.0
  C  C95  1  0.95766899  0.19062117  0.33404286  1.0
  C  C96  1  0.95773161  0.15612929  0.36931848  1.0
  C  C97  1  0.99999600  0.12584880  0.37416843  1.0
  C  C98  1  0.04225421  0.13067311  0.34390385  1.0
  C  C99  1  0.04229407  0.16593796  0.30939827  1.0
  C  C100  1  0.25170326  0.62582736  0.12584630  1.0
  C  C101  1  0.28680626  0.69835913  0.15608423  1.0
  C  C102  1  0.35658078  0.73291290  0.19057074  1.0
  C  C103  1  0.39439284  0.69717409  0.19716549  1.0
  C  C104  1  0.35660792  0.62363834  0.16596346  1.0
  C  C105  1  0.28683700  0.58842680  0.13070850  1.0
  C  C106  1  0.46523160  0.73258693  0.23259622  1.0
  C  C107  1  0.52672770  0.76332452  0.26336594  1.0
  C  C108  1  0.59756604  0.79874789  0.29879991  1.0
  C  C109  1  0.63534471  0.87200743  0.32864173  1.0
  C  C110  1  0.70512472  0.90711509  0.36328410  1.0
  C  C111  1  0.74024588  0.87012314  0.37012634  1.0
  C  C112  1  0.70518789  0.79802810  0.34190832  1.0
  C  C113  1  0.63540870  0.76332267  0.30679906  1.0
  C  C114  1  0.74831841  0.37419978  0.87412635  1.0
  C  C115  1  0.71318437  0.34397010  0.80159073  1.0
  C  C116  1  0.64341620  0.30950682  0.76704455  1.0
  C  C117  1  0.60563725  0.30293486  0.80278972  1.0
  C  C118  1  0.64345209  0.33412727  0.87632950  1.0
  C  C119  1  0.71321832  0.36935804  0.91154564  1.0
  C  C120  1  0.53479322  0.26750692  0.76737330  1.0
  C  C121  1  0.47329198  0.23673187  0.73665828  1.0
  C  C122  1  0.40245614  0.20127970  0.70124389  1.0
  C  C123  1  0.36462036  0.17136110  0.62796483  1.0
  C  C124  1  0.29484789  0.13669307  0.59287592  1.0
  C  C125  1  0.25978122  0.12988645  0.62990371  1.0
  C  C126  1  0.29489944  0.15820305  0.70202347  1.0
  C  C127  1  0.36467208  0.19336735  0.73671877  1.0
  C  C128  1  0.08192088  0.89503259  0.29499012  1.0
  C  C129  1  0.89987127  0.60493655  0.18673333  1.0
  C  C130  1  0.10012790  0.78689226  0.20508766  1.0
  C  C131  1  0.91806044  0.71303336  0.31306830  1.0
  C  C132  1  0.08181798  0.18671246  0.78690803  1.0
  C  C133  1  0.89994816  0.29500932  0.71302346  1.0
  C  C134  1  0.10005605  0.31305384  0.89506100  1.0
  C  C135  1  0.91817502  0.20508324  0.60492154  1.0
  Br  Br136  1  0.89698889  0.57557663  0.66566669  1.0
  Br  Br137  1  0.10322910  0.83432196  0.92457005  1.0
  Br  Br138  1  0.89885797  0.66920572  0.57105206  1.0
  Br  Br139  1  0.10104648  0.92897977  0.83088387  1.0
  Br  Br140  1  0.10286402  0.26845269  0.17844836  1.0
  Br  Br141  1  0.89688620  0.32145638  0.23121950  1.0
  Br  Br142  1  0.10103566  0.17205053  0.27025300  1.0
  Br  Br143  1  0.89892522  0.22980191  0.32790936  1.0
  Br  Br144  1  0.40191036  0.57101741  0.17211437  1.0
  Br  Br145  1  0.40183000  0.83080046  0.22967210  1.0
  Br  Br146  1  0.59024362  0.66565443  0.26881734  1.0
  Br  Br147  1  0.59007043  0.92446238  0.32156527  1.0
  Br  Br148  1  0.59819399  0.32798654  0.92895640  1.0
  Br  Br149  1  0.59810933  0.27037401  0.66913543  1.0
  Br  Br150  1  0.40994371  0.23164998  0.83445201  1.0
  Br  Br151  1  0.40982038  0.17843254  0.57548265  1.0
  O  O152  1  0.00000448  0.99998355  0.50000332  1.0
  O  O153  1  0.84439530  0.87278062  0.41843450  1.0
  O  O154  1  0.94542037  0.09554965  0.57950065  1.0
  O  O155  1  0.03378056  0.97875481  0.62658867  1.0
  O  O156  1  0.84435791  0.97159516  0.42590780  1.0
  O  O157  1  0.96627694  0.87342642  0.52125978  1.0
  O  O158  1  0.05460308  0.13408688  0.65015648  1.0
  O  O159  1  0.15566951  0.08158093  0.62725938  1.0
  O  O160  1  0.05459227  0.92045056  0.40443878  1.0
  O  O161  1  0.15562447  0.07402910  0.52840883  1.0
  O  O162  1  0.94543627  0.84985279  0.36588839  1.0
  O  O163  1  0.96625456  0.09283937  0.44501488  1.0
  O  O164  1  0.03373986  0.05497649  0.40718895  1.0
  O  O165  1  0.00000589  0.49998425  0.00000069  1.0
  O  O166  1  0.04565069  0.62719944  0.97160915  1.0
  O  O167  1  0.98396762  0.40443097  0.84984591  1.0
  O  O168  1  0.14783201  0.52124503  0.05504248  1.0
  O  O169  1  0.95431922  0.52840291  0.87276783  1.0
  O  O170  1  0.14783107  0.62658449  0.09287160  1.0
  O  O171  1  0.01605166  0.36586967  0.92047410  1.0
  O  O172  1  0.04567795  0.41841816  0.07409308  1.0
  O  O173  1  0.98396595  0.57950381  0.13410286  1.0
  O  O174  1  0.95435924  0.42593901  0.08156513  1.0
  O  O175  1  0.01605390  0.65013825  0.09557387  1.0
  O  O176  1  0.85218346  0.40717787  0.87340795  1.0
  O  O177  1  0.85219257  0.44501926  0.97873486  1.0
