# generated using pymatgen
data_AlH15C22I2O5
_symmetry_space_group_name_H-M   'P 1'
_cell_length_a   6.66398594
_cell_length_b   25.40850589
_cell_length_c   28.94961119
_cell_angle_alpha   89.99993152
_cell_angle_beta   89.99891115
_cell_angle_gamma   89.63403426
_symmetry_Int_Tables_number   1
_chemical_formula_structural   AlH15C22I2O5
_chemical_formula_sum   'Al4 H60 C88 I8 O20'
_cell_volume   4901.70393216
_cell_formula_units_Z   4
loop_
 _symmetry_equiv_pos_site_id
 _symmetry_equiv_pos_as_xyz
  1  'x, y, z'
loop_
 _atom_site_type_symbol
 _atom_site_label
 _atom_site_symmetry_multiplicity
 _atom_site_fract_x
 _atom_site_fract_y
 _atom_site_fract_z
 _atom_site_occupancy
  Al  Al0  1  0.19904881  0.74970619  0.24999914  1.0
  Al  Al1  1  0.80096005  0.25028825  0.75000047  1.0
  Al  Al2  1  0.69870764  0.75101988  0.24999894  1.0
  Al  Al3  1  0.30130123  0.24897180  0.74999859  1.0
  H  H4  1  0.76348884  0.32668049  0.62635637  1.0
  H  H5  1  0.23651557  0.67330371  0.37363701  1.0
  H  H6  1  0.23651839  0.67331175  0.12635044  1.0
  H  H7  1  0.76347846  0.32668191  0.87364639  1.0
  H  H8  1  0.26775365  0.12018232  0.83224095  1.0
  H  H9  1  0.73226874  0.87980580  0.16775623  1.0
  H  H10  1  0.73215004  0.87985700  0.33221095  1.0
  H  H11  1  0.26768576  0.12023369  0.66773200  1.0
  H  H12  1  0.74495983  0.38852475  0.55964737  1.0
  H  H13  1  0.25506108  0.61145905  0.44034532  1.0
  H  H14  1  0.25502516  0.61147038  0.05963865  1.0
  H  H15  1  0.74493714  0.38853120  0.94035301  1.0
  H  H16  1  0.24775146  0.05348280  0.89508540  1.0
  H  H17  1  0.75227694  0.94650413  0.10490798  1.0
  H  H18  1  0.75212673  0.94655371  0.39505938  1.0
  H  H19  1  0.24763856  0.05353432  0.60488668  1.0
  H  H20  1  0.31916997  0.45098100  0.59868001  1.0
  H  H21  1  0.68083290  0.54900951  0.40132270  1.0
  H  H22  1  0.68082873  0.54901248  0.09868479  1.0
  H  H23  1  0.31914257  0.45098948  0.90131551  1.0
  H  H24  1  0.81628540  0.10697539  0.94687188  1.0
  H  H25  1  0.18370844  0.89302025  0.05313187  1.0
  H  H26  1  0.18376504  0.89298211  0.44689501  1.0
  H  H27  1  0.81642732  0.10692549  0.55316124  1.0
  H  H28  1  0.24732984  0.50446966  0.43647384  1.0
  H  H29  1  0.75268656  0.49551650  0.56352335  1.0
  H  H30  1  0.75264614  0.49552298  0.93647551  1.0
  H  H31  1  0.24729665  0.50447902  0.06351822  1.0
  H  H32  1  0.74805026  0.92837022  0.01151089  1.0
  H  H33  1  0.25193763  0.07161519  0.98848387  1.0
  H  H34  1  0.25190074  0.07161046  0.51152928  1.0
  H  H35  1  0.74801366  0.92836678  0.48848552  1.0
  H  H36  1  0.48116612  0.42710798  0.66448465  1.0
  H  H37  1  0.34598280  0.39567388  0.70972222  1.0
  H  H38  1  0.48871133  0.35740466  0.67100116  1.0
  H  H39  1  0.51879471  0.57288612  0.33552981  1.0
  H  H40  1  0.51127201  0.64258980  0.32901122  1.0
  H  H41  1  0.65395556  0.60431435  0.29028325  1.0
  H  H42  1  0.51886391  0.57287867  0.16449366  1.0
  H  H43  1  0.65403494  0.60432099  0.20972915  1.0
  H  H44  1  0.51129271  0.64258398  0.17100530  1.0
  H  H45  1  0.48113444  0.42711617  0.83550836  1.0
  H  H46  1  0.48871312  0.35741321  0.82900155  1.0
  H  H47  1  0.34597242  0.39567148  0.79027529  1.0
  H  H48  1  0.97418060  0.17930058  0.91833048  1.0
  H  H49  1  0.98970105  0.17652455  0.85695691  1.0
  H  H50  1  0.84051080  0.22514264  0.88305951  1.0
  H  H51  1  0.02578469  0.82070257  0.08168224  1.0
  H  H52  1  0.15948002  0.77485615  0.11694286  1.0
  H  H53  1  0.01032130  0.82347144  0.14305754  1.0
  H  H54  1  0.02603270  0.82060794  0.41837174  1.0
  H  H55  1  0.01032891  0.82341460  0.35700100  1.0
  H  H56  1  0.15973482  0.77481036  0.38306008  1.0
  H  H57  1  0.97457146  0.17917435  0.58173736  1.0
  H  H58  1  0.84088228  0.22508487  0.61693296  1.0
  H  H59  1  0.98975105  0.17646167  0.64311466  1.0
  H  H60  1  0.45228154  0.68043973  0.25001651  1.0
  H  H61  1  0.54772130  0.31955629  0.75002144  1.0
  H  H62  1  0.95123818  0.82011011  0.25005596  1.0
  H  H63  1  0.04876467  0.17988394  0.75007352  1.0
  C  C64  1  0.44632760  0.81282663  0.31349261  1.0
  C  C65  1  0.55368271  0.18717568  0.68650077  1.0
  C  C66  1  0.55366168  0.18717010  0.81349695  1.0
  C  C67  1  0.44634121  0.81281725  0.18650058  1.0
  C  C68  1  0.94906681  0.68579295  0.18788525  1.0
  C  C69  1  0.05096308  0.31419752  0.81211849  1.0
  C  C70  1  0.05096152  0.31419918  0.68788539  1.0
  C  C71  1  0.94903234  0.68579252  0.31211490  1.0
  C  C72  1  0.88564680  0.35390972  0.61958153  1.0
  C  C73  1  0.11436360  0.64607606  0.38041255  1.0
  C  C74  1  0.11436541  0.64608372  0.11957865  1.0
  C  C75  1  0.88563293  0.35391191  0.88041957  1.0
  C  C76  1  0.38815395  0.11651710  0.85749764  1.0
  C  C77  1  0.61185191  0.88347537  0.14250230  1.0
  C  C78  1  0.61176902  0.88350642  0.35747790  1.0
  C  C79  1  0.38813451  0.11654482  0.64249061  1.0
  C  C80  1  0.87553965  0.38833613  0.58236342  1.0
  C  C81  1  0.12447225  0.61164925  0.41763273  1.0
  C  C82  1  0.12445272  0.61165778  0.08235845  1.0
  C  C83  1  0.87551559  0.38834143  0.91763528  1.0
  C  C84  1  0.37731580  0.07931403  0.89250507  1.0
  C  C85  1  0.62269758  0.92067568  0.10749281  1.0
  C  C86  1  0.62260168  0.92070355  0.39249007  1.0
  C  C87  1  0.37726886  0.07934145  0.60748259  1.0
  C  C88  1  0.03439441  0.42299525  0.57407452  1.0
  C  C89  1  0.96562049  0.57699052  0.42592300  1.0
  C  C90  1  0.96559405  0.57699868  0.07407268  1.0
  C  C91  1  0.03436825  0.42300212  0.92592139  1.0
  C  C92  1  0.53465292  0.07489862  0.92442739  1.0
  C  C93  1  0.46534995  0.92509110  0.07557152  1.0
  C  C94  1  0.46529991  0.92509328  0.42442733  1.0
  C  C95  1  0.53465794  0.07489689  0.57557503  1.0
  C  C96  1  0.19902220  0.42268371  0.60419127  1.0
  C  C97  1  0.80098218  0.57730443  0.39581005  1.0
  C  C98  1  0.80098061  0.57730937  0.10419405  1.0
  C  C99  1  0.19899670  0.42269101  0.89580452  1.0
  C  C100  1  0.69767938  0.10923161  0.92093780  1.0
  C  C101  1  0.30231146  0.89076324  0.07906595  1.0
  C  C102  1  0.30233082  0.89074172  0.42094895  1.0
  C  C103  1  0.69776833  0.10919985  0.57908209  1.0
  C  C104  1  0.21260262  0.38838884  0.64191577  1.0
  C  C105  1  0.78739426  0.61159970  0.35808625  1.0
  C  C106  1  0.78741250  0.61160180  0.14191927  1.0
  C  C107  1  0.21259184  0.38839343  0.85808241  1.0
  C  C108  1  0.71189178  0.14716773  0.88601569  1.0
  C  C109  1  0.28810506  0.85282869  0.11398806  1.0
  C  C110  1  0.28814794  0.85280601  0.38602418  1.0
  C  C111  1  0.71199773  0.14713708  0.61400513  1.0
  C  C112  1  0.05217417  0.35303855  0.64919228  1.0
  C  C113  1  0.94781821  0.64695000  0.35080560  1.0
  C  C114  1  0.94783893  0.64695287  0.14919460  1.0
  C  C115  1  0.05216993  0.35303999  0.85080915  1.0
  C  C116  1  0.55379593  0.14996264  0.85336763  1.0
  C  C117  1  0.44620391  0.85003259  0.14663405  1.0
  C  C118  1  0.44620249  0.85003520  0.35336359  1.0
  C  C119  1  0.55384687  0.14996154  0.64663670  1.0
  C  C120  1  0.16107518  0.46489783  0.49919788  1.0
  C  C121  1  0.83895322  0.53508910  0.50080068  1.0
  C  C122  1  0.83890830  0.53509667  0.99919632  1.0
  C  C123  1  0.16104048  0.46490807  0.00079568  1.0
  C  C124  1  0.66152425  0.99504531  0.96985935  1.0
  C  C125  1  0.33846964  0.00494049  0.03013541  1.0
  C  C126  1  0.33842387  0.00493748  0.46987500  1.0
  C  C127  1  0.66150853  0.99504131  0.53014188  1.0
  C  C128  1  0.13938696  0.50277436  0.46469417  1.0
  C  C129  1  0.86063843  0.49721297  0.53530370  1.0
  C  C130  1  0.86059299  0.49721981  0.96469358  1.0
  C  C131  1  0.13934979  0.50278337  0.03529946  1.0
  C  C132  1  0.63963580  0.96015376  0.00663785  1.0
  C  C133  1  0.36035809  0.03983243  0.99335795  1.0
  C  C134  1  0.36033503  0.03983084  0.50665228  1.0
  C  C135  1  0.63959884  0.96015228  0.49336252  1.0
  C  C136  1  0.97799354  0.53864311  0.46441332  1.0
  C  C137  1  0.02202886  0.46134344  0.53558386  1.0
  C  C138  1  0.02199242  0.46135381  0.96441173  1.0
  C  C139  1  0.97795487  0.53864936  0.03558131  1.0
  C  C140  1  0.47767883  0.96400224  0.03755611  1.0
  C  C141  1  0.52231955  0.03598591  0.96244142  1.0
  C  C142  1  0.52231079  0.03598386  0.53756386  1.0
  C  C143  1  0.47763808  0.96400239  0.46244714  1.0
  C  C144  1  0.39186841  0.39240555  0.67335305  1.0
  C  C145  1  0.60809994  0.60758618  0.32665484  1.0
  C  C146  1  0.60814897  0.60758386  0.17336090  1.0
  C  C147  1  0.39185388  0.39241019  0.82664423  1.0
  C  C148  1  0.88840601  0.18385163  0.88618795  1.0
  C  C149  1  0.11158931  0.81614833  0.11382063  1.0
  C  C150  1  0.11172688  0.81609246  0.38621186  1.0
  C  C151  1  0.88864123  0.18377870  0.61385165  1.0
  I  I152  1  0.40199163  0.41119496  0.49189082  1.0
  I  I153  1  0.59802027  0.58879041  0.50810636  1.0
  I  I154  1  0.59798338  0.58879799  0.99189282  1.0
  I  I155  1  0.40198039  0.41121028  0.00809642  1.0
  I  I156  1  0.90323295  0.98082547  0.92431204  1.0
  I  I157  1  0.09676093  0.01916230  0.07568204  1.0
  I  I158  1  0.09663897  0.01914529  0.42434683  1.0
  I  I159  1  0.90320651  0.98081079  0.57568179  1.0
  O  O160  1  0.61727261  0.79944263  0.20276774  1.0
  O  O161  1  0.38274532  0.20053723  0.79722219  1.0
  O  O162  1  0.38276666  0.20054947  0.70276773  1.0
  O  O163  1  0.61725263  0.79945951  0.29721909  1.0
  O  O164  1  0.12007143  0.70044601  0.29721208  1.0
  O  O165  1  0.87992093  0.29954569  0.70278890  1.0
  O  O166  1  0.87991904  0.29954602  0.79721366  1.0
  O  O167  1  0.12010031  0.70044959  0.20278491  1.0
  O  O168  1  0.27750930  0.79811569  0.29757538  1.0
  O  O169  1  0.72250250  0.20188858  0.70242353  1.0
  O  O170  1  0.72248561  0.20188263  0.79757783  1.0
  O  O171  1  0.27753074  0.79811179  0.20242350  1.0
  O  O172  1  0.78025545  0.70172057  0.20317291  1.0
  O  O173  1  0.21976995  0.29826597  0.79683774  1.0
  O  O174  1  0.21976128  0.29827077  0.70317051  1.0
  O  O175  1  0.78022057  0.70172252  0.29683462  1.0
  O  O176  1  0.45018933  0.71849398  0.25000440  1.0
  O  O177  1  0.54981351  0.28150165  0.75000349  1.0
  O  O178  1  0.94914513  0.78205986  0.24999899  1.0
  O  O179  1  0.05086072  0.21793339  0.74999854  1.0
