# generated using pymatgen
data_VH4C8O5
_symmetry_space_group_name_H-M   'P 1'
_cell_length_a   6.77727898
_cell_length_b   9.58232778
_cell_length_c   18.80723700
_cell_angle_alpha   89.99911675
_cell_angle_beta   90.00163960
_cell_angle_gamma   89.99919332
_symmetry_Int_Tables_number   1
_chemical_formula_structural   VH4C8O5
_chemical_formula_sum   'V4 H16 C32 O20'
_cell_volume   1221.38162776
_cell_formula_units_Z   4
loop_
 _symmetry_equiv_pos_site_id
 _symmetry_equiv_pos_as_xyz
  1  'x, y, z'
loop_
 _atom_site_type_symbol
 _atom_site_label
 _atom_site_symmetry_multiplicity
 _atom_site_fract_x
 _atom_site_fract_y
 _atom_site_fract_z
 _atom_site_occupancy
  V  V0  1  0.79760011  0.27464658  0.24999518  1.0
  V  V1  1  0.70241888  0.77465543  0.75000087  1.0
  V  V2  1  0.20240158  0.72538077  0.74999740  1.0
  V  V3  1  0.29759609  0.22536253  0.25000446  1.0
  H  H4  1  0.30632049  0.97281584  0.42797257  1.0
  H  H5  1  0.19368707  0.47280931  0.57203595  1.0
  H  H6  1  0.69370704  0.02717248  0.92796224  1.0
  H  H7  1  0.80629321  0.52715899  0.07203619  1.0
  H  H8  1  0.69368120  0.02720108  0.57203064  1.0
  H  H9  1  0.80630282  0.52721178  0.42796460  1.0
  H  H10  1  0.30632711  0.97282148  0.07204522  1.0
  H  H11  1  0.19368487  0.47279427  0.92794682  1.0
  H  H12  1  0.70340202  0.10939706  0.44530576  1.0
  H  H13  1  0.79660252  0.60939549  0.55468408  1.0
  H  H14  1  0.29664459  0.89062306  0.94531995  1.0
  H  H15  1  0.20337049  0.39059840  0.05466685  1.0
  H  H16  1  0.29660115  0.89061777  0.55469957  1.0
  H  H17  1  0.20338589  0.39062247  0.44531541  1.0
  H  H18  1  0.70340137  0.10936151  0.05468751  1.0
  H  H19  1  0.79661202  0.60935590  0.94531296  1.0
  C  C20  1  0.01154421  0.10016203  0.35560854  1.0
  C  C21  1  0.48842199  0.60018491  0.64438522  1.0
  C  C22  1  0.98843482  0.89985884  0.85561123  1.0
  C  C23  1  0.51158907  0.39981970  0.14438175  1.0
  C  C24  1  0.98840879  0.89987054  0.64439414  1.0
  C  C25  1  0.51157822  0.39982261  0.35562012  1.0
  C  C26  1  0.01158900  0.10015390  0.14439410  1.0
  C  C27  1  0.48844508  0.60015756  0.85560657  1.0
  C  C28  1  0.00479569  0.04481109  0.42931385  1.0
  C  C29  1  0.49518193  0.54486024  0.57067713  1.0
  C  C30  1  0.99520244  0.95514066  0.92933162  1.0
  C  C31  1  0.50479086  0.45515401  0.07066999  1.0
  C  C32  1  0.99517354  0.95515261  0.57067607  1.0
  C  C33  1  0.50482566  0.45515146  0.42932395  1.0
  C  C34  1  0.00482286  0.04481677  0.07068807  1.0
  C  C35  1  0.49518722  0.54484308  0.92931620  1.0
  C  C36  1  0.17319741  0.98423807  0.45999036  1.0
  C  C37  1  0.32677893  0.48425417  0.54000850  1.0
  C  C38  1  0.82680018  0.01573149  0.95999745  1.0
  C  C39  1  0.67320473  0.51573288  0.04000638  1.0
  C  C40  1  0.82677182  0.01573815  0.54000275  1.0
  C  C41  1  0.67321096  0.51574918  0.45999737  1.0
  C  C42  1  0.17322807  0.98424264  0.04002011  1.0
  C  C43  1  0.32677631  0.48424125  0.95997822  1.0
  C  C44  1  0.83175881  0.06054985  0.46975518  1.0
  C  C45  1  0.66821571  0.56057958  0.53024566  1.0
  C  C46  1  0.16825136  0.93942670  0.96976501  1.0
  C  C47  1  0.33175242  0.43943179  0.03023365  1.0
  C  C48  1  0.16821190  0.93942219  0.53024165  1.0
  C  C49  1  0.33177271  0.43943421  0.46976180  1.0
  C  C50  1  0.83178279  0.06053804  0.03024671  1.0
  C  C51  1  0.66822123  0.56055069  0.96975360  1.0
  O  O52  1  0.84856893  0.14070999  0.32835727  1.0
  O  O53  1  0.65142024  0.64074270  0.67163766  1.0
  O  O54  1  0.15140353  0.85929923  0.82836380  1.0
  O  O55  1  0.34859003  0.35926209  0.17163014  1.0
  O  O56  1  0.15138555  0.85931215  0.67164488  1.0
  O  O57  1  0.34858588  0.35928048  0.32837087  1.0
  O  O58  1  0.84860406  0.14072500  0.17163515  1.0
  O  O59  1  0.65144265  0.64072352  0.82836349  1.0
  O  O60  1  0.02699973  0.33108768  0.24999469  1.0
  O  O61  1  0.47301947  0.83104476  0.75000106  1.0
  O  O62  1  0.97299458  0.66896263  0.75000161  1.0
  O  O63  1  0.52699550  0.16895024  0.25000693  1.0
  O  O64  1  0.17988041  0.10778508  0.32518493  1.0
  O  O65  1  0.32012106  0.60777738  0.67482047  1.0
  O  O66  1  0.82010951  0.89226285  0.82517583  1.0
  O  O67  1  0.67990569  0.39224714  0.17481137  1.0
  O  O68  1  0.82010063  0.89227567  0.67483157  1.0
  O  O69  1  0.67986145  0.39224580  0.32517317  1.0
  O  O70  1  0.17990104  0.10772484  0.17483376  1.0
  O  O71  1  0.32014470  0.60776247  0.82517217  1.0
