# generated using pymatgen
data_Zn4H11C28S2Br2O13F
_symmetry_space_group_name_H-M   'P 1'
_cell_length_a   18.46413311
_cell_length_b   19.65685508
_cell_length_c   32.66355482
_cell_angle_alpha   86.17187496
_cell_angle_beta   73.75836736
_cell_angle_gamma   62.30350926
_symmetry_Int_Tables_number   1
_chemical_formula_structural   Zn4H11C28S2Br2O13F
_chemical_formula_sum   'Zn16 H44 C112 S8 Br8 O52 F4'
_cell_volume   10049.95784812
_cell_formula_units_Z   4
loop_
 _symmetry_equiv_pos_site_id
 _symmetry_equiv_pos_as_xyz
  1  'x, y, z'
loop_
 _atom_site_type_symbol
 _atom_site_label
 _atom_site_symmetry_multiplicity
 _atom_site_fract_x
 _atom_site_fract_y
 _atom_site_fract_z
 _atom_site_occupancy
  Zn  Zn0  1  0.87488337  0.55043564  0.51847190  1.0
  Zn  Zn1  1  0.04284177  0.48136339  0.43784768  1.0
  Zn  Zn2  1  0.04831705  0.39984275  0.52402591  1.0
  Zn  Zn3  1  0.04197129  0.56608254  0.51700966  1.0
  Zn  Zn4  1  0.62500970  0.18908873  0.73334502  1.0
  Zn  Zn5  1  0.46849436  0.35154293  0.72540196  1.0
  Zn  Zn6  1  0.45165134  0.26787880  0.81166211  1.0
  Zn  Zn7  1  0.45245074  0.19593140  0.72632467  1.0
  Zn  Zn8  1  0.46515154  0.76077021  0.31390540  1.0
  Zn  Zn9  1  0.45832044  0.68606242  0.23147161  1.0
  Zn  Zn10  1  0.62613404  0.69735563  0.23016648  1.0
  Zn  Zn11  1  0.45302470  0.84973211  0.22787324  1.0
  Zn  Zn12  1  0.03288817  0.90072721  0.02504951  1.0
  Zn  Zn13  1  0.05564470  0.05434078  0.01801048  1.0
  Zn  Zn14  1  0.87543185  0.06162534  0.02063076  1.0
  Zn  Zn15  1  0.03267032  0.98816302  0.93764131  1.0
  H  H16  1  0.80117569  0.95992323  0.65757072  1.0
  H  H17  1  0.32240197  0.97334004  0.40464625  1.0
  H  H18  1  0.82281724  0.23612327  0.65792106  1.0
  H  H19  1  0.55836437  0.47231998  0.61889340  1.0
  H  H20  1  0.56048662  0.51688517  0.66398077  1.0
  H  H21  1  0.66199880  0.55990789  0.61523396  1.0
  H  H22  1  0.66019905  0.51488986  0.57026704  1.0
  H  H23  1  0.28233830  0.61237923  0.29488233  1.0
  H  H24  1  0.35498175  0.66453263  0.43392941  1.0
  H  H25  1  0.26607037  0.75565098  0.43351334  1.0
  H  H26  1  0.16637366  0.70752784  0.47849107  1.0
  H  H27  1  0.25517930  0.61659473  0.47932020  1.0
  H  H28  1  0.81505197  0.59759040  0.29370634  1.0
  H  H29  1  0.55653212  0.76028875  0.43064293  1.0
  H  H30  1  0.54898797  0.67289346  0.43255718  1.0
  H  H31  1  0.65069236  0.61943449  0.47807494  1.0
  H  H32  1  0.65809012  0.70681183  0.47648623  1.0
  H  H33  1  0.31900425  0.46365006  0.64295445  1.0
  H  H34  1  0.31800417  0.19341504  0.63194922  1.0
  H  H35  1  0.22559033  0.24055763  0.67604987  1.0
  H  H36  1  0.13502968  0.29450049  0.62482401  1.0
  H  H37  1  0.22766642  0.24815919  0.58087911  1.0
  H  H38  1  0.18098838  0.66172233  0.96261647  1.0
  H  H39  1  0.68116806  0.14385281  0.95975478  1.0
  H  H40  1  0.94041160  0.08787610  0.81972011  1.0
  H  H41  1  0.94222783  0.99629443  0.82101499  1.0
  H  H42  1  0.83863256  0.04259724  0.77635604  1.0
  H  H43  1  0.83715000  0.13396335  0.77503901  1.0
  H  H44  1  0.18065612  0.05896133  0.84200643  1.0
  H  H45  1  0.18288623  0.20714873  0.97278530  1.0
  H  H46  1  0.27521526  0.11752907  0.97104102  1.0
  H  H47  1  0.36604263  0.16752120  0.91893531  1.0
  H  H48  1  0.27351003  0.25663879  0.92039729  1.0
  H  H49  1  0.93866540  0.28812925  0.09012153  1.0
  H  H50  1  0.18464774  0.79163909  0.10643147  1.0
  H  H51  1  0.27325125  0.01812470  0.07430792  1.0
  H  H52  1  0.18117943  0.06340874  0.11881961  1.0
  H  H53  1  0.27276463  0.00862414  0.16920517  1.0
  H  H54  1  0.36515677  0.96443271  0.12481160  1.0
  H  H55  1  0.68182895  0.01261626  0.09384785  1.0
  H  H56  1  0.94067300  0.72937494  0.08680401  1.0
  H  H57  1  0.94271195  0.77194104  0.13271659  1.0
  H  H58  1  0.83889616  0.73033742  0.17986860  1.0
  H  H59  1  0.83711354  0.68716313  0.13417161  1.0
  C  C60  1  0.87014094  0.56495001  0.42911612  1.0
  C  C61  1  0.12000225  0.31388841  0.44011244  1.0
  C  C62  1  0.87688984  0.42072773  0.57089977  1.0
  C  C63  1  0.14645953  0.44585341  0.56399830  1.0
  C  C64  1  0.86488318  0.68221316  0.56157040  1.0
  C  C65  1  0.13558559  0.56910220  0.42995739  1.0
  C  C66  1  0.64933761  0.31142434  0.68380293  1.0
  C  C67  1  0.37908872  0.43702057  0.80999547  1.0
  C  C68  1  0.62266226  0.17799367  0.82469664  1.0
  C  C69  1  0.35639550  0.18240038  0.81186782  1.0
  C  C70  1  0.62279249  0.06928915  0.68464632  1.0
  C  C71  1  0.36344296  0.32807545  0.67993579  1.0
  C  C72  1  0.36138653  0.68167791  0.31966219  1.0
  C  C73  1  0.63306216  0.56414660  0.19096961  1.0
  C  C74  1  0.64314640  0.68109426  0.31808303  1.0
  C  C75  1  0.62318302  0.82841163  0.17913536  1.0
  C  C76  1  0.37831963  0.93005519  0.31444883  1.0
  C  C77  1  0.36054087  0.80807168  0.18324456  1.0
  C  C78  1  0.13898983  0.92697331  0.06916483  1.0
  C  C79  1  0.88936790  0.18435082  0.06094480  1.0
  C  C80  1  0.85472040  0.93705701  0.06945277  1.0
  C  C81  1  0.85416256  0.07268851  0.93396928  1.0
  C  C82  1  0.11621217  0.81813779  0.93907762  1.0
  C  C83  1  0.13868549  0.06719274  0.92846282  1.0
  C  C84  1  0.72797397  0.80626602  0.59822418  1.0
  C  C85  1  0.75673616  0.94529386  0.64929334  1.0
  C  C86  1  0.81502406  0.75722665  0.58629571  1.0
  C  C87  1  0.66981615  0.99366291  0.66037077  1.0
  C  C88  1  0.77747135  0.87712391  0.62649648  1.0
  C  C89  1  0.70537016  0.87509645  0.62099937  1.0
  C  C90  1  0.19275163  0.22280491  0.37178442  1.0
  C  C91  1  0.30412466  0.01915696  0.38317250  1.0
  C  C92  1  0.16887776  0.23891757  0.41566601  1.0
  C  C93  1  0.32768733  0.00503130  0.33927765  1.0
  C  C94  1  0.25503905  0.09895626  0.39489599  1.0
  C  C95  1  0.24215089  0.14338072  0.35939981  1.0
  C  C96  1  0.70812531  0.33795936  0.65523447  1.0
  C  C97  1  0.82362567  0.38861818  0.59965026  1.0
  C  C98  1  0.67856540  0.40870845  0.63725392  1.0
  C  C99  1  0.85319681  0.31634340  0.61801626  1.0
  C  C100  1  0.73480052  0.43230330  0.61047502  1.0
  C  C101  1  0.79717905  0.29211443  0.64476821  1.0
  C  C102  1  0.59998681  0.48119555  0.63387133  1.0
  C  C103  1  0.66357071  0.50807291  0.60343712  1.0
  C  C104  1  0.30239040  0.65481704  0.34763582  1.0
  C  C105  1  0.18969303  0.59902029  0.40022684  1.0
  C  C106  1  0.27933095  0.66325289  0.39213761  1.0
  C  C107  1  0.21234644  0.59168373  0.35489155  1.0
  C  C108  1  0.22438687  0.63659888  0.41710152  1.0
  C  C109  1  0.26675842  0.61883058  0.32958128  1.0
  C  C110  1  0.29000249  0.69301560  0.43053999  1.0
  C  C111  1  0.22759435  0.66283083  0.45892041  1.0
  C  C112  1  0.70098952  0.65114507  0.34607717  1.0
  C  C113  1  0.81623152  0.59123354  0.39910068  1.0
  C  C114  1  0.67149918  0.66211773  0.39051789  1.0
  C  C115  1  0.84572761  0.57918497  0.35377601  1.0
  C  C116  1  0.72769714  0.63273763  0.41568930  1.0
  C  C117  1  0.78977251  0.60844682  0.32831665  1.0
  C  C118  1  0.59321982  0.69718448  0.42861090  1.0
  C  C119  1  0.65683621  0.66381643  0.45725018  1.0
  C  C120  1  0.30716560  0.35931704  0.65122124  1.0
  C  C121  1  0.20190565  0.42077237  0.59332072  1.0
  C  C122  1  0.26956632  0.31974487  0.63912083  1.0
  C  C123  1  0.23989442  0.46101694  0.60616943  1.0
  C  C124  1  0.21925712  0.34993690  0.61112292  1.0
  C  C125  1  0.29075802  0.43105866  0.63409948  1.0
  C  C126  1  0.25896193  0.24739377  0.64371548  1.0
  C  C127  1  0.20216701  0.28142494  0.61181532  1.0
  C  C128  1  0.30011152  0.58539985  0.82067657  1.0
  C  C129  1  0.19558597  0.67091627  0.92872669  1.0
  C  C130  1  0.32836211  0.51173941  0.83488712  1.0
  C  C131  1  0.16795175  0.74363491  0.91365116  1.0
  C  C132  1  0.24368142  0.61334716  0.89457258  1.0
  C  C133  1  0.25165132  0.64399256  0.85422682  1.0
  C  C134  1  0.79485850  0.09871635  0.90665116  1.0
  C  C135  1  0.67691117  0.15122844  0.85473400  1.0
  C  C136  1  0.82301723  0.08881248  0.86217966  1.0
  C  C137  1  0.64874341  0.16025018  0.90018108  1.0
  C  C138  1  0.76569235  0.11450868  0.83758173  1.0
  C  C139  1  0.70586756  0.13512746  0.92505449  1.0
  C  C140  1  0.90072484  0.05880067  0.82364940  1.0
  C  C141  1  0.83595592  0.08780047  0.79566315  1.0
  C  C142  1  0.19388252  0.09629185  0.89878905  1.0
  C  C143  1  0.29959421  0.15262784  0.83943175  1.0
  C  C144  1  0.23150177  0.13400419  0.91276424  1.0
  C  C145  1  0.26069052  0.11444988  0.82543086  1.0
  C  C146  1  0.28180635  0.16126399  0.88386714  1.0
  C  C147  1  0.20962357  0.08747758  0.85418603  1.0
  C  C148  1  0.24199696  0.16269981  0.95154743  1.0
  C  C149  1  0.29896895  0.19377560  0.91884606  1.0
  C  C150  1  0.65610912  0.44274261  0.15282847  1.0
  C  C151  1  0.87113076  0.30433592  0.09855849  1.0
  C  C152  1  0.68418323  0.48984977  0.16575932  1.0
  C  C153  1  0.84069434  0.25897994  0.08615678  1.0
  C  C154  1  0.80329043  0.37182877  0.12278625  1.0
  C  C155  1  0.72298424  0.37554678  0.12824227  1.0
  C  C156  1  0.19507089  0.89669804  0.09814733  1.0
  C  C157  1  0.30283213  0.83488021  0.15501847  1.0
  C  C158  1  0.23177501  0.93691112  0.11057390  1.0
  C  C159  1  0.26488714  0.79440137  0.14240723  1.0
  C  C160  1  0.28304254  0.90667804  0.13819432  1.0
  C  C161  1  0.21285124  0.82450950  0.11500740  1.0
  C  C162  1  0.24074470  0.01008605  0.10655623  1.0
  C  C163  1  0.29849962  0.97605385  0.13803739  1.0
  C  C164  1  0.79541686  0.90960267  0.09662100  1.0
  C  C165  1  0.67738267  0.85963544  0.15036238  1.0
  C  C166  1  0.82351706  0.83802541  0.11373391  1.0
  C  C167  1  0.64925660  0.93218102  0.13232568  1.0
  C  C168  1  0.76610712  0.81486715  0.13971454  1.0
  C  C169  1  0.70643932  0.95617441  0.10659192  1.0
  C  C170  1  0.90109768  0.76453512  0.11706412  1.0
  C  C171  1  0.83619938  0.73820138  0.14663347  1.0
  S  S172  1  0.87070340  0.79557425  0.60340923  1.0
  S  S173  1  0.61246616  0.95705111  0.64340145  1.0
  S  S174  1  0.20718815  0.15545538  0.44244865  1.0
  S  S175  1  0.29085542  0.08771192  0.31182292  1.0
  S  S176  1  0.29516237  0.51393064  0.89044461  1.0
  S  S177  1  0.20002073  0.74307912  0.85816411  1.0
  S  S178  1  0.79471751  0.45125915  0.14752390  1.0
  S  S179  1  0.73028383  0.29726169  0.10359024  1.0
  Br  Br180  1  0.97107045  0.24401517  0.60791516  1.0
  Br  Br181  1  0.16625056  0.54915049  0.32473418  1.0
  Br  Br182  1  0.96274581  0.51881638  0.32325925  1.0
  Br  Br183  1  0.22700927  0.55867620  0.58655549  1.0
  Br  Br184  1  0.53130165  0.20702608  0.93222492  1.0
  Br  Br185  1  0.27052810  0.09941252  0.76658579  1.0
  Br  Br186  1  0.27738832  0.69765342  0.16314509  1.0
  Br  Br187  1  0.53180786  0.00500872  0.14174802  1.0
  O  O188  1  0.99984281  0.50018311  0.50043462  1.0
  O  O189  1  0.83118172  0.56460232  0.46823222  1.0
  O  O190  1  0.08954391  0.37303639  0.41937249  1.0
  O  O191  1  0.95729522  0.38412959  0.56414793  1.0
  O  O192  1  0.94873960  0.54686054  0.41418129  1.0
  O  O193  1  0.83523408  0.48419078  0.55556533  1.0
  O  O194  1  0.11260279  0.31277442  0.48032664  1.0
  O  O195  1  0.12582578  0.39578654  0.55552956  1.0
  O  O196  1  0.94564047  0.65395751  0.55452304  1.0
  O  O197  1  0.12380277  0.51264462  0.55018546  1.0
  O  O198  1  0.82521079  0.65234012  0.54947493  1.0
  O  O199  1  0.13471395  0.50982715  0.41715320  1.0
  O  O200  1  0.09592441  0.60496376  0.46706480  1.0
  O  O201  1  0.50041570  0.25066469  0.74922231  1.0
  O  O202  1  0.68223001  0.24534833  0.69845038  1.0
  O  O203  1  0.40374899  0.43777108  0.76946473  1.0
  O  O204  1  0.54200382  0.21337758  0.83993382  1.0
  O  O205  1  0.57004587  0.35831304  0.69102646  1.0
  O  O206  1  0.66407111  0.16270972  0.78502719  1.0
  O  O207  1  0.39381921  0.37760393  0.83168747  1.0
  O  O208  1  0.36569600  0.23151368  0.83082285  1.0
  O  O209  1  0.54262589  0.10499763  0.68870437  1.0
  O  O210  1  0.39196870  0.15659925  0.77289853  1.0
  O  O211  1  0.66547390  0.09218271  0.69949900  1.0
  O  O212  1  0.39622522  0.36848549  0.68785470  1.0
  O  O213  1  0.37427617  0.26269041  0.69393438  1.0
  O  O214  1  0.50133004  0.74870798  0.25127033  1.0
  O  O215  1  0.39109913  0.71335910  0.33867557  1.0
  O  O216  1  0.55343080  0.58595882  0.20602316  1.0
  O  O217  1  0.67769772  0.67135696  0.27776444  1.0
  O  O218  1  0.37731041  0.67071773  0.27935353  1.0
  O  O219  1  0.56338190  0.71400461  0.33728414  1.0
  O  O220  1  0.67340466  0.60018222  0.19547218  1.0
  O  O221  1  0.66452276  0.76573764  0.19512519  1.0
  O  O222  1  0.39484699  0.93258104  0.27377968  1.0
  O  O223  1  0.54274443  0.86451303  0.18554518  1.0
  O  O224  1  0.40070024  0.87009666  0.33544431  1.0
  O  O225  1  0.40025437  0.73627504  0.18759491  1.0
  O  O226  1  0.36652417  0.86134775  0.20026255  1.0
  O  O227  1  0.00010013  0.00123917  0.00038938  1.0
  O  O228  1  0.10858682  0.88483564  0.06060379  1.0
  O  O229  1  0.97052350  0.15487265  0.04935764  1.0
  O  O230  1  0.82153159  0.00520514  0.05739001  1.0
  O  O231  1  0.12605821  0.99295356  0.05541738  1.0
  O  O232  1  0.93423519  0.88958924  0.06063859  1.0
  O  O233  1  0.84424999  0.15598897  0.05313716  1.0
  O  O234  1  0.82101061  0.09004194  0.97411466  1.0
  O  O235  1  0.09742406  0.87816672  0.91781558  1.0
  O  O236  1  0.93359352  0.03494488  0.91458687  1.0
  O  O237  1  0.09493683  0.81606231  0.97964440  1.0
  O  O238  1  0.12915245  0.07629932  0.96834283  1.0
  O  O239  1  0.10561476  0.03602741  0.91166606  1.0
  F  F240  1  0.66984791  0.79126572  0.58911586  1.0
  F  F241  1  0.17248983  0.27606744  0.34326741  1.0
  F  F242  1  0.31612482  0.60103269  0.77937218  1.0
  F  F243  1  0.57414986  0.45819145  0.16196649  1.0
