# generated using pymatgen
data_InAgH16C24(NO2)4
_symmetry_space_group_name_H-M   'P 1'
_cell_length_a   11.55760342
_cell_length_b   13.28644353
_cell_length_c   14.08430176
_cell_angle_alpha   79.74843095
_cell_angle_beta   65.83356286
_cell_angle_gamma   64.25888662
_symmetry_Int_Tables_number   1
_chemical_formula_structural   InAgH16C24(NO2)4
_chemical_formula_sum   'In2 Ag2 H32 C48 N8 O16'
_cell_volume   1777.41942138
_cell_formula_units_Z   2
loop_
 _symmetry_equiv_pos_site_id
 _symmetry_equiv_pos_as_xyz
  1  'x, y, z'
loop_
 _atom_site_type_symbol
 _atom_site_label
 _atom_site_symmetry_multiplicity
 _atom_site_fract_x
 _atom_site_fract_y
 _atom_site_fract_z
 _atom_site_occupancy
  In  In0  1  0.87541288  0.74981355  0.24972994  1.0
  In  In1  1  0.12458439  0.25019346  0.75027019  1.0
  Ag  Ag2  1  0.62439465  0.25017057  0.74991963  1.0
  Ag  Ag3  1  0.37559303  0.74983476  0.25008416  1.0
  H  H4  1  0.95669823  0.90183010  0.49714907  1.0
  H  H5  1  0.54655416  0.59832614  0.49660326  1.0
  H  H6  1  0.64154130  0.90176020  0.00289242  1.0
  H  H7  1  0.35569929  0.59807162  0.00303215  1.0
  H  H8  1  0.04329731  0.09816939  0.50286009  1.0
  H  H9  1  0.45345294  0.40166582  0.50337688  1.0
  H  H10  1  0.35845103  0.09823594  0.99711349  1.0
  H  H11  1  0.64430896  0.40193037  0.99696287  1.0
  H  H12  1  0.55067513  0.06266376  0.48162302  1.0
  H  H13  1  0.96756904  0.43706638  0.48227584  1.0
  H  H14  1  0.88672453  0.06306814  0.01795949  1.0
  H  H15  1  0.09528528  0.43707115  0.01766299  1.0
  H  H16  1  0.44932125  0.93732987  0.51838048  1.0
  H  H17  1  0.03243180  0.56293143  0.51772252  1.0
  H  H18  1  0.11327598  0.93693218  0.98203713  1.0
  H  H19  1  0.90471688  0.56292833  0.98234313  1.0
  H  H20  1  0.86803767  0.03246864  0.64435413  1.0
  H  H21  1  0.48762687  0.46778054  0.64373044  1.0
  H  H22  1  0.59905362  0.03251834  0.85589456  1.0
  H  H23  1  0.54470275  0.46762207  0.85575034  1.0
  H  H24  1  0.13195380  0.96753669  0.35564833  1.0
  H  H25  1  0.51237372  0.53221727  0.35625806  1.0
  H  H26  1  0.40093205  0.96748950  0.14411660  1.0
  H  H27  1  0.45530692  0.53237909  0.14424646  1.0
  H  H28  1  0.47971380  0.18826631  0.62571731  1.0
  H  H29  1  0.89394584  0.31162339  0.62628260  1.0
  H  H30  1  0.83151762  0.18883119  0.87411400  1.0
  H  H31  1  0.29386421  0.31167190  0.87355944  1.0
  H  H32  1  0.52028521  0.81173485  0.37427472  1.0
  H  H33  1  0.10605124  0.68838027  0.37371960  1.0
  H  H34  1  0.16847917  0.81116746  0.12589060  1.0
  H  H35  1  0.70613694  0.68832758  0.12644491  1.0
  C  C36  1  0.85065284  0.96465799  0.52401469  1.0
  C  C37  1  0.62550782  0.53544200  0.52372071  1.0
  C  C38  1  0.68465316  0.96468363  0.97598798  1.0
  C  C39  1  0.33942720  0.53520415  0.97600413  1.0
  C  C40  1  0.14934366  0.03534317  0.47599029  1.0
  C  C41  1  0.37449672  0.46455164  0.47626643  1.0
  C  C42  1  0.31534159  0.03531335  0.02401693  1.0
  C  C43  1  0.66057459  0.46479951  0.02399500  1.0
  C  C44  1  0.62478359  0.05423795  0.51447364  1.0
  C  C45  1  0.86063456  0.44559844  0.51483223  1.0
  C  C46  1  0.82097146  0.05453187  0.98522696  1.0
  C  C47  1  0.19371080  0.44559451  0.98499093  1.0
  C  C48  1  0.37520874  0.94575986  0.48552842  1.0
  C  C49  1  0.13936715  0.55439938  0.48516227  1.0
  C  C50  1  0.17902677  0.94546761  0.01477557  1.0
  C  C51  1  0.80629176  0.55441166  0.01501246  1.0
  C  C52  1  0.80173296  0.03677672  0.60511695  1.0
  C  C53  1  0.59311428  0.46336180  0.60474682  1.0
  C  C54  1  0.66111664  0.03690767  0.89502993  1.0
  C  C55  1  0.44362143  0.46319888  0.89488080  1.0
  C  C56  1  0.19826041  0.96322861  0.39488484  1.0
  C  C57  1  0.40688497  0.53663685  0.39524343  1.0
  C  C58  1  0.33887256  0.96309683  0.10497916  1.0
  C  C59  1  0.55638219  0.53680311  0.10512011  1.0
  C  C60  1  0.58464536  0.12408816  0.59524703  1.0
  C  C61  1  0.81974838  0.37584024  0.59556091  1.0
  C  C62  1  0.79093249  0.12448302  0.90459292  1.0
  C  C63  1  0.30409690  0.37584696  0.90422021  1.0
  C  C64  1  0.41534834  0.87591049  0.40475014  1.0
  C  C65  1  0.18025129  0.62416175  0.40443499  1.0
  C  C66  1  0.20906286  0.87551480  0.09541376  1.0
  C  C67  1  0.69590842  0.62415170  0.09578140  1.0
  C  C68  1  0.80784420  0.89495432  0.39216194  1.0
  C  C69  1  0.80048918  0.60477688  0.39217801  1.0
  C  C70  1  0.79778397  0.89504823  0.10740074  1.0
  C  C71  1  0.09531948  0.60474762  0.10743056  1.0
  C  C72  1  0.19216093  0.10504099  0.60784175  1.0
  C  C73  1  0.19951987  0.39521759  0.60781379  1.0
  C  C74  1  0.20221409  0.10494959  0.89260073  1.0
  C  C75  1  0.90469293  0.39525187  0.89256628  1.0
  C  C76  1  0.76044522  0.97322038  0.47749829  1.0
  C  C77  1  0.76223075  0.52667366  0.47754963  1.0
  C  C78  1  0.76652674  0.97333319  0.02223759  1.0
  C  C79  1  0.21137246  0.52658117  0.02218882  1.0
  C  C80  1  0.23954663  0.02678245  0.52250732  1.0
  C  C81  1  0.23777531  0.47331914  0.52244209  1.0
  C  C82  1  0.23347063  0.02666796  0.97776424  1.0
  C  C83  1  0.78863096  0.47342333  0.97781527  1.0
  N  N84  1  0.67141195  0.11584874  0.64002771  1.0
  N  N85  1  0.68824950  0.38424589  0.63991441  1.0
  N  N86  1  0.71221219  0.11615315  0.86002446  1.0
  N  N87  1  0.42728269  0.38417681  0.85972615  1.0
  N  N88  1  0.32857808  0.88415910  0.35996771  1.0
  N  N89  1  0.31174634  0.61575610  0.36008213  1.0
  N  N90  1  0.28777883  0.88384968  0.13998570  1.0
  N  N91  1  0.57272337  0.61581850  0.14027649  1.0
  O  O92  1  0.71553830  0.88256642  0.37287279  1.0
  O  O93  1  0.91215797  0.61695605  0.37295222  1.0
  O  O94  1  0.90245319  0.88279991  0.12660865  1.0
  O  O95  1  0.97145182  0.61707555  0.12660706  1.0
  O  O96  1  0.28446567  0.11742387  0.62713644  1.0
  O  O97  1  0.08784588  0.38304344  0.62704621  1.0
  O  O98  1  0.09754234  0.11720124  0.87339596  1.0
  O  O99  1  0.02856307  0.38292478  0.87339018  1.0
  O  O100  1  0.93649857  0.84133812  0.34196855  1.0
  O  O101  1  0.72204337  0.65846540  0.34187397  1.0
  O  O102  1  0.72294844  0.84117842  0.15760922  1.0
  O  O103  1  0.12012163  0.65842484  0.15772665  1.0
  O  O104  1  0.06350916  0.15866304  0.65802751  1.0
  O  O105  1  0.27797023  0.34153326  0.65811549  1.0
  O  O106  1  0.27705337  0.15881773  0.84239335  1.0
  O  O107  1  0.87987964  0.34157799  0.84227352  1.0
