# generated using pymatgen
data_Al2H6C27(SO3)6
_symmetry_space_group_name_H-M   'P 1'
_cell_length_a   4.05721732
_cell_length_b   20.07980960
_cell_length_c   20.07944678
_cell_angle_alpha   60.00025557
_cell_angle_beta   90.00028717
_cell_angle_gamma   89.99928524
_symmetry_Int_Tables_number   1
_chemical_formula_structural   Al2H6C27(SO3)6
_chemical_formula_sum   'Al2 H6 C27 S6 O18'
_cell_volume   1416.67866804
_cell_formula_units_Z   1
loop_
 _symmetry_equiv_pos_site_id
 _symmetry_equiv_pos_as_xyz
  1  'x, y, z'
loop_
 _atom_site_type_symbol
 _atom_site_label
 _atom_site_symmetry_multiplicity
 _atom_site_fract_x
 _atom_site_fract_y
 _atom_site_fract_z
 _atom_site_occupancy
  Al  Al0  1  0.05046082  0.49999917  0.00000053  1.0
  Al  Al1  1  0.03620536  0.16666571  0.66666811  1.0
  H  H2  1  0.82434006  0.36998278  0.43537631  1.0
  H  H3  1  0.82435643  0.19464341  0.86998627  1.0
  H  H4  1  0.82434125  0.93537094  0.69464094  1.0
  H  H5  1  0.30237615  0.18007719  0.32522554  1.0
  H  H6  1  0.30221862  0.49468994  0.68006528  1.0
  H  H7  1  0.30232523  0.82523819  0.99469126  1.0
  C  C8  1  0.55285764  0.61631215  0.95146208  1.0
  C  C9  1  0.55286769  0.43222313  0.11631263  1.0
  C  C10  1  0.55289461  0.45146194  0.93222468  1.0
  C  C11  1  0.54012146  0.22626060  0.54943972  1.0
  C  C12  1  0.54011857  0.22429942  0.72626242  1.0
  C  C13  1  0.54013139  0.04944083  0.72429994  1.0
  C  C14  1  0.44872756  0.31606558  0.25173339  1.0
  C  C15  1  0.69787739  0.33546580  0.41539454  1.0
  C  C16  1  0.57329287  0.38907614  0.20254990  1.0
  C  C17  1  0.55522325  0.26530520  0.46527962  1.0
  C  C18  1  0.65035813  0.35479692  0.33802686  1.0
  C  C19  1  0.48563855  0.29764554  0.32985268  1.0
  C  C20  1  0.44868701  0.43220136  0.81606485  1.0
  C  C21  1  0.69786371  0.24913945  0.83546987  1.0
  C  C22  1  0.57329368  0.40837078  0.88907648  1.0
  C  C23  1  0.55522019  0.26941309  0.76530821  1.0
  C  C24  1  0.65036405  0.30717712  0.85479658  1.0
  C  C25  1  0.48562285  0.37250281  0.79764558  1.0
  C  C26  1  0.44868575  0.75173705  0.93219834  1.0
  C  C27  1  0.69785924  0.91539587  0.74913506  1.0
  C  C28  1  0.57327241  0.70255241  0.90836963  1.0
  C  C29  1  0.55521088  0.96528199  0.76941040  1.0
  C  C30  1  0.65035930  0.83803042  0.80717468  1.0
  C  C31  1  0.48560697  0.82985464  0.87249907  1.0
  C  C32  1  0.30267045  0.26898226  0.22135600  1.0
  C  C33  1  0.30262830  0.50965442  0.76896329  1.0
  C  C34  1  0.30262194  0.72137530  0.00965245  1.0
  S  S35  1  0.74394840  0.43309349  0.24912521  1.0
  S  S36  1  0.36516520  0.22291209  0.41789114  1.0
  S  S37  1  0.74397556  0.31777896  0.93309562  1.0
  S  S38  1  0.36515562  0.35919441  0.72291015  1.0
  S  S39  1  0.74393864  0.74912804  0.81777656  1.0
  S  S40  1  0.36514467  0.91789695  0.85919202  1.0
  O  O41  1  0.30851880  0.43424808  0.97725130  1.0
  O  O42  1  0.30850365  0.58849734  0.93424280  1.0
  O  O43  1  0.30850145  0.47725474  0.08850124  1.0
  O  O44  1  0.78319376  0.49770248  0.92294788  1.0
  O  O45  1  0.78317074  0.42294709  0.07934818  1.0
  O  O46  1  0.78316002  0.57934690  0.99770210  1.0
  O  O47  1  0.29962088  0.08167368  0.73863856  1.0
  O  O48  1  0.29960867  0.17968920  0.58167260  1.0
  O  O49  1  0.29960547  0.23863594  0.67968981  1.0
  O  O50  1  0.76759601  0.08407704  0.67470280  1.0
  O  O51  1  0.76757421  0.17470015  0.74122273  1.0
  O  O52  1  0.76756791  0.24121933  0.58408052  1.0
  O  O53  1  0.21409786  0.19510097  0.27429588  1.0
  O  O54  1  0.25708105  0.29269219  0.15330271  1.0
  O  O55  1  0.21400450  0.53059717  0.69509369  1.0
  O  O56  1  0.25708366  0.55401156  0.79267878  1.0
  O  O57  1  0.21405243  0.77430890  0.03059671  1.0
  O  O58  1  0.25700709  0.65330975  0.05399751  1.0
