# generated using pymatgen
data_ZnH10C21Br2(NO2)4
_symmetry_space_group_name_H-M   'P 1'
_cell_length_a   16.34652860
_cell_length_b   17.27249396
_cell_length_c   17.54977984
_cell_angle_alpha   90.25894192
_cell_angle_beta   97.57991064
_cell_angle_gamma   91.36499725
_symmetry_Int_Tables_number   1
_chemical_formula_structural   ZnH10C21Br2(NO2)4
_chemical_formula_sum   'Zn2 H20 C42 Br4 N8 O16'
_cell_volume   4910.25917659
_cell_formula_units_Z   2
loop_
 _symmetry_equiv_pos_site_id
 _symmetry_equiv_pos_as_xyz
  1  'x, y, z'
loop_
 _atom_site_type_symbol
 _atom_site_label
 _atom_site_symmetry_multiplicity
 _atom_site_fract_x
 _atom_site_fract_y
 _atom_site_fract_z
 _atom_site_occupancy
  Zn  Zn0  1  0.59118155  0.50968707  0.50989299  1.0
  Zn  Zn1  1  0.41273079  0.48808823  0.49523683  1.0
  H  H2  1  0.29170330  0.57562311  0.55459808  1.0
  H  H3  1  0.14114543  0.58424198  0.55403154  1.0
  H  H4  1  0.11315386  0.38113732  0.40560869  1.0
  H  H5  1  0.89190686  0.60177085  0.61340384  1.0
  H  H6  1  0.85965863  0.43138656  0.42878078  1.0
  H  H7  1  0.70961414  0.43454457  0.43518157  1.0
  H  H8  1  0.99132395  0.43479192  0.43937813  1.0
  H  H9  1  0.01147215  0.56470361  0.56187527  1.0
  H  H10  1  0.39897617  0.55523452  0.73460971  1.0
  H  H11  1  0.40511187  0.55763360  0.87623085  1.0
  H  H12  1  0.62596013  0.42299717  0.89323914  1.0
  H  H13  1  0.35593674  0.55030407  0.11200479  1.0
  H  H14  1  0.60893990  0.47883946  0.12754039  1.0
  H  H15  1  0.61625834  0.47732951  0.26909178  1.0
  H  H16  1  0.58261709  0.46305527  0.00676286  1.0
  H  H17  1  0.41275983  0.53819041  0.99776119  1.0
  H  H18  1  0.39573971  0.24921587  0.50771400  1.0
  H  H19  1  0.39571228  0.10321375  0.50267387  1.0
  H  H20  1  0.34716405  0.88545918  0.51345933  1.0
  H  H21  1  0.59950886  0.89637524  0.46569716  1.0
  C  C22  1  0.50150482  0.49625185  0.64738296  1.0
  C  C23  1  0.48240636  0.64882812  0.49665327  1.0
  C  C24  1  0.50044302  0.50255199  0.35703766  1.0
  C  C25  1  0.51997619  0.34964262  0.50624388  1.0
  C  C26  1  0.24946934  0.53377093  0.52241377  1.0
  C  C27  1  0.16510858  0.53751330  0.52225477  1.0
  C  C28  1  0.11270938  0.48168656  0.48063083  1.0
  C  C29  1  0.15005540  0.42560792  0.43942793  1.0
  C  C30  1  0.23564041  0.42646044  0.44249921  1.0
  C  C31  1  0.02333245  0.47836305  0.47851184  1.0
  C  C32  1  0.97931218  0.52223051  0.52152990  1.0
  C  C33  1  0.85415341  0.56374823  0.57255810  1.0
  C  C34  1  0.89004952  0.51778801  0.52045220  1.0
  C  C35  1  0.83674210  0.46961711  0.47018613  1.0
  C  C36  1  0.75279380  0.47081510  0.47313712  1.0
  C  C37  1  0.76881648  0.56051943  0.57233443  1.0
  C  C38  1  0.50864309  0.49027926  0.73299675  1.0
  C  C39  1  0.44863612  0.52662840  0.77057560  1.0
  C  C40  1  0.45220933  0.52753321  0.84984947  1.0
  C  C41  1  0.51682957  0.49065977  0.89606820  1.0
  C  C42  1  0.57609696  0.45301333  0.85896389  1.0
  C  C43  1  0.57238116  0.45243985  0.77920217  1.0
  C  C44  1  0.52574636  0.48896457  0.97964597  1.0
  C  C45  1  0.47094737  0.51465604  0.02477401  1.0
  C  C46  1  0.41305272  0.53257174  0.14593000  1.0
  C  C47  1  0.48062105  0.51268350  0.10839388  1.0
  C  C48  1  0.55446316  0.49263659  0.15420413  1.0
  C  C49  1  0.55890666  0.49161693  0.23350715  1.0
  C  C50  1  0.49066298  0.50875549  0.27135086  1.0
  C  C51  1  0.41763023  0.53006555  0.22569947  1.0
  C  C52  1  0.52565155  0.26247006  0.50719668  1.0
  C  C53  1  0.45245477  0.21785561  0.50581662  1.0
  C  C54  1  0.45217532  0.13781716  0.50222412  1.0
  C  C55  1  0.52604029  0.09914829  0.49792328  1.0
  C  C56  1  0.59959425  0.14331289  0.49895617  1.0
  C  C57  1  0.59969698  0.22371284  0.50552663  1.0
  C  C58  1  0.40322656  0.85618248  0.50378560  1.0
  C  C59  1  0.47333714  0.89977506  0.49094489  1.0
  C  C60  1  0.54539659  0.86246974  0.47694055  1.0
  C  C61  1  0.54518125  0.78237910  0.47646113  1.0
  C  C62  1  0.47790754  0.73598049  0.49292045  1.0
  C  C63  1  0.40778813  0.77608475  0.50664045  1.0
  Br  Br64  1  0.28347460  0.34987874  0.38626337  1.0
  Br  Br65  1  0.72314623  0.62102642  0.64498504  1.0
  Br  Br66  1  0.65467748  0.39380269  0.73927699  1.0
  Br  Br67  1  0.32213993  0.56240424  0.26794499  1.0
  N  N68  1  0.28518720  0.47873577  0.48328758  1.0
  N  N69  1  0.71837367  0.51606455  0.52304109  1.0
  N  N70  1  0.53348641  0.01812723  0.49646322  1.0
  N  N71  1  0.46537575  0.98086199  0.49221066  1.0
  N  N72  1  0.68028066  0.26632896  0.51072545  1.0
  N  N73  1  0.67732800  0.10282198  0.49340480  1.0
  N  N74  1  0.33455333  0.73414423  0.52866721  1.0
  N  N75  1  0.61991793  0.74621680  0.45374502  1.0
  O  O76  1  0.56733475  0.48892153  0.61714860  1.0
  O  O77  1  0.43032976  0.50934819  0.61092958  1.0
  O  O78  1  0.41595380  0.61053270  0.47742336  1.0
  O  O79  1  0.55347156  0.62362775  0.51949214  1.0
  O  O80  1  0.43835461  0.47710122  0.38678612  1.0
  O  O81  1  0.57081161  0.52143379  0.39334621  1.0
  O  O82  1  0.58231158  0.38796745  0.48995522  1.0
  O  O83  1  0.45160021  0.37576601  0.52025969  1.0
  O  O84  1  0.70836042  0.29342863  0.57397016  1.0
  O  O85  1  0.71372820  0.26825851  0.45143152  1.0
  O  O86  1  0.68230444  0.06813600  0.43271580  1.0
  O  O87  1  0.73062373  0.10742837  0.55031535  1.0
  O  O88  1  0.34330438  0.70083716  0.59140301  1.0
  O  O89  1  0.26949925  0.73873460  0.48445267  1.0
  O  O90  1  0.61082304  0.70992347  0.39237958  1.0
  O  O91  1  0.68550613  0.75901073  0.49604374  1.0
