# generated using pymatgen
data_Zn3H23C49Cl11O12
_symmetry_space_group_name_H-M   'P 1'
_cell_length_a   21.05791595
_cell_length_b   21.14957055
_cell_length_c   21.32167926
_cell_angle_alpha   60.77238947
_cell_angle_beta   61.28242698
_cell_angle_gamma   89.79865156
_symmetry_Int_Tables_number   1
_chemical_formula_structural   Zn3H23C49Cl11O12
_chemical_formula_sum   'Zn6 H46 C98 Cl22 O24'
_cell_volume   6928.43787341
_cell_formula_units_Z   2
loop_
 _symmetry_equiv_pos_site_id
 _symmetry_equiv_pos_as_xyz
  1  'x, y, z'
loop_
 _atom_site_type_symbol
 _atom_site_label
 _atom_site_symmetry_multiplicity
 _atom_site_fract_x
 _atom_site_fract_y
 _atom_site_fract_z
 _atom_site_occupancy
  Zn  Zn0  1  0.42071381  0.00249032  0.08121072  1.0
  Zn  Zn1  1  0.54999749  0.54381327  0.50152623  1.0
  Zn  Zn2  1  0.46271351  0.45589752  0.49531598  1.0
  Zn  Zn3  1  0.00047515  0.57312584  0.92381674  1.0
  Zn  Zn4  1  0.53872783  0.00065158  0.95282882  1.0
  Zn  Zn5  1  0.00833678  0.45135766  0.04273459  1.0
  H  H6  1  0.61107843  0.92286033  0.08912609  1.0
  H  H7  1  0.30789302  0.56142215  0.90321378  1.0
  H  H8  1  0.24781513  0.49147413  0.01434325  1.0
  H  H9  1  0.47757376  0.79923827  0.04454850  1.0
  H  H10  1  0.46450034  0.71370725  0.05051050  1.0
  H  H11  1  0.52431542  0.80002509  0.94951172  1.0
  H  H12  1  0.21142510  0.52178353  0.94842780  1.0
  H  H13  1  0.08534388  0.38740029  0.90169071  1.0
  H  H14  1  0.99913471  0.41278925  0.88199332  1.0
  H  H15  1  0.98415358  0.40530310  0.81097670  1.0
  H  H16  1  0.97364247  0.48485591  0.81864034  1.0
  H  H17  1  0.57568755  0.00485948  0.12877430  1.0
  H  H18  1  0.57951901  0.03174821  0.19358755  1.0
  H  H19  1  0.50576399  0.04223930  0.17465669  1.0
  H  H20  1  0.73409038  0.24182795  0.22272685  1.0
  H  H21  1  0.82224944  0.30953342  0.16573564  1.0
  H  H22  1  0.73920187  0.33815427  0.18397466  1.0
  H  H23  1  0.79288948  0.23965060  0.77754374  1.0
  H  H24  1  0.72575342  0.15019361  0.83688039  1.0
  H  H25  1  0.70259274  0.23486614  0.79218185  1.0
  H  H26  1  0.27826052  0.01245554  0.93051923  1.0
  H  H27  1  0.35094403  0.97722085  0.94052813  1.0
  H  H28  1  0.32289486  0.04589048  0.96502175  1.0
  H  H29  1  0.02612192  0.62590217  0.13275265  1.0
  H  H30  1  0.01940776  0.54491421  0.12930785  1.0
  H  H31  1  0.62545881  0.67076581  0.27285378  1.0
  H  H32  1  0.98410417  0.61790628  0.08167831  1.0
  H  H33  1  0.29316947  0.99470817  0.83059300  1.0
  H  H34  1  0.36898092  0.00230893  0.73760952  1.0
  H  H35  1  0.36687386  0.95696110  0.83451880  1.0
  H  H36  1  0.34449715  0.38595790  0.72156125  1.0
  H  H37  1  0.01935763  0.59966983  0.24705105  1.0
  H  H38  1  0.98356835  0.51242917  0.34717252  1.0
  H  H39  1  0.02938018  0.51556162  0.25014968  1.0
  H  H40  1  0.13631142  0.79892167  0.89018004  1.0
  H  H41  1  0.14790734  0.73954522  0.85140432  1.0
  H  H42  1  0.06125888  0.71656978  0.94402876  1.0
  H  H43  1  0.18437099  0.81781714  0.16277074  1.0
  H  H44  1  0.26314813  0.82908791  0.17058152  1.0
  H  H45  1  0.25124878  0.90894550  0.09960018  1.0
  H  H46  1  0.08640116  0.84169342  0.97246060  1.0
  H  H47  1  0.04693141  0.74219648  0.03337699  1.0
  H  H48  1  0.04623505  0.78761246  0.08412723  1.0
  H  H49  1  0.10693973  0.84308660  0.11937707  1.0
  H  H50  1  0.19756265  0.91103403  0.04022515  1.0
  H  H51  1  0.13561328  0.89906667  0.01090813  1.0
  C  C52  1  0.46723985  0.88840978  0.15364957  1.0
  C  C53  1  0.18876914  0.81061427  0.03654843  1.0
  C  C54  1  0.91438090  0.54700316  0.22100812  1.0
  C  C55  1  0.39719335  0.07950596  0.76585835  1.0
  C  C56  1  0.91580574  0.52480880  0.29361951  1.0
  C  C57  1  0.44723318  0.13943894  0.67806844  1.0
  C  C58  1  0.84619640  0.48782459  0.37495628  1.0
  C  C59  1  0.47765821  0.21176791  0.65422137  1.0
  C  C60  1  0.15574245  0.77681611  0.01360659  1.0
  C  C61  1  0.77696876  0.48023922  0.38226913  1.0
  C  C62  1  0.45937166  0.22671659  0.71843162  1.0
  C  C63  1  0.77448489  0.51098066  0.30738318  1.0
  C  C64  1  0.42512184  0.16239643  0.80458434  1.0
  C  C65  1  0.84413714  0.53552084  0.22748618  1.0
  C  C66  1  0.43208595  0.17274789  0.86313714  1.0
  C  C67  1  0.83927982  0.54598654  0.15795113  1.0
  C  C68  1  0.45369853  0.24491921  0.84327202  1.0
  C  C69  1  0.77072975  0.54495741  0.16390267  1.0
  C  C70  1  0.46646436  0.30957923  0.76575913  1.0
  C  C71  1  0.39064554  0.68760210  0.97490110  1.0
  C  C72  1  0.70547525  0.53728869  0.23679864  1.0
  C  C73  1  0.59249251  0.08831539  0.98369102  1.0
  C  C74  1  0.91155360  0.40811752  0.01229535  1.0
  C  C75  1  0.47290657  0.30138195  0.70218948  1.0
  C  C76  1  0.70627107  0.51823970  0.30855870  1.0
  C  C77  1  0.34723069  0.63946654  0.97396630  1.0
  C  C78  1  0.63672589  0.51339536  0.38270359  1.0
  C  C79  1  0.48280877  0.36918228  0.62291309  1.0
  C  C80  1  0.48504546  0.60146691  0.38538688  1.0
  C  C81  1  0.40608584  0.52606064  0.60710662  1.0
  C  C82  1  0.23207582  0.60437730  0.97325641  1.0
  C  C83  1  0.40166825  0.78479923  0.00875947  1.0
  C  C84  1  0.17164933  0.62789458  0.96657369  1.0
  C  C85  1  0.36696728  0.83351210  0.03221331  1.0
  C  C86  1  0.15857151  0.69626619  0.95806046  1.0
  C  C87  1  0.29030081  0.82910735  0.06065946  1.0
  C  C88  1  0.18838407  0.72699793  0.98790455  1.0
  C  C89  1  0.25616270  0.79614896  0.03568629  1.0
  C  C90  1  0.25192026  0.70723828  0.99265685  1.0
  C  C91  1  0.29068022  0.74830521  0.00784085  1.0
  C  C92  1  0.25043357  0.54106997  0.95985816  1.0
  C  C93  1  0.61221668  0.86722456  0.13104295  1.0
  C  C94  1  0.47118256  0.77439654  0.01258151  1.0
  C  C95  1  0.96360763  0.42324370  0.85572952  1.0
  C  C96  1  0.56639244  0.04737449  0.14498646  1.0
  C  C97  1  0.76949332  0.30012461  0.16887841  1.0
  C  C98  1  0.73264097  0.20743750  0.82356674  1.0
  C  C99  1  0.14262253  0.38924991  0.86069472  1.0
  C  C100  1  0.33322865  0.02878479  0.92101517  1.0
  C  C101  1  0.98932990  0.58572936  0.13671421  1.0
  C  C102  1  0.35493603  0.00467091  0.79274259  1.0
  C  C103  1  0.99061067  0.53836479  0.28469748  1.0
  C  C104  1  0.12304956  0.73984886  0.90970350  1.0
  C  C105  1  0.24464396  0.84820069  0.12594222  1.0
  C  C106  1  0.08039790  0.78752598  0.02586287  1.0
  C  C107  1  0.15591075  0.86864392  0.05295445  1.0
  C  C108  1  0.11314173  0.53138724  0.84129780  1.0
  C  C109  1  0.68202075  0.85719514  0.11447659  1.0
  C  C110  1  0.15693257  0.32093088  0.87751342  1.0
  C  C111  1  0.68646967  0.78452960  0.16561702  1.0
  C  C112  1  0.23163262  0.31998372  0.82776186  1.0
  C  C113  1  0.62067520  0.72524284  0.23347892  1.0
  C  C114  1  0.28833784  0.38783374  0.76043268  1.0
  C  C115  1  0.54821156  0.73448052  0.25258090  1.0
  C  C116  1  0.27452503  0.45874816  0.74089040  1.0
  C  C117  1  0.54369015  0.80666167  0.19897606  1.0
  C  C118  1  0.20046961  0.45991587  0.79386539  1.0
  C  C119  1  0.47059450  0.81542878  0.21610693  1.0
  C  C120  1  0.18736564  0.53169677  0.77723995  1.0
  C  C121  1  0.41429795  0.89655476  0.01946956  1.0
  C  C122  1  0.11362028  0.57752948  0.97585709  1.0
  C  C123  1  0.40515255  0.75455791  0.28453013  1.0
  C  C124  1  0.27693619  0.64826789  0.97984737  1.0
  C  C125  1  0.24615701  0.59900967  0.70868954  1.0
  C  C126  1  0.40972988  0.68331944  0.33971105  1.0
  C  C127  1  0.31908066  0.59750035  0.65335010  1.0
  C  C128  1  0.47976526  0.67335615  0.32351891  1.0
  C  C129  1  0.33311348  0.52895713  0.66962514  1.0
  C  C130  1  0.36257571  0.74031558  0.99783007  1.0
  C  C131  1  0.88172219  0.37899806  0.92844526  1.0
  C  C132  1  0.61785839  0.12522996  0.06525046  1.0
  C  C133  1  0.85832411  0.36303720  0.00993722  1.0
  C  C134  1  0.64177749  0.13944305  0.98407628  1.0
  C  C135  1  0.78660212  0.31459819  0.08489953  1.0
  C  C136  1  0.70247928  0.20294189  0.90613783  1.0
  C  C137  1  0.73554671  0.27908239  0.07773111  1.0
  C  C138  1  0.73708424  0.25760150  0.90971200  1.0
  C  C139  1  0.75877566  0.29109124  0.99652568  1.0
  C  C140  1  0.71453822  0.24465144  0.99106086  1.0
  C  C141  1  0.82925278  0.34703433  0.92062829  1.0
  C  C142  1  0.65035021  0.18125679  0.06827712  1.0
  C  C143  1  0.65798414  0.23198011  0.14760173  1.0
  C  C144  1  0.79303090  0.33007452  0.83462711  1.0
  C  C145  1  0.43763824  0.10753258  0.93270137  1.0
  C  C146  1  0.90253929  0.54242527  0.08593885  1.0
  C  C147  1  0.61879704  0.18280095  0.14448574  1.0
  C  C148  1  0.83890523  0.37127223  0.83944727  1.0
  C  C149  1  0.38823378  0.09092828  0.82843600  1.0
  Cl  Cl150  1  0.32725508  0.61170331  0.42866374  1.0
  Cl  Cl151  1  0.89822277  0.46088184  0.75002750  1.0
  Cl  Cl152  1  0.52430667  0.13417236  0.22625098  1.0
  Cl  Cl153  1  0.47000901  0.25844217  0.90821626  1.0
  Cl  Cl154  1  0.76047158  0.54787532  0.08723235  1.0
  Cl  Cl155  1  0.47048733  0.12297996  0.59901168  1.0
  Cl  Cl156  1  0.84667490  0.45154553  0.46696359  1.0
  Cl  Cl157  1  0.38824703  0.68166554  0.56419556  1.0
  Cl  Cl158  1  0.54357147  0.28021769  0.54758327  1.0
  Cl  Cl159  1  0.69508178  0.42755778  0.48311250  1.0
  Cl  Cl160  1  0.47047676  0.39485957  0.75706778  1.0
  Cl  Cl161  1  0.62733896  0.55367449  0.23197854  1.0
  Cl  Cl162  1  0.48289068  0.68507872  0.94155850  1.0
  Cl  Cl163  1  0.38338531  0.56948658  0.96267159  1.0
  Cl  Cl164  1  0.31720106  0.76104744  0.30281187  1.0
  Cl  Cl165  1  0.23558529  0.68588682  0.68999325  1.0
  Cl  Cl166  1  0.76298920  0.93325732  0.03136229  1.0
  Cl  Cl167  1  0.08355500  0.23749668  0.95935962  1.0
  Cl  Cl168  1  0.77299507  0.76936629  0.14385839  1.0
  Cl  Cl169  1  0.25215074  0.23550777  0.85005369  1.0
  Cl  Cl170  1  0.60878654  0.24553857  0.22998619  1.0
  Cl  Cl171  1  0.79344925  0.37277006  0.74156173  1.0
  O  O172  1  0.41961162  0.92096854  0.18126130  1.0
  O  O173  1  0.46965113  0.55536364  0.59082308  1.0
  O  O174  1  0.45545018  0.53764366  0.40271204  1.0
  O  O175  1  0.51993303  0.61099474  0.41611372  1.0
  O  O176  1  0.39734798  0.49248469  0.57504617  1.0
  O  O177  1  0.51328635  0.91301300  0.07511807  1.0
  O  O178  1  0.08870020  0.48097129  0.91929459  1.0
  O  O179  1  0.07928468  0.57953934  0.81728664  1.0
  O  O180  1  0.38447586  0.92186674  0.06680312  1.0
  O  O181  1  0.08800866  0.60768157  0.92853580  1.0
  O  O182  1  0.48384450  0.92655487  0.95376190  1.0
  O  O183  1  0.08772606  0.50630465  0.03751664  1.0
  O  O184  1  0.39092490  0.08257282  0.01217465  1.0
  O  O185  1  0.92856063  0.59598368  0.00772922  1.0
  O  O186  1  0.49304350  0.08375341  0.90337300  1.0
  O  O187  1  0.92286503  0.48278923  0.11041778  1.0
  O  O188  1  0.52153508  0.07667884  0.03002098  1.0
  O  O189  1  0.92262113  0.47951315  0.96984899  1.0
  O  O190  1  0.62125026  0.06066087  0.93745306  1.0
  O  O191  1  0.94194789  0.37481673  0.05472878  1.0
  O  O192  1  0.57430991  0.46720278  0.41702183  1.0
  O  O193  1  0.53201109  0.43088295  0.58513117  1.0
  O  O194  1  0.64593024  0.55972987  0.40238853  1.0
  O  O195  1  0.43797823  0.36066677  0.60076378  1.0
