# generated using pymatgen
data_ZnH11C19SNO8
_symmetry_space_group_name_H-M   'P 1'
_cell_length_a   12.76371501
_cell_length_b   16.41197467
_cell_length_c   17.72135920
_cell_angle_alpha   95.01434579
_cell_angle_beta   90.08862734
_cell_angle_gamma   91.95236320
_symmetry_Int_Tables_number   1
_chemical_formula_structural   ZnH11C19SNO8
_chemical_formula_sum   'Zn2 H22 C38 S2 N2 O16'
_cell_volume   3695.83859958
_cell_formula_units_Z   2
loop_
 _symmetry_equiv_pos_site_id
 _symmetry_equiv_pos_as_xyz
  1  'x, y, z'
loop_
 _atom_site_type_symbol
 _atom_site_label
 _atom_site_symmetry_multiplicity
 _atom_site_fract_x
 _atom_site_fract_y
 _atom_site_fract_z
 _atom_site_occupancy
  Zn  Zn0  1  0.49836951  0.41339260  0.49873876  1.0
  Zn  Zn1  1  0.49986492  0.58647857  0.50403522  1.0
  H  H2  1  0.39013703  0.71462206  0.42658068  1.0
  H  H3  1  0.39625470  0.86530154  0.42726270  1.0
  H  H4  1  0.64484610  0.86661465  0.59635451  1.0
  H  H5  1  0.62861267  0.71865942  0.58516345  1.0
  H  H6  1  0.35839418  0.13349176  0.40205359  1.0
  H  H7  1  0.60428424  0.13425701  0.57324186  1.0
  H  H8  1  0.60820780  0.28509141  0.57596605  1.0
  H  H9  1  0.37285929  0.28115762  0.41451109  1.0
  H  H10  1  0.50832705  0.61657909  0.26573438  1.0
  H  H11  1  0.50678916  0.61034885  0.12655884  1.0
  H  H12  1  0.49131687  0.34478968  0.12046294  1.0
  H  H13  1  0.48918802  0.35477156  0.25686038  1.0
  H  H14  1  0.50537147  0.65492187  0.88228214  1.0
  H  H15  1  0.49750184  0.38947130  0.87696339  1.0
  H  H16  1  0.49852857  0.38268748  0.73782950  1.0
  H  H17  1  0.50336602  0.64444763  0.74580437  1.0
  H  H18  1  0.64335862  0.96629294  0.58960176  1.0
  H  H19  1  0.35955317  0.03360564  0.40888187  1.0
  H  H20  1  0.49159743  0.35287419  0.03162874  1.0
  H  H21  1  0.50831366  0.64724148  0.97157746  1.0
  H  H22  1  0.04097905  0.33221150  0.56820014  1.0
  H  H23  1  0.96947370  0.67468843  0.58233715  1.0
  C  C24  1  0.49807809  0.49064510  0.35514309  1.0
  C  C25  1  0.29417611  0.49567422  0.49695445  1.0
  C  C26  1  0.50047265  0.50811921  0.64784271  1.0
  C  C27  1  0.70373291  0.50523346  0.49991103  1.0
  C  C28  1  0.44520982  0.75194273  0.46319416  1.0
  C  C29  1  0.44889760  0.83655009  0.46399556  1.0
  C  C30  1  0.52014932  0.88387937  0.51249984  1.0
  C  C31  1  0.58550130  0.83872967  0.55678211  1.0
  C  C32  1  0.57764442  0.75403093  0.55211985  1.0
  C  C33  1  0.52973102  0.97352724  0.51918975  1.0
  C  C34  1  0.47223736  0.02624338  0.48004548  1.0
  C  C35  1  0.41694197  0.16117819  0.44238610  1.0
  C  C36  1  0.48172745  0.11592956  0.48695510  1.0
  C  C37  1  0.55198900  0.16312088  0.53636922  1.0
  C  C38  1  0.55461273  0.24777387  0.53817051  1.0
  C  C39  1  0.42383933  0.24599387  0.44777099  1.0
  C  C40  1  0.49815640  0.48625677  0.27070258  1.0
  C  C41  1  0.50367926  0.55745447  0.23248252  1.0
  C  C42  1  0.50324872  0.55381698  0.15388199  1.0
  C  C43  1  0.49867209  0.47785486  0.10902450  1.0
  C  C44  1  0.49417236  0.40669808  0.14916009  1.0
  C  C45  1  0.49320733  0.41055164  0.22771546  1.0
  C  C46  1  0.49868696  0.46914792  0.02579379  1.0
  C  C47  1  0.50196325  0.53087142  0.97735927  1.0
  C  C48  1  0.50373127  0.59296701  0.85374204  1.0
  C  C49  1  0.50177063  0.52198105  0.89415943  1.0
  C  C50  1  0.49964914  0.44589624  0.84946805  1.0
  C  C51  1  0.50012201  0.44197113  0.77087054  1.0
  C  C52  1  0.50145936  0.51297320  0.73232590  1.0
  C  C53  1  0.50293197  0.58879127  0.77516044  1.0
  C  C54  1  0.10551618  0.42893428  0.48779847  1.0
  C  C55  1  0.89233535  0.57208623  0.49650099  1.0
  C  C56  1  0.17791220  0.49421552  0.49148298  1.0
  C  C57  1  0.81992552  0.50674029  0.49384604  1.0
  C  C58  1  0.99651274  0.54330694  0.49471268  1.0
  C  C59  1  0.00126160  0.45756023  0.49021283  1.0
  C  C60  1  0.12912989  0.33999851  0.48030021  1.0
  C  C61  1  0.86866165  0.66090296  0.49967987  1.0
  S  S62  1  0.12056066  0.58878207  0.49528756  1.0
  S  S63  1  0.87719518  0.41204082  0.48713164  1.0
  N  N64  1  0.50775223  0.71084409  0.50662475  1.0
  N  N65  1  0.49222636  0.28901127  0.49473971  1.0
  O  O66  1  0.47843156  0.42429235  0.38577043  1.0
  O  O67  1  0.51786732  0.56051033  0.39056421  1.0
  O  O68  1  0.33903267  0.56466153  0.48735011  1.0
  O  O69  1  0.33685613  0.43046199  0.51185908  1.0
  O  O70  1  0.48210058  0.57364198  0.61705625  1.0
  O  O71  1  0.51784573  0.43869556  0.61268181  1.0
  O  O72  1  0.65918254  0.43500275  0.48440747  1.0
  O  O73  1  0.66054835  0.57170960  0.52066064  1.0
  O  O74  1  0.60270422  0.00893823  0.57004912  1.0
  O  O75  1  0.39910197  0.99088553  0.42937590  1.0
  O  O76  1  0.49492688  0.39014617  0.99189257  1.0
  O  O77  1  0.50542189  0.60991152  0.01125080  1.0
  O  O78  1  0.07784792  0.29530689  0.53175488  1.0
  O  O79  1  0.18322560  0.30585299  0.43191530  1.0
  O  O80  1  0.92680912  0.70916754  0.55303876  1.0
  O  O81  1  0.80834279  0.69217948  0.45901601  1.0
