# generated using pymatgen
data_CuH6C16(NO2)2
_symmetry_space_group_name_H-M   'P 1'
_cell_length_a   12.28970169
_cell_length_b   25.84481693
_cell_length_c   25.84464506
_cell_angle_alpha   117.54780372
_cell_angle_beta   99.11616054
_cell_angle_gamma   99.11460839
_symmetry_Int_Tables_number   1
_chemical_formula_structural   CuH6C16(NO2)2
_chemical_formula_sum   'Cu6 H36 C96 N12 O24'
_cell_volume   6930.05679947
_cell_formula_units_Z   6
loop_
 _symmetry_equiv_pos_site_id
 _symmetry_equiv_pos_as_xyz
  1  'x, y, z'
loop_
 _atom_site_type_symbol
 _atom_site_label
 _atom_site_symmetry_multiplicity
 _atom_site_fract_x
 _atom_site_fract_y
 _atom_site_fract_z
 _atom_site_occupancy
  Cu  Cu0  1  0.05056578  0.99998973  0.46240860  1.0
  Cu  Cu1  1  0.05062050  0.46238524  0.99997254  1.0
  Cu  Cu2  1  0.58822507  0.53759899  0.53758409  1.0
  Cu  Cu3  1  0.41184899  0.46241937  0.46240578  1.0
  Cu  Cu4  1  0.94941758  0.53757759  0.99998186  1.0
  Cu  Cu5  1  0.94936924  0.99999566  0.53760096  1.0
  H  H6  1  0.19163947  0.13193018  0.70500123  1.0
  H  H7  1  0.36378990  0.13617696  0.57407200  1.0
  H  H8  1  0.05970072  0.57301288  0.86808013  1.0
  H  H9  1  0.22767438  0.43783859  0.86375896  1.0
  H  H10  1  0.48672437  0.29507221  0.42700346  1.0
  H  H11  1  0.78984570  0.42593589  0.56215523  1.0
  H  H12  1  0.51335310  0.57301610  0.70495362  1.0
  H  H13  1  0.21024000  0.43786433  0.57406151  1.0
  H  H14  1  0.80835353  0.29501711  0.86805582  1.0
  H  H15  1  0.63617718  0.42593194  0.86379353  1.0
  H  H16  1  0.94027365  0.13188677  0.42696995  1.0
  H  H17  1  0.77230342  0.13620834  0.56214795  1.0
  H  H18  1  0.80832594  0.86807370  0.29502444  1.0
  H  H19  1  0.63612750  0.86380339  0.42593026  1.0
  H  H20  1  0.94032308  0.42694620  0.13189247  1.0
  H  H21  1  0.77236772  0.56211912  0.13618073  1.0
  H  H22  1  0.51329690  0.70493620  0.57298905  1.0
  H  H23  1  0.21018445  0.57406392  0.43783668  1.0
  H  H24  1  0.48671514  0.42701539  0.29505542  1.0
  H  H25  1  0.78983667  0.56217077  0.42592198  1.0
  H  H26  1  0.19164419  0.70495736  0.13190064  1.0
  H  H27  1  0.36384515  0.57405384  0.13617660  1.0
  H  H28  1  0.05969793  0.86809811  0.57302959  1.0
  H  H29  1  0.22766642  0.86379283  0.43785745  1.0
  H  H30  1  0.52752796  0.21853460  0.65756241  1.0
  H  H31  1  0.30902581  0.43901432  0.78140933  1.0
  H  H32  1  0.87001673  0.34240937  0.56097801  1.0
  H  H33  1  0.13003949  0.43903546  0.65757687  1.0
  H  H34  1  0.47243240  0.34243090  0.78144901  1.0
  H  H35  1  0.69098657  0.21857257  0.56098721  1.0
  H  H36  1  0.47241318  0.78144213  0.34242333  1.0
  H  H37  1  0.69101542  0.56097462  0.21854279  1.0
  H  H38  1  0.12998523  0.65758682  0.43902596  1.0
  H  H39  1  0.87001777  0.56097565  0.34239252  1.0
  H  H40  1  0.52756004  0.65755940  0.21854495  1.0
  H  H41  1  0.30900809  0.78143539  0.43901740  1.0
  C  C42  1  0.26797436  0.12955153  0.63462119  1.0
  C  C43  1  0.26503991  0.15109022  0.69476869  1.0
  C  C44  1  0.35652972  0.19740306  0.74162347  1.0
  C  C45  1  0.45177780  0.22226540  0.72825537  1.0
  C  C46  1  0.45360580  0.19962981  0.66779230  1.0
  C  C47  1  0.36270723  0.15371836  0.62121068  1.0
  C  C48  1  0.16906171  0.08118331  0.58462203  1.0
  C  C49  1  0.35367400  0.22022662  0.80325662  1.0
  C  C50  1  0.13845637  0.50501783  0.87043081  1.0
  C  C51  1  0.11393499  0.54361258  0.84889784  1.0
  C  C52  1  0.15912367  0.54419561  0.80260532  1.0
  C  C53  1  0.22952984  0.50597388  0.77771766  1.0
  C  C54  1  0.25399150  0.46813949  0.80033089  1.0
  C  C55  1  0.20902250  0.46744146  0.84624092  1.0
  C  C56  1  0.08796067  0.50341437  0.91881468  1.0
  C  C57  1  0.13350637  0.58305410  0.77985323  1.0
  C  C58  1  0.63343757  0.36542662  0.49501222  1.0
  C  C59  1  0.57033608  0.30528982  0.45641274  1.0
  C  C60  1  0.61491776  0.25841151  0.45583291  1.0
  C  C61  1  0.72353667  0.27174510  0.49404345  1.0
  C  C62  1  0.78585702  0.33220222  0.53186300  1.0
  C  C63  1  0.74159389  0.37880811  0.53256536  1.0
  C  C64  1  0.58461879  0.41543622  0.49661530  1.0
  C  C65  1  0.55043264  0.19679681  0.41696919  1.0
  C  C66  1  0.36664170  0.50500911  0.63458545  1.0
  C  C67  1  0.42973536  0.54360959  0.69472578  1.0
  C  C68  1  0.38513179  0.54418550  0.74159868  1.0
  C  C69  1  0.27650432  0.50597183  0.72825057  1.0
  C  C70  1  0.21420125  0.46815053  0.66779114  1.0
  C  C71  1  0.25848352  0.46745338  0.62119468  1.0
  C  C72  1  0.41547683  0.50340771  0.58458289  1.0
  C  C73  1  0.44958347  0.58304492  0.80322188  1.0
  C  C74  1  0.73200357  0.36539013  0.87043140  1.0
  C  C75  1  0.73494205  0.30524424  0.84889482  1.0
  C  C76  1  0.64345281  0.25838482  0.80258909  1.0
  C  C77  1  0.54818600  0.27174507  0.77772995  1.0
  C  C78  1  0.54635272  0.33220734  0.80035679  1.0
  C  C79  1  0.63725923  0.37879750  0.84626496  1.0
  C  C80  1  0.83090278  0.41538951  0.91879208  1.0
  C  C81  1  0.64632316  0.19675814  0.77977618  1.0
  C  C82  1  0.86151801  0.12953324  0.49496623  1.0
  C  C83  1  0.88604359  0.15107296  0.45637540  1.0
  C  C84  1  0.84087802  0.19737375  0.45580218  1.0
  C  C85  1  0.77048940  0.22226972  0.49403302  1.0
  C  C86  1  0.74600755  0.19964658  0.53185890  1.0
  C  C87  1  0.79096028  0.15372774  0.53254658  1.0
  C  C88  1  0.91201521  0.08114892  0.49656983  1.0
  C  C89  1  0.86650154  0.22013249  0.41695050  1.0
  C  C90  1  0.73196639  0.87044421  0.36539381  1.0
  C  C91  1  0.73491530  0.84890642  0.30524976  1.0
  C  C92  1  0.64344295  0.80259223  0.25838561  1.0
  C  C93  1  0.54818241  0.77772310  0.27174267  1.0
  C  C94  1  0.54633964  0.80035552  0.33220471  1.0
  C  C95  1  0.63722436  0.84627059  0.37879662  1.0
  C  C96  1  0.83085690  0.91880610  0.41539882  1.0
  C  C97  1  0.64632500  0.77978179  0.19676051  1.0
  C  C98  1  0.86157892  0.49494441  0.12952671  1.0
  C  C99  1  0.88609529  0.45635283  0.15106773  1.0
  C  C100  1  0.84090494  0.45578790  0.19736966  1.0
  C  C101  1  0.77050990  0.49401868  0.22225421  1.0
  C  C102  1  0.74604545  0.53184583  0.19962814  1.0
  C  C103  1  0.79102241  0.53252847  0.15371508  1.0
  C  C104  1  0.91207549  0.49653973  0.08113759  1.0
  C  C105  1  0.86649857  0.41693485  0.22013562  1.0
  C  C106  1  0.36659081  0.63457953  0.50497861  1.0
  C  C107  1  0.42968323  0.69471632  0.54358128  1.0
  C  C108  1  0.38509076  0.74159282  0.54416294  1.0
  C  C109  1  0.27646592  0.72825562  0.50595608  1.0
  C  C110  1  0.21415208  0.66779668  0.46813657  1.0
  C  C111  1  0.25842938  0.62119441  0.46742806  1.0
  C  C112  1  0.41543479  0.58457580  0.50337396  1.0
  C  C113  1  0.44957417  0.80321069  0.58303071  1.0
  C  C114  1  0.63343030  0.49502327  0.36540959  1.0
  C  C115  1  0.57033528  0.45642009  0.30527564  1.0
  C  C116  1  0.61491813  0.45583240  0.25839303  1.0
  C  C117  1  0.72354438  0.49403703  0.27173029  1.0
  C  C118  1  0.78586268  0.53186240  0.33218733  1.0
  C  C119  1  0.74158855  0.53257584  0.37879426  1.0
  C  C120  1  0.58461204  0.49662875  0.41541995  1.0
  C  C121  1  0.55043392  0.41696891  0.19677632  1.0
  C  C122  1  0.26800764  0.63458660  0.12953254  1.0
  C  C123  1  0.26505913  0.69473385  0.15107248  1.0
  C  C124  1  0.35652770  0.74159644  0.19738739  1.0
  C  C125  1  0.45178596  0.72823890  0.22225953  1.0
  C  C126  1  0.45363476  0.66777798  0.19962868  1.0
  C  C127  1  0.36274954  0.62118919  0.15371423  1.0
  C  C128  1  0.16911600  0.58458586  0.08116639  1.0
  C  C129  1  0.35364820  0.80322131  0.22019762  1.0
  C  C130  1  0.13845097  0.87045798  0.50503527  1.0
  C  C131  1  0.11393125  0.84892007  0.54362816  1.0
  C  C132  1  0.15911142  0.80261882  0.54419917  1.0
  C  C133  1  0.22950449  0.77773009  0.50596853  1.0
  C  C134  1  0.25398178  0.80035731  0.46814536  1.0
  C  C135  1  0.20901435  0.84626981  0.46745634  1.0
  C  C136  1  0.08793781  0.91884003  0.50343329  1.0
  C  C137  1  0.13349810  0.77986235  0.58305344  1.0
  N  N138  1  0.35204430  0.23983962  0.85382987  1.0
  N  N139  1  0.11228884  0.61401759  0.76024309  1.0
  N  N140  1  0.49821586  0.14622219  0.38597891  1.0
  N  N141  1  0.50175577  0.61402659  0.85380401  1.0
  N  N142  1  0.64798885  0.14618925  0.76017531  1.0
  N  N143  1  0.88772495  0.23973730  0.38598199  1.0
  N  N144  1  0.64799956  0.76018598  0.14619280  1.0
  N  N145  1  0.88768555  0.38597951  0.23975690  1.0
  N  N146  1  0.50178223  0.85377943  0.61401992  1.0
  N  N147  1  0.49822347  0.38598181  0.14620196  1.0
  N  N148  1  0.35197899  0.85378975  0.23980188  1.0
  N  N149  1  0.11228241  0.76025980  0.61402320  1.0
  O  O150  1  0.17783647  0.06280818  0.53066104  1.0
  O  O151  1  0.08403464  0.06277871  0.60017660  1.0
  O  O152  1  0.11512240  0.46783884  0.93718871  1.0
  O  O153  1  0.02133899  0.53739057  0.93723010  1.0
  O  O154  1  0.64739078  0.46938264  0.53215344  1.0
  O  O155  1  0.48400584  0.39988405  0.46265150  1.0
  O  O156  1  0.35269736  0.46785836  0.53062759  1.0
  O  O157  1  0.51607010  0.53736057  0.60012758  1.0
  O  O158  1  0.82213016  0.46934615  0.93716325  1.0
  O  O159  1  0.91594490  0.39983244  0.93719907  1.0
  O  O160  1  0.88486303  0.06277890  0.53214678  1.0
  O  O161  1  0.97863705  0.06273460  0.46259193  1.0
  O  O162  1  0.82208087  0.93718032  0.46935427  1.0
  O  O163  1  0.91590892  0.93721114  0.39984170  1.0
  O  O164  1  0.88492530  0.53211526  0.06276482  1.0
  O  O165  1  0.97870715  0.46256534  0.06272415  1.0
  O  O166  1  0.35265910  0.53062033  0.46782285  1.0
  O  O167  1  0.51602825  0.60012526  0.53733234  1.0
  O  O168  1  0.64738729  0.53217131  0.46937024  1.0
  O  O169  1  0.48400749  0.46266322  0.39986933  1.0
  O  O170  1  0.17789926  0.53062740  0.06278977  1.0
  O  O171  1  0.08407830  0.60014021  0.06275886  1.0
  O  O172  1  0.11509217  0.93721277  0.46785427  1.0
  O  O173  1  0.02131482  0.93724711  0.53740389  1.0
