# generated using pymatgen
data_Zn4H2C24S4Br4O13F2
_symmetry_space_group_name_H-M   'P 1'
_cell_length_a   19.67457428
_cell_length_b   19.79002232
_cell_length_c   33.37031215
_cell_angle_alpha   78.78263575
_cell_angle_beta   79.12044915
_cell_angle_gamma   63.90584296
_symmetry_Int_Tables_number   1
_chemical_formula_structural   Zn4H2C24S4Br4O13F2
_chemical_formula_sum   'Zn16 H8 C96 S16 Br16 O52 F8'
_cell_volume   11367.02016793
_cell_formula_units_Z   4
loop_
 _symmetry_equiv_pos_site_id
 _symmetry_equiv_pos_as_xyz
  1  'x, y, z'
loop_
 _atom_site_type_symbol
 _atom_site_label
 _atom_site_symmetry_multiplicity
 _atom_site_fract_x
 _atom_site_fract_y
 _atom_site_fract_z
 _atom_site_occupancy
  Zn  Zn0  1  0.05559453  0.40086726  0.47802262  1.0
  Zn  Zn1  1  0.98551312  0.48386619  0.56012522  1.0
  Zn  Zn2  1  0.05839906  0.56166651  0.48226582  1.0
  Zn  Zn3  1  0.90000508  0.55452111  0.47946366  1.0
  Zn  Zn4  1  0.69378430  0.34918929  0.27196357  1.0
  Zn  Zn5  1  0.69079696  0.18851486  0.26624482  1.0
  Zn  Zn6  1  0.76896557  0.26600809  0.18970209  1.0
  Zn  Zn7  1  0.84748839  0.19590124  0.27198063  1.0
  Zn  Zn8  1  0.26470763  0.76582215  0.69004870  1.0
  Zn  Zn9  1  0.34932739  0.69726939  0.77143295  1.0
  Zn  Zn10  1  0.19223432  0.84947868  0.77129169  1.0
  Zn  Zn11  1  0.19147624  0.68811607  0.76778599  1.0
  Zn  Zn12  1  0.55856829  0.06198234  0.98382100  1.0
  Zn  Zn13  1  0.40275099  0.05232439  0.97713137  1.0
  Zn  Zn14  1  0.55757274  0.90029967  0.97903943  1.0
  Zn  Zn15  1  0.48130868  0.98395319  0.06029994  1.0
  H  H16  1  0.74849730  0.45157282  0.34973164  1.0
  H  H17  1  0.00088696  0.29952107  0.40009717  1.0
  H  H18  1  0.20094850  0.70030302  0.59965428  1.0
  H  H19  1  0.04926718  0.54990866  0.65016199  1.0
  H  H20  1  0.64994280  0.15088290  0.04920020  1.0
  H  H21  1  0.60053941  0.09904903  0.20070243  1.0
  H  H22  1  0.30016194  0.99979436  0.89984584  1.0
  H  H23  1  0.45068463  0.74947102  0.84971107  1.0
  C  C24  1  0.06173231  0.31695862  0.56188474  1.0
  C  C25  1  0.07012144  0.57063601  0.56807553  1.0
  C  C26  1  0.18326510  0.43980726  0.43841355  1.0
  C  C27  1  0.93623512  0.68390905  0.43857106  1.0
  C  C28  1  0.92939005  0.43175936  0.43113172  1.0
  C  C29  1  0.81740007  0.56080761  0.56285560  1.0
  C  C30  1  0.56626659  0.30955035  0.31119529  1.0
  C  C31  1  0.68291960  0.18058565  0.17995811  1.0
  C  C32  1  0.68977739  0.43303997  0.18842410  1.0
  C  C33  1  0.93518706  0.18813144  0.18948974  1.0
  C  C34  1  0.81956990  0.31880777  0.31923633  1.0
  C  C35  1  0.81187498  0.06607779  0.31121249  1.0
  C  C36  1  0.43267268  0.68962449  0.68802883  1.0
  C  C37  1  0.31738967  0.82142708  0.81876098  1.0
  C  C38  1  0.18822579  0.93278044  0.68762317  1.0
  C  C39  1  0.06559910  0.80962371  0.81124795  1.0
  C  C40  1  0.18015004  0.67941077  0.68179129  1.0
  C  C41  1  0.31465626  0.56646864  0.81159900  1.0
  C  C42  1  0.43694487  0.18353599  0.93847249  1.0
  C  C43  1  0.43347349  0.92799494  0.93072074  1.0
  C  C44  1  0.68366930  0.94136859  0.93914516  1.0
  C  C45  1  0.56095920  0.81682359  0.06240337  1.0
  C  C46  1  0.56744861  0.06944059  0.06994766  1.0
  C  C47  1  0.31512904  0.06130700  0.05996952  1.0
  C  C48  1  0.89993816  0.40451926  0.40222874  1.0
  C  C49  1  0.84936829  0.34655016  0.34770652  1.0
  C  C50  1  0.82872376  0.44610680  0.38722221  1.0
  C  C51  1  0.92074418  0.30506904  0.36256744  1.0
  C  C52  1  0.80400444  0.41795745  0.36070964  1.0
  C  C53  1  0.94539450  0.33318592  0.38912137  1.0
  C  C54  1  0.09908383  0.59942590  0.59641092  1.0
  C  C55  1  0.15107199  0.65083119  0.65341492  1.0
  C  C56  1  0.14224968  0.64223597  0.58315997  1.0
  C  C57  1  0.10788790  0.60806224  0.66666667  1.0
  C  C58  1  0.16760719  0.66730565  0.61087043  1.0
  C  C59  1  0.08255775  0.58296162  0.63894880  1.0
  C  C60  1  0.30497973  0.45399754  0.40040809  1.0
  C  C61  1  0.44467514  0.29518313  0.34942990  1.0
  C  C62  1  0.25826773  0.41582387  0.41368278  1.0
  C  C63  1  0.49138615  0.33333333  0.33610391  1.0
  C  C64  1  0.37676892  0.33909383  0.37285492  1.0
  C  C65  1  0.37290704  0.41004552  0.37699196  1.0
  C  C66  1  0.72545817  0.57611932  0.63078325  1.0
  C  C67  1  0.52457559  0.67370375  0.62012758  1.0
  C  C68  1  0.74311057  0.58500157  0.58827131  1.0
  C  C69  1  0.50701642  0.66502035  0.66266881  1.0
  C  C70  1  0.60419299  0.64136470  0.60845533  1.0
  C  C71  1  0.64584140  0.60849146  0.64242450  1.0
  C  C72  1  0.07688601  0.22463223  0.62984751  1.0
  C  C73  1  0.17386394  0.02483212  0.61961760  1.0
  C  C74  1  0.08582119  0.24264318  0.58730588  1.0
  C  C75  1  0.16465237  0.00701056  0.66215691  1.0
  C  C76  1  0.14182349  0.10416312  0.60779155  1.0
  C  C77  1  0.10894252  0.14530025  0.64163176  1.0
  C  C78  1  0.84204940  0.80164411  0.39674897  1.0
  C  C79  1  0.90605764  0.94837786  0.35296934  1.0
  C  C80  1  0.91027034  0.75851047  0.41357237  1.0
  C  C81  1  0.83779634  0.99139106  0.33614178  1.0
  C  C82  1  0.90775818  0.87908929  0.37501404  1.0
  C  C83  1  0.84058851  0.87074072  0.37458710  1.0
  C  C84  1  0.65420369  0.15275474  0.15097342  1.0
  C  C85  1  0.59634295  0.09709068  0.09892728  1.0
  C  C86  1  0.66704799  0.16635979  0.10782764  1.0
  C  C87  1  0.58346672  0.08351385  0.14207401  1.0
  C  C88  1  0.63894667  0.13930808  0.08246224  1.0
  C  C89  1  0.61159770  0.11055281  0.16743011  1.0
  C  C90  1  0.67364657  0.52498428  0.12039615  1.0
  C  C91  1  0.57628164  0.72487874  0.13045420  1.0
  C  C92  1  0.66497320  0.50725934  0.16296098  1.0
  C  C93  1  0.58520844  0.74265770  0.08790650  1.0
  C  C94  1  0.60856753  0.64557100  0.14230793  1.0
  C  C95  1  0.64135102  0.60430034  0.10852996  1.0
  C  C96  1  0.08282422  0.12345084  0.17767439  1.0
  C  C97  1  0.16749704  0.12654329  0.07190741  1.0
  C  C98  1  0.01037273  0.16272766  0.16509323  1.0
  C  C99  1  0.23996183  0.08721768  0.08441641  1.0
  C  C100  1  0.11017901  0.13975578  0.10586278  1.0
  C  C101  1  0.14014854  0.11023484  0.14370855  1.0
  C  C102  1  0.34554272  0.85030477  0.84749466  1.0
  C  C103  1  0.40530834  0.89892124  0.90209578  1.0
  C  C104  1  0.30441701  0.92100925  0.86234939  1.0
  C  C105  1  0.44640327  0.82824451  0.88724162  1.0
  C  C106  1  0.33342839  0.94472063  0.88892429  1.0
  C  C107  1  0.41739817  0.80451303  0.86066647  1.0
  C  C108  1  0.40863037  0.44788613  0.85327989  1.0
  C  C109  1  0.34305105  0.30210896  0.89680820  1.0
  C  C110  1  0.34056986  0.49156831  0.83639660  1.0
  C  C111  1  0.41114055  0.25845876  0.91370247  1.0
  C  C112  1  0.34204324  0.37119865  0.87479624  1.0
  C  C113  1  0.40952349  0.37890120  0.87534126  1.0
  C  C114  1  0.94396848  0.79571321  0.84974401  1.0
  C  C115  1  0.80517966  0.95528179  0.90040413  1.0
  C  C116  1  0.99078743  0.83366820  0.83611062  1.0
  C  C117  1  0.75831326  0.91742521  0.91408003  1.0
  C  C118  1  0.87280139  0.91098260  0.87694276  1.0
  C  C119  1  0.87627618  0.83999850  0.87317683  1.0
  S  S120  1  0.29763634  0.32611693  0.39751044  1.0
  S  S121  1  0.45206132  0.42297707  0.35232022  1.0
  S  S122  1  0.66214420  0.63280001  0.56248871  1.0
  S  S123  1  0.58798856  0.61725190  0.68841481  1.0
  S  S124  1  0.13344522  0.16230846  0.56175687  1.0
  S  S125  1  0.11709219  0.08731675  0.68769434  1.0
  S  S126  1  0.97259172  0.80263800  0.40231114  1.0
  S  S127  1  0.77570840  0.94706933  0.34726339  1.0
  S  S128  1  0.61713743  0.58767646  0.18841689  1.0
  S  S129  1  0.63298102  0.66223482  0.06242932  1.0
  S  S130  1  0.01236144  0.18347260  0.11172639  1.0
  S  S131  1  0.23797980  0.06662238  0.13780731  1.0
  S  S132  1  0.27769601  0.44806589  0.84745928  1.0
  S  S133  1  0.47385227  0.30212559  0.90274590  1.0
  S  S134  1  0.95188379  0.92360425  0.85192716  1.0
  S  S135  1  0.79708602  0.82752356  0.89819899  1.0
  Br  Br136  1  0.28605647  0.55115880  0.41050526  1.0
  Br  Br137  1  0.46384470  0.19779953  0.33954006  1.0
  Br  Br138  1  0.79402006  0.52802517  0.67036293  1.0
  Br  Br139  1  0.45595797  0.72161479  0.58055566  1.0
  Br  Br140  1  0.02897323  0.29228022  0.66935805  1.0
  Br  Br141  1  0.22176310  0.95690133  0.58025467  1.0
  Br  Br142  1  0.75911514  0.77668046  0.40099404  1.0
  Br  Br143  1  0.98887418  0.97353011  0.34882886  1.0
  Br  Br144  1  0.72072297  0.45708367  0.08101437  1.0
  Br  Br145  1  0.52883506  0.79286408  0.16977963  1.0
  Br  Br146  1  0.10751598  0.08972780  0.23180205  1.0
  Br  Br147  1  0.14245562  0.16082766  0.01782574  1.0
  Br  Br148  1  0.49209761  0.47205530  0.84908733  1.0
  Br  Br149  1  0.25943721  0.27811414  0.90103395  1.0
  Br  Br150  1  0.96271239  0.69848955  0.83986234  1.0
  Br  Br151  1  0.78666915  0.05262822  0.90998488  1.0
  O  O152  1  0.00045485  0.49919567  0.49972802  1.0
  O  O153  1  0.07671165  0.31560911  0.52287432  1.0
  O  O154  1  0.03338758  0.53109664  0.58540543  1.0
  O  O155  1  0.15467875  0.50542369  0.44994703  1.0
  O  O156  1  0.02854056  0.37548769  0.58065047  1.0
  O  O157  1  0.15357676  0.39181359  0.44602077  1.0
  O  O158  1  0.08402906  0.58752075  0.52961994  1.0
  O  O159  1  0.00333558  0.65806435  0.44925749  1.0
  O  O160  1  0.88611785  0.49585308  0.44323290  1.0
  O  O161  1  0.89071767  0.65178125  0.44742020  1.0
  O  O162  1  0.99586127  0.38771213  0.44122258  1.0
  O  O163  1  0.87691317  0.52714265  0.58134938  1.0
  O  O164  1  0.81496100  0.57631001  0.52388121  1.0
  O  O165  1  0.74874880  0.25102250  0.25010289  1.0
  O  O166  1  0.59613900  0.35733382  0.30409030  1.0
  O  O167  1  0.66567433  0.16353720  0.21826443  1.0
  O  O168  1  0.72577944  0.37454354  0.16978927  1.0
  O  O169  1  0.59446858  0.24448056  0.29898527  1.0
  O  O170  1  0.67263288  0.43448985  0.22738811  1.0
  O  O171  1  0.72164476  0.21846979  0.16432299  1.0
  O  O172  1  0.87785474  0.22315439  0.16890855  1.0
  O  O173  1  0.86218688  0.25376729  0.30814817  1.0
  O  O174  1  0.93332940  0.17343236  0.22845168  1.0
  O  O175  1  0.75360009  0.36307404  0.30856537  1.0
  O  O176  1  0.74574509  0.09145303  0.29930833  1.0
  O  O177  1  0.85681297  0.09878086  0.30369172  1.0
  O  O178  1  0.24951595  0.75047400  0.75043949  1.0
  O  O179  1  0.37341240  0.72243026  0.66932609  1.0
  O  O180  1  0.36293967  0.75661811  0.80764759  1.0
  O  O181  1  0.17204219  0.93443415  0.72656567  1.0
  O  O182  1  0.43476279  0.67537895  0.72705543  1.0
  O  O183  1  0.22208144  0.87404550  0.66903943  1.0
  O  O184  1  0.25142083  0.86296923  0.80792130  1.0
  O  O185  1  0.09444042  0.85830704  0.80296927  1.0
  O  O186  1  0.16601510  0.66262200  0.72023849  1.0
  O  O187  1  0.09496717  0.74350564  0.80025204  1.0
  O  O188  1  0.21720869  0.71864741  0.66450576  1.0
  O  O189  1  0.35943985  0.59944562  0.80354144  1.0
  O  O190  1  0.24804918  0.59170604  0.80036701  1.0
  O  O191  1  0.50073027  0.99935880  0.99989121  1.0
  O  O192  1  0.50253589  0.15882719  0.95091314  1.0
  O  O193  1  0.38869960  0.99380086  0.94076046  1.0
  O  O194  1  0.65449590  0.89299815  0.94686160  1.0
  O  O195  1  0.39277355  0.15000484  0.94529078  1.0
  O  O196  1  0.65495418  0.00688084  0.95086206  1.0
  O  O197  1  0.49851290  0.88576106  0.94259479  1.0
  O  O198  1  0.57902540  0.81511281  0.02350683  1.0
  O  O199  1  0.52878734  0.03150184  0.08555971  1.0
  O  O200  1  0.52456673  0.87555048  0.08083426  1.0
  O  O201  1  0.58444938  0.08673265  0.03162806  1.0
  O  O202  1  0.31701237  0.07432751  0.02095808  1.0
  O  O203  1  0.37236586  0.02739695  0.08065306  1.0
  F  F204  1  0.78112362  0.51561951  0.39805564  1.0
  F  F205  1  0.96853140  0.23569772  0.35159973  1.0
  F  F206  1  0.16097185  0.66067602  0.54267209  1.0
  F  F207  1  0.08913555  0.58963126  0.70714237  1.0
  F  F208  1  0.70746611  0.20665718  0.08920430  1.0
  F  F209  1  0.54292830  0.04334929  0.16070861  1.0
  F  F210  1  0.23466347  0.96906190  0.85122633  1.0
  F  F211  1  0.51622520  0.78033275  0.89831289  1.0
