# generated using pymatgen
data_ZnSiH28C28(N2F3)2
_symmetry_space_group_name_H-M   'P 1'
_cell_length_a   7.70059774
_cell_length_b   13.99161393
_cell_length_c   13.99167885
_cell_angle_alpha   89.68504531
_cell_angle_beta   85.81951887
_cell_angle_gamma   85.81992335
_symmetry_Int_Tables_number   1
_chemical_formula_structural   ZnSiH28C28(N2F3)2
_chemical_formula_sum   'Zn1 Si1 H28 C28 N4 F6'
_cell_volume   1499.50604672
_cell_formula_units_Z   1
loop_
 _symmetry_equiv_pos_site_id
 _symmetry_equiv_pos_as_xyz
  1  'x, y, z'
loop_
 _atom_site_type_symbol
 _atom_site_label
 _atom_site_symmetry_multiplicity
 _atom_site_fract_x
 _atom_site_fract_y
 _atom_site_fract_z
 _atom_site_occupancy
  Zn  Zn0  1  0.49998828  0.49999908  0.49999975  1.0
  Si  Si1  1  0.99999216  0.49999427  0.49999393  1.0
  H  H2  1  0.25290029  0.50008882  0.33635517  1.0
  H  H3  1  0.25890087  0.50000385  0.16662401  1.0
  H  H4  1  0.82370313  0.50015777  0.16260695  1.0
  H  H5  1  0.79212398  0.49998735  0.33337697  1.0
  H  H6  1  0.17626704  0.49987048  0.83739264  1.0
  H  H7  1  0.74105403  0.50018707  0.83337251  1.0
  H  H8  1  0.74705736  0.50000824  0.66363741  1.0
  H  H9  1  0.20783939  0.50001226  0.66666667  1.0
  H  H10  1  0.25291644  0.33636046  0.49999301  1.0
  H  H11  1  0.25892732  0.16662517  0.49981882  1.0
  H  H12  1  0.82371181  0.16261011  0.50012969  1.0
  H  H13  1  0.79213423  0.33338291  0.49998730  1.0
  H  H14  1  0.17627081  0.83739306  0.49984310  1.0
  H  H15  1  0.74107498  0.83337515  0.49999672  1.0
  H  H16  1  0.74707198  0.66364200  0.49990810  1.0
  H  H17  1  0.20784423  0.66666667  0.50001067  1.0
  H  H18  1  0.77674032  0.56364686  0.94658735  1.0
  H  H19  1  0.84744082  0.49943520  0.04558017  1.0
  H  H20  1  0.79302167  0.43602522  0.94625130  1.0
  H  H21  1  0.20675141  0.56396479  0.05358086  1.0
  H  H22  1  0.15259532  0.50018313  0.95441748  1.0
  H  H23  1  0.22346482  0.43633575  0.05358221  1.0
  H  H24  1  0.79322456  0.94641918  0.43603636  1.0
  H  H25  1  0.84738859  0.04558513  0.49981729  1.0
  H  H26  1  0.77651672  0.94641718  0.56366520  1.0
  H  H27  1  0.22324282  0.05341160  0.43635481  1.0
  H  H28  1  0.15253409  0.95441658  0.50056446  1.0
  H  H29  1  0.20695448  0.05374837  0.56397462  1.0
  C  C30  1  0.37847206  0.50003732  0.29518250  1.0
  C  C31  1  0.38451147  0.50001256  0.19565252  1.0
  C  C32  1  0.54399994  0.50000263  0.13814527  1.0
  C  C33  1  0.69074575  0.50005304  0.19402660  1.0
  C  C34  1  0.67571693  0.50000516  0.29352565  1.0
  C  C35  1  0.56700518  0.49992440  0.03071609  1.0
  C  C36  1  0.43297192  0.50003864  0.96928069  1.0
  C  C37  1  0.30922766  0.49996017  0.80596651  1.0
  C  C38  1  0.45597040  0.50001417  0.86184937  1.0
  C  C39  1  0.61546196  0.50008304  0.80434233  1.0
  C  C40  1  0.62148794  0.50003037  0.70481514  1.0
  C  C41  1  0.32424787  0.50000376  0.70647281  1.0
  C  C42  1  0.37848616  0.29518192  0.49997255  1.0
  C  C43  1  0.38451940  0.19565608  0.49992025  1.0
  C  C44  1  0.54400669  0.13814784  0.49998863  1.0
  C  C45  1  0.69075036  0.19403526  0.50004005  1.0
  C  C46  1  0.67572105  0.29352433  0.49999432  1.0
  C  C47  1  0.56700363  0.03071864  0.49996464  1.0
  C  C48  1  0.43297079  0.96928380  0.50007852  1.0
  C  C49  1  0.30922649  0.80597150  0.49994866  1.0
  C  C50  1  0.45597637  0.86185102  0.50000061  1.0
  C  C51  1  0.61547205  0.80434279  0.49998504  1.0
  C  C52  1  0.62149747  0.70481552  0.49995950  1.0
  C  C53  1  0.32425057  0.70647241  0.49999250  1.0
  C  C54  1  0.75488159  0.49974243  0.99056811  1.0
  C  C55  1  0.24511231  0.50014894  0.00943410  1.0
  C  C56  1  0.75486537  0.99056772  0.49985312  1.0
  C  C57  1  0.24509360  0.00942971  0.50025640  1.0
  N  N58  1  0.52113915  0.50000181  0.34501417  1.0
  N  N59  1  0.47883079  0.50000782  0.65498194  1.0
  N  N60  1  0.52114850  0.34501987  0.49999289  1.0
  N  N61  1  0.47883254  0.65498473  0.49999497  1.0
  F  F62  1  0.22719763  0.50017436  0.50017003  1.0
  F  F63  1  0.77278736  0.49981949  0.49981773  1.0
  F  F64  1  0.99998898  0.58632055  0.41366388  1.0
  F  F65  1  0.99998950  0.41367302  0.58632489  1.0
  F  F66  1  0.02296487  0.41370363  0.41370562  1.0
  F  F67  1  0.97701640  0.58628879  0.58628229  1.0
