# generated using pymatgen
data_Zn4H10C32S4O25F8
_symmetry_space_group_name_H-M   'P 1'
_cell_length_a   13.03533728
_cell_length_b   13.08877949
_cell_length_c   17.96950623
_cell_angle_alpha   69.99559247
_cell_angle_beta   69.77022996
_cell_angle_gamma   87.28203036
_symmetry_Int_Tables_number   1
_chemical_formula_structural   Zn4H10C32S4O25F8
_chemical_formula_sum   'Zn4 H10 C32 S4 O25 F8'
_cell_volume   2694.45950037
_cell_formula_units_Z   1
loop_
 _symmetry_equiv_pos_site_id
 _symmetry_equiv_pos_as_xyz
  1  'x, y, z'
loop_
 _atom_site_type_symbol
 _atom_site_label
 _atom_site_symmetry_multiplicity
 _atom_site_fract_x
 _atom_site_fract_y
 _atom_site_fract_z
 _atom_site_occupancy
  Zn  Zn0  1  0.58195752  0.55982161  0.55671014  1.0
  Zn  Zn1  1  0.60378809  0.41408716  0.44067753  1.0
  Zn  Zn2  1  0.45723213  0.61461761  0.42407807  1.0
  Zn  Zn3  1  0.38017085  0.39996608  0.59643128  1.0
  H  H4  1  0.57586052  0.10702527  0.44664015  1.0
  H  H5  1  0.77998043  0.51403898  0.25382828  1.0
  H  H6  1  0.57084240  0.95767858  0.38312514  1.0
  H  H7  1  0.93696508  0.37952571  0.47723927  1.0
  H  H8  1  0.04866923  0.54120124  0.57815275  1.0
  H  H9  1  0.72762438  0.70492547  0.88189339  1.0
  H  H10  1  0.34063472  0.43695545  0.17173304  1.0
  H  H11  1  0.26296833  0.16495666  0.63287550  1.0
  H  H12  1  0.08555683  0.75876314  0.39814024  1.0
  H  H13  1  0.09071001  0.50860864  0.29121848  1.0
  C  C14  1  0.45704383  0.21079365  0.53982194  1.0
  C  C15  1  0.58776720  0.60669900  0.90316684  1.0
  C  C16  1  0.66044888  0.64560910  0.92851093  1.0
  C  C17  1  0.55417372  0.78207215  0.45646406  1.0
  C  C18  1  0.64396709  0.61301411  0.01569722  1.0
  C  C19  1  0.54676085  0.54703311  0.07680952  1.0
  C  C20  1  0.72098067  0.65005445  0.04250958  1.0
  C  C21  1  0.70453939  0.62820759  0.12681297  1.0
  C  C22  1  0.53305470  0.52705162  0.16242535  1.0
  C  C23  1  0.55714322  0.89880651  0.44618923  1.0
  C  C24  1  0.52818235  0.93488011  0.51200749  1.0
  C  C25  1  0.27718845  0.40575594  0.87490874  1.0
  C  C26  1  0.44190292  0.09170662  0.55565128  1.0
  C  C27  1  0.51601728  0.04871187  0.50286869  1.0
  C  C28  1  0.11247079  0.53454796  0.52183997  1.0
  C  C29  1  0.78337313  0.45927779  0.48740428  1.0
  C  C30  1  0.08365212  0.53176584  0.45765435  1.0
  C  C31  1  0.90260496  0.45787001  0.47478460  1.0
  C  C32  1  0.96923077  0.54254680  0.46076798  1.0
  C  C33  1  0.22636694  0.52871720  0.52356972  1.0
  C  C34  1  0.57789702  0.54261675  0.28115099  1.0
  C  C35  1  0.42230854  0.44723944  0.72875899  1.0
  C  C36  1  0.45874560  0.47017897  0.85111121  1.0
  C  C37  1  0.38626269  0.43925608  0.81924660  1.0
  C  C38  1  0.60616971  0.56684787  0.18796407  1.0
  C  C39  1  0.24490490  0.39998548  0.95824147  1.0
  C  C40  1  0.42652664  0.48047161  0.93171446  1.0
  C  C41  1  0.31787079  0.43529859  0.98864202  1.0
  C  C42  1  0.49738000  0.52864861  0.95979904  1.0
  C  C43  1  0.47103031  0.50758299  0.04795821  1.0
  C  C44  1  0.36642548  0.45304091  0.10435245  1.0
  C  C45  1  0.29293510  0.42481122  0.07477523  1.0
  S  S46  1  0.32666714  0.01241662  0.64485005  1.0
  S  S47  1  0.92342887  0.67700940  0.45215821  1.0
  S  S48  1  0.18712243  0.51924924  0.36424710  1.0
  S  S49  1  0.79882132  0.67348818  0.16414500  1.0
  O  O50  1  0.50433923  0.49467776  0.50431510  1.0
  O  O51  1  0.63699419  0.47585335  0.31668637  1.0
  O  O52  1  0.37368528  0.38171218  0.71054533  1.0
  O  O53  1  0.49747274  0.58707835  0.31674598  1.0
  O  O54  1  0.49715808  0.52183936  0.67716302  1.0
  O  O55  1  0.29576832  0.92042973  0.62907572  1.0
  O  O56  1  0.34995554  0.00070850  0.71977880  1.0
  O  O57  1  0.23315367  0.09390396  0.63628544  1.0
  O  O58  1  0.83710504  0.69520877  0.41817026  1.0
  O  O59  1  0.91421277  0.69322207  0.52944754  1.0
  O  O60  1  0.02753473  0.75165821  0.37667986  1.0
  O  O61  1  0.72307879  0.49450836  0.54425067  1.0
  O  O62  1  0.22342420  0.62629111  0.30172248  1.0
  O  O63  1  0.26142092  0.44379663  0.39118102  1.0
  O  O64  1  0.11866922  0.45535977  0.33183399  1.0
  O  O65  1  0.89075312  0.73850168  0.09569311  1.0
  O  O66  1  0.73223180  0.71186764  0.23045829  1.0
  O  O67  1  0.84392002  0.56016954  0.20566421  1.0
  O  O68  1  0.24027557  0.44779525  0.58213073  1.0
  O  O69  1  0.54383333  0.26228674  0.48070538  1.0
  O  O70  1  0.51560957  0.75762974  0.40755149  1.0
  O  O71  1  0.38354221  0.25176476  0.58791886  1.0
  O  O72  1  0.58740300  0.71732251  0.51281553  1.0
  O  O73  1  0.75396776  0.41942237  0.44167216  1.0
  O  O74  1  0.29531019  0.60685766  0.46862051  1.0
  F  F75  1  0.19199321  0.38093697  0.13129493  1.0
  F  F76  1  0.81173570  0.70950211  0.98101664  1.0
  F  F77  1  0.50699541  0.86541680  0.59177661  1.0
  F  F78  1  0.44495718  0.46254148  0.22571549  1.0
  F  F79  1  0.14109835  0.36064812  0.00920743  1.0
  F  F80  1  0.20158401  0.37760237  0.84859122  1.0
  F  F81  1  0.56652121  0.48177118  0.80494219  1.0
  F  F82  1  0.59853649  0.65230786  0.82073124  1.0
