# generated using pymatgen
data_ZnH17C20NO6
_symmetry_space_group_name_H-M   'P 1'
_cell_length_a   9.56228957
_cell_length_b   10.92762730
_cell_length_c   17.10799525
_cell_angle_alpha   89.55092726
_cell_angle_beta   86.85712447
_cell_angle_gamma   87.76787246
_symmetry_Int_Tables_number   1
_chemical_formula_structural   ZnH17C20NO6
_chemical_formula_sum   'Zn2 H34 C40 N2 O12'
_cell_volume   1783.59578039
_cell_formula_units_Z   2
loop_
 _symmetry_equiv_pos_site_id
 _symmetry_equiv_pos_as_xyz
  1  'x, y, z'
loop_
 _atom_site_type_symbol
 _atom_site_label
 _atom_site_symmetry_multiplicity
 _atom_site_fract_x
 _atom_site_fract_y
 _atom_site_fract_z
 _atom_site_occupancy
  Zn  Zn0  1  0.63973126  0.47476960  0.50419012  1.0
  Zn  Zn1  1  0.35366323  0.48035305  0.50448360  1.0
  H  H2  1  0.37658942  0.68112422  0.00468411  1.0
  H  H3  1  0.12776641  0.64680955  0.44866290  1.0
  H  H4  1  0.14013350  0.59208116  0.15009681  1.0
  H  H5  1  0.18974878  0.43485483  0.13340263  1.0
  H  H6  1  0.05545948  0.47692324  0.20534979  1.0
  H  H7  1  0.27151386  0.41929870  0.27277096  1.0
  H  H8  1  0.22105696  0.57116276  0.28871866  1.0
  H  H9  1  0.86449685  0.45731755  0.80587884  1.0
  H  H10  1  0.79398112  0.38556151  0.72395587  1.0
  H  H11  1  0.94989054  0.47132479  0.71206465  1.0
  H  H12  1  0.74907831  0.59533822  0.66355647  1.0
  H  H13  1  0.68832176  0.60276359  0.99491037  1.0
  H  H14  1  0.81575634  0.66281906  0.74690867  1.0
  H  H15  1  0.19714209  0.44858816  0.73290041  1.0
  H  H16  1  0.76709904  0.69310622  0.32786231  1.0
  H  H17  1  0.81180697  0.71601535  0.06974586  1.0
  H  H18  1  0.20559695  0.68001475  0.94924006  1.0
  H  H19  1  0.10598958  0.96825933  0.57549568  1.0
  H  H20  1  0.14404755  0.81957494  0.53679739  1.0
  H  H21  1  0.07199970  0.83578786  0.63452260  1.0
  H  H22  1  0.32398960  0.78164952  0.63710416  1.0
  H  H23  1  0.29139063  0.93101510  0.67326328  1.0
  H  H24  1  0.70170256  0.65902629  0.87059715  1.0
  H  H25  1  0.92983852  0.10718285  0.37441729  1.0
  H  H26  1  0.85516675  0.13905590  0.47012612  1.0
  H  H27  1  0.88856063  0.98497055  0.44004703  1.0
  H  H28  1  0.70796256  0.01444605  0.33848724  1.0
  H  H29  1  0.67552568  0.16768183  0.36930771  1.0
  H  H30  1  0.35567877  0.55709391  0.09667565  1.0
  H  H31  1  0.34131162  0.11365162  0.58747853  1.0
  H  H32  1  0.65748814  0.84190931  0.42364412  1.0
  H  H33  1  0.13392436  0.30769181  0.55967111  1.0
  H  H34  1  0.86011410  0.64538547  0.44814317  1.0
  H  H35  1  0.86548578  0.30722541  0.56036120  1.0
  C  C36  1  0.48856976  0.71487683  0.51544652  1.0
  C  C37  1  0.92240611  0.57043600  0.47257673  1.0
  C  C38  1  0.92567082  0.38215228  0.53546658  1.0
  C  C39  1  0.06775968  0.57139587  0.47305423  1.0
  C  C40  1  0.50624450  0.52057369  0.35242758  1.0
  C  C41  1  0.49148745  0.49169737  0.65630401  1.0
  C  C42  1  0.51950432  0.55577508  0.26754012  1.0
  C  C43  1  0.49194779  0.54761124  0.73594440  1.0
  C  C44  1  0.40772484  0.54710152  0.21626629  1.0
  C  C45  1  0.61635112  0.58630086  0.76875980  1.0
  C  C46  1  0.43620541  0.57378604  0.13734461  1.0
  C  C47  1  0.50562660  0.24166878  0.49548259  1.0
  C  C48  1  0.60596423  0.63041270  0.84523705  1.0
  C  C49  1  0.56504335  0.61527288  0.10675176  1.0
  C  C50  1  0.47972791  0.63667387  0.89099155  1.0
  C  C51  1  0.67147302  0.63337176  0.15959686  1.0
  C  C52  1  0.35396314  0.60971419  0.85477974  1.0
  C  C53  1  0.64948005  0.59857194  0.23886456  1.0
  C  C54  1  0.36164563  0.56680198  0.77706123  1.0
  C  C55  1  0.58506915  0.62852212  0.02162096  1.0
  C  C56  1  0.47741448  0.65518041  0.97537337  1.0
  C  C57  1  0.26246040  0.50808205  0.24235134  1.0
  C  C58  1  0.39894583  0.92594734  0.56061553  1.0
  C  C59  1  0.15709432  0.50262606  0.17870037  1.0
  C  C60  1  0.75934270  0.58413247  0.72666884  1.0
  C  C61  1  0.84665842  0.46668168  0.74315638  1.0
  C  C62  1  0.22618498  0.54577751  0.73770539  1.0
  C  C63  1  0.76999498  0.60773938  0.29240520  1.0
  C  C64  1  0.79757781  0.69844296  0.13391966  1.0
  C  C65  1  0.21632078  0.61675541  0.89837612  1.0
  C  C66  1  0.29295070  0.87534410  0.61979369  1.0
  C  C67  1  0.14447674  0.87510380  0.58999519  1.0
  C  C68  1  0.70595410  0.07546323  0.38956389  1.0
  C  C69  1  0.59887117  0.02971273  0.45002771  1.0
  C  C70  1  0.85381231  0.07662798  0.42026383  1.0
  C  C71  1  0.40972589  0.05221934  0.55125705  1.0
  C  C72  1  0.58836869  0.90321421  0.45976354  1.0
  C  C73  1  0.50665060  0.10494276  0.49770777  1.0
  C  C74  1  0.49101772  0.85146320  0.51291212  1.0
  C  C75  1  0.07094174  0.38272289  0.53558127  1.0
  N  N76  1  0.85323885  0.47607492  0.50395638  1.0
  N  N77  1  0.14007667  0.47767768  0.50451328  1.0
  O  O78  1  0.60275906  0.65760451  0.53025110  1.0
  O  O79  1  0.86727438  0.53161326  0.29390080  1.0
  O  O80  1  0.88201298  0.73742146  0.17848411  1.0
  O  O81  1  0.11522181  0.55807241  0.88148205  1.0
  O  O82  1  0.38693324  0.29717145  0.50905158  1.0
  O  O83  1  0.37435704  0.66575625  0.50044309  1.0
  O  O84  1  0.62137650  0.29463211  0.48207316  1.0
  O  O85  1  0.61688746  0.53275169  0.39011911  1.0
  O  O86  1  0.37269854  0.49412876  0.62526309  1.0
  O  O87  1  0.39161954  0.48270607  0.38251350  1.0
  O  O88  1  0.60450697  0.44606410  0.62426601  1.0
  O  O89  1  0.14998027  0.63095831  0.71661250  1.0
