# generated using pymatgen
data_AlH12(C5O3)6
_symmetry_space_group_name_H-M   'P 1'
_cell_length_a   4.08971401
_cell_length_b   29.33480834
_cell_length_c   29.33531973
_cell_angle_alpha   120.00038595
_cell_angle_beta   90.00113974
_cell_angle_gamma   89.99962128
_symmetry_Int_Tables_number   1
_chemical_formula_structural   AlH12(C5O3)6
_chemical_formula_sum   'Al2 H24 C60 O36'
_cell_volume   3047.86665778
_cell_formula_units_Z   2
loop_
 _symmetry_equiv_pos_site_id
 _symmetry_equiv_pos_as_xyz
  1  'x, y, z'
loop_
 _atom_site_type_symbol
 _atom_site_label
 _atom_site_symmetry_multiplicity
 _atom_site_fract_x
 _atom_site_fract_y
 _atom_site_fract_z
 _atom_site_occupancy
  Al  Al0  1  0.99999392  0.00000293  0.50000146  1.0
  Al  Al1  1  0.00048830  0.33332270  0.16666091  1.0
  H  H2  1  0.47320674  0.57911058  0.36328096  1.0
  H  H3  1  0.52705091  0.57911993  0.21581842  1.0
  H  H4  1  0.52738863  0.75429429  0.45084537  1.0
  H  H5  1  0.47278023  0.75428117  0.30344303  1.0
  H  H6  1  0.47314888  0.13670433  0.21582635  1.0
  H  H7  1  0.52702758  0.28417637  0.36329860  1.0
  H  H8  1  0.52741034  0.04915495  0.30344876  1.0
  H  H9  1  0.47275088  0.19655532  0.45084037  1.0
  H  H10  1  0.47321980  0.28417095  0.92088885  1.0
  H  H11  1  0.52705589  0.13668488  0.92086305  1.0
  H  H12  1  0.52739417  0.19655635  0.74570463  1.0
  H  H13  1  0.47276792  0.04916392  0.74571288  1.0
  H  H14  1  0.07334531  0.43814028  0.28559526  1.0
  H  H15  1  0.92731491  0.43817110  0.15251974  1.0
  H  H16  1  0.92711456  0.89515283  0.51420093  1.0
  H  H17  1  0.07296227  0.89513943  0.38096183  1.0
  H  H18  1  0.07339252  0.21437249  0.15253176  1.0
  H  H19  1  0.92730203  0.34747495  0.28565119  1.0
  H  H20  1  0.92715677  0.98580450  0.38095929  1.0
  H  H21  1  0.07293462  0.11903909  0.51417819  1.0
  H  H22  1  0.07338295  0.34745425  0.06184662  1.0
  H  H23  1  0.92740913  0.21433435  0.06182184  1.0
  H  H24  1  0.92713770  0.11904745  0.60484356  1.0
  H  H25  1  0.07294420  0.98582585  0.60485520  1.0
  C  C26  1  0.50003474  0.04127394  0.58253497  1.0
  C  C27  1  0.50001667  0.91746257  0.45873445  1.0
  C  C28  1  0.50001374  0.04127063  0.45873068  1.0
  C  C29  1  0.50045088  0.41595005  0.20796153  1.0
  C  C30  1  0.50044403  0.29202352  0.20798311  1.0
  C  C31  1  0.50045970  0.29199816  0.08404064  1.0
  C  C32  1  0.50026086  0.47527517  0.23762980  1.0
  C  C33  1  0.47776866  0.50379236  0.29311235  1.0
  C  C34  1  0.48418295  0.55864427  0.32044176  1.0
  C  C35  1  0.50010080  0.58699552  0.29349015  1.0
  C  C36  1  0.51607422  0.55864798  0.23818889  1.0
  C  C37  1  0.52259480  0.50379451  0.21066782  1.0
  C  C38  1  0.49998898  0.64267719  0.32133125  1.0
  C  C39  1  0.50011180  0.69066734  0.34533171  1.0
  C  C40  1  0.50006844  0.74634468  0.37317200  1.0
  C  C41  1  0.51623419  0.77471153  0.42844990  1.0
  C  C42  1  0.52264116  0.82956697  0.45598663  1.0
  C  C43  1  0.50003797  0.85811031  0.42905670  1.0
  C  C44  1  0.47748791  0.82956081  0.37357907  1.0
  C  C45  1  0.48390337  0.77470656  0.34625839  1.0
  C  C46  1  0.50027567  0.26235871  0.23764012  1.0
  C  C47  1  0.47776087  0.20687951  0.21067532  1.0
  C  C48  1  0.48415022  0.17954816  0.23820031  1.0
  C  C49  1  0.50007882  0.20650620  0.29349921  1.0
  C  C50  1  0.51603164  0.26180842  0.32045452  1.0
  C  C51  1  0.52254051  0.28933148  0.29311948  1.0
  C  C52  1  0.50005211  0.17866470  0.32134181  1.0
  C  C53  1  0.50009595  0.15467015  0.34533804  1.0
  C  C54  1  0.50004234  0.12682549  0.37317156  1.0
  C  C55  1  0.51622869  0.07154730  0.34626002  1.0
  C  C56  1  0.52264248  0.04401007  0.37358219  1.0
  C  C57  1  0.50004273  0.07094488  0.42905657  1.0
  C  C58  1  0.47745739  0.12642029  0.45598524  1.0
  C  C59  1  0.48388312  0.15374062  0.42844862  1.0
  C  C60  1  0.50030705  0.26234849  0.02471761  1.0
  C  C61  1  0.47780968  0.28931633  0.99620389  1.0
  C  C62  1  0.48422988  0.26179187  0.94135063  1.0
  C  C63  1  0.50012271  0.20649045  0.91300052  1.0
  C  C64  1  0.51611425  0.17953264  0.94134464  1.0
  C  C65  1  0.52266073  0.20686700  0.99619968  1.0
  C  C66  1  0.50004607  0.17865698  0.85732154  1.0
  C  C67  1  0.50012882  0.15466296  0.80933007  1.0
  C  C68  1  0.50003995  0.12682949  0.75365416  1.0
  C  C69  1  0.51622181  0.15374124  0.72528569  1.0
  C  C70  1  0.52266645  0.12641791  0.67042800  1.0
  C  C71  1  0.50006514  0.07094368  0.64188542  1.0
  C  C72  1  0.47747698  0.04401539  0.67043344  1.0
  C  C73  1  0.48387186  0.07155364  0.72528816  1.0
  C  C74  1  0.45251556  0.47801070  0.32613648  1.0
  C  C75  1  0.54788886  0.47802917  0.15186208  1.0
  C  C76  1  0.54792277  0.85526618  0.51478051  1.0
  C  C77  1  0.45216045  0.85525900  0.34048757  1.0
  C  C78  1  0.45259109  0.17385273  0.15186932  1.0
  C  C79  1  0.54789205  0.34813960  0.32616526  1.0
  C  C80  1  0.54794403  0.98521913  0.34049266  1.0
  C  C81  1  0.45214115  0.15951618  0.51477365  1.0
  C  C82  1  0.45258022  0.34812519  0.02198977  1.0
  C  C83  1  0.54794553  0.17382742  0.02196866  1.0
  C  C84  1  0.54794679  0.15951518  0.64472721  1.0
  C  C85  1  0.45213981  0.98522718  0.64473527  1.0
  O  O86  1  0.26290443  0.00967704  0.45070648  1.0
  O  O87  1  0.26294051  0.04930277  0.55896898  1.0
  O  O88  1  0.26291620  0.94103340  0.49032941  1.0
  O  O89  1  0.73709838  0.04929519  0.49032334  1.0
  O  O90  1  0.73710058  0.94103047  0.45070879  1.0
  O  O91  1  0.73713597  0.00967895  0.55896872  1.0
  O  O92  1  0.26319558  0.28398060  0.10759081  1.0
  O  O93  1  0.26321012  0.39239562  0.17638979  1.0
  O  O94  1  0.26320233  0.32359688  0.21600369  1.0
  O  O95  1  0.73775106  0.32356497  0.10758392  1.0
  O  O96  1  0.73771774  0.28400069  0.17641311  1.0
  O  O97  1  0.73775222  0.39240553  0.21598420  1.0
  O  O98  1  0.23984764  0.43738766  0.30922813  1.0
  O  O99  1  0.61983286  0.49223411  0.36507147  1.0
  O  O100  1  0.76080522  0.43743974  0.12814352  1.0
  O  O101  1  0.38045697  0.49223529  0.12714795  1.0
  O  O102  1  0.76050070  0.89588213  0.53855792  1.0
  O  O103  1  0.38075179  0.84092968  0.53941058  1.0
  O  O104  1  0.23953946  0.89587169  0.35733186  1.0
  O  O105  1  0.61925773  0.84092470  0.30151362  1.0
  O  O106  1  0.23986998  0.19073983  0.12814518  1.0
  O  O107  1  0.61994671  0.13492360  0.12716665  1.0
  O  O108  1  0.76084161  0.37185472  0.30929832  1.0
  O  O109  1  0.38049621  0.37285825  0.36508445  1.0
  O  O110  1  0.76053766  0.96144668  0.35733323  1.0
  O  O111  1  0.38076879  0.96058382  0.30152502  1.0
  O  O112  1  0.23951223  0.14267224  0.53854059  1.0
  O  O113  1  0.61924902  0.19849225  0.53941163  1.0
  O  O114  1  0.23985128  0.37184323  0.06260117  1.0
  O  O115  1  0.61985683  0.37283658  0.00776405  1.0
  O  O116  1  0.76085042  0.19070154  0.06256075  1.0
  O  O117  1  0.38044229  0.13491785  0.00777425  1.0
  O  O118  1  0.76051419  0.14267346  0.60410931  1.0
  O  O119  1  0.38072981  0.19847974  0.65906421  1.0
  O  O120  1  0.23952116  0.96146256  0.60412214  1.0
  O  O121  1  0.61926312  0.96058794  0.65906843  1.0
