# generated using pymatgen
data_Zn2H17C25N8O5
_symmetry_space_group_name_H-M   'P 1'
_cell_length_a   14.56386304
_cell_length_b   15.40724608
_cell_length_c   23.66841305
_cell_angle_alpha   86.75974700
_cell_angle_beta   86.74025598
_cell_angle_gamma   78.01994060
_symmetry_Int_Tables_number   1
_chemical_formula_structural   Zn2H17C25N8O5
_chemical_formula_sum   'Zn8 H68 C100 N32 O20'
_cell_volume   5181.41309124
_cell_formula_units_Z   4
loop_
 _symmetry_equiv_pos_site_id
 _symmetry_equiv_pos_as_xyz
  1  'x, y, z'
loop_
 _atom_site_type_symbol
 _atom_site_label
 _atom_site_symmetry_multiplicity
 _atom_site_fract_x
 _atom_site_fract_y
 _atom_site_fract_z
 _atom_site_occupancy
  Zn  Zn0  1  0.46086905  0.44452261  0.55620887  1.0
  Zn  Zn1  1  0.55603180  0.61339923  0.59351343  1.0
  Zn  Zn2  1  0.94826628  0.92789739  0.05687949  1.0
  Zn  Zn3  1  0.03633878  0.10032701  0.09490641  1.0
  Zn  Zn4  1  0.55117171  0.62525470  0.46794898  1.0
  Zn  Zn5  1  0.45627831  0.42399136  0.41619713  1.0
  Zn  Zn6  1  0.03270880  0.11483160  0.97020140  1.0
  Zn  Zn7  1  0.94486518  0.91371925  0.91567045  1.0
  H  H8  1  0.25719960  0.56217575  0.57314321  1.0
  H  H9  1  0.60240140  0.55375566  0.72075244  1.0
  H  H10  1  0.74155345  0.03678045  0.07239426  1.0
  H  H11  1  0.08849251  0.04176465  0.21953386  1.0
  H  H12  1  0.55106978  0.25916988  0.76603920  1.0
  H  H13  1  0.28595226  0.86869888  0.60069546  1.0
  H  H14  1  0.06489070  0.73718931  0.26138804  1.0
  H  H15  1  0.71756473  0.35626057  0.07590329  1.0
  H  H16  1  0.66499181  0.10207366  0.41642422  1.0
  H  H17  1  0.66172489  0.94482357  0.42899761  1.0
  H  H18  1  0.18785904  0.58066125  0.92677200  1.0
  H  H19  1  0.17903748  0.42317458  0.94083659  1.0
  H  H20  1  0.66147574  0.96204716  0.61019823  1.0
  H  H21  1  0.66575753  0.11982189  0.59762255  1.0
  H  H22  1  0.08496721  0.46558933  0.11486723  1.0
  H  H23  1  0.09539258  0.62221298  0.10117139  1.0
  H  H24  1  0.61462943  0.81872899  0.43729549  1.0
  H  H25  1  0.61095595  0.25266091  0.40548953  1.0
  H  H26  1  0.08285449  0.31695364  0.94245806  1.0
  H  H27  1  0.08706658  0.73470286  0.90959478  1.0
  H  H28  1  0.28450132  0.55497612  0.37955456  1.0
  H  H29  1  0.62603183  0.48510648  0.24360720  1.0
  H  H30  1  0.77050939  0.05121536  0.87516848  1.0
  H  H31  1  0.18901011  0.93949553  0.77865843  1.0
  H  H32  1  0.40814926  0.77688596  0.55112662  1.0
  H  H33  1  0.51189241  0.32299921  0.66693158  1.0
  H  H34  1  0.88057114  0.25984855  0.05484571  1.0
  H  H35  1  0.01088613  0.80423554  0.16652337  1.0
  H  H36  1  0.08944855  0.47992089  0.58397348  1.0
  H  H37  1  0.91944177  0.51594686  0.58677668  1.0
  H  H38  1  0.58123640  0.97322993  0.08150895  1.0
  H  H39  1  0.41118874  0.01383087  0.08494096  1.0
  H  H40  1  0.85064982  0.24644993  0.47088145  1.0
  H  H41  1  0.12765014  0.25748137  0.36253209  1.0
  H  H42  1  0.34145053  0.72991902  0.92974438  1.0
  H  H43  1  0.61449650  0.74821604  0.86269761  1.0
  H  H44  1  0.95736712  0.36144032  0.36132774  1.0
  H  H45  1  0.05060941  0.16725577  0.45936668  1.0
  H  H46  1  0.44233259  0.85308833  0.85926094  1.0
  H  H47  1  0.52676304  0.66326435  0.95552416  1.0
  H  H48  1  0.18186778  0.64148510  0.32016318  1.0
  H  H49  1  0.62073934  0.43823804  0.15156068  1.0
  H  H50  1  0.66209439  0.15392198  0.82382680  1.0
  H  H51  1  0.18783261  0.94420837  0.67791705  1.0
  H  H52  1  0.74396659  0.43746333  0.75014353  1.0
  H  H53  1  0.13352072  0.65591488  0.61968812  1.0
  H  H54  1  0.23241347  0.93794589  0.24978774  1.0
  H  H55  1  0.65597503  0.11174613  0.15053835  1.0
  H  H56  1  0.34783799  0.84373279  0.31087529  1.0
  H  H57  1  0.56372207  0.19202771  0.22689889  1.0
  H  H58  1  0.85397679  0.33374837  0.80965200  1.0
  H  H59  1  0.04019180  0.72823100  0.69894083  1.0
  H  H60  1  0.54049425  0.73617257  0.35280392  1.0
  H  H61  1  0.44291816  0.25619643  0.26700422  1.0
  H  H62  1  0.03588250  0.22290118  0.85896721  1.0
  H  H63  1  0.92148665  0.81912745  0.73595323  1.0
  H  H64  1  0.62726245  0.81090064  0.61987398  1.0
  H  H65  1  0.61976073  0.27619557  0.58670075  1.0
  H  H66  1  0.09937980  0.29896594  0.12489920  1.0
  H  H67  1  0.11616585  0.77101523  0.08742832  1.0
  H  H68  1  0.18940791  0.36549650  0.39731045  1.0
  H  H69  1  0.81367042  0.44142499  0.40764197  1.0
  H  H70  1  0.67538941  0.86002701  0.89517684  1.0
  H  H71  1  0.29754626  0.94127385  0.90732401  1.0
  H  H72  1  0.30751164  0.39610156  0.62663305  1.0
  H  H73  1  0.82153931  0.43643741  0.62722364  1.0
  H  H74  1  0.79992784  0.86897714  0.12490116  1.0
  H  H75  1  0.31220917  0.93364979  0.12692313  1.0
  C  C76  1  0.30703873  0.60511971  0.56384002  1.0
  C  C77  1  0.57149955  0.50587602  0.70048711  1.0
  C  C78  1  0.78928580  0.08206891  0.06437594  1.0
  C  C79  1  0.06014977  0.99184015  0.19963949  1.0
  C  C80  1  0.34302570  0.67774641  0.35606770  1.0
  C  C81  1  0.55160759  0.36974707  0.24802878  1.0
  C  C82  1  0.83396536  0.17231101  0.85509912  1.0
  C  C83  1  0.07375935  0.87431240  0.75212176  1.0
  C  C84  1  0.63548816  0.85216842  0.52676826  1.0
  C  C85  1  0.63686483  0.22247861  0.49885157  1.0
  C  C86  1  0.10567753  0.34456726  0.03257587  1.0
  C  C87  1  0.12040534  0.71107335  0.00222719  1.0
  C  C88  1  0.20898865  0.38388548  0.50856068  1.0
  C  C89  1  0.79970551  0.45952263  0.52019176  1.0
  C  C90  1  0.69738997  0.87215807  0.00655854  1.0
  C  C91  1  0.28801782  0.95890280  0.02017890  1.0
  C  C92  1  0.05396246  0.35302048  0.48010073  1.0
  C  C93  1  0.95588222  0.37104756  0.48343140  1.0
  C  C94  1  0.53996642  0.84771313  0.97838960  1.0
  C  C95  1  0.44189609  0.86866477  0.98178586  1.0
  C  C96  1  0.10808758  0.39166984  0.51460053  1.0
  C  C97  1  0.90118147  0.43039522  0.52036485  1.0
  C  C98  1  0.59599998  0.88410098  0.01280512  1.0
  C  C99  1  0.38930369  0.92883633  0.01917251  1.0
  C  C100  1  0.05331485  0.44721604  0.55508348  1.0
  C  C101  1  0.95539231  0.46635909  0.55742200  1.0
  C  C102  1  0.54344149  0.94143128  0.05300805  1.0
  C  C103  1  0.44546886  0.96339399  0.05566873  1.0
  C  C104  1  0.94766230  0.30864125  0.43759207  1.0
  C  C105  1  0.06028417  0.28599878  0.43440195  1.0
  C  C106  1  0.43142667  0.80605030  0.93654981  1.0
  C  C107  1  0.54422991  0.78034341  0.93329721  1.0
  C  C108  1  0.19329367  0.70693035  0.30545461  1.0
  C  C109  1  0.62893691  0.36626054  0.15170215  1.0
  C  C110  1  0.68079293  0.21614865  0.80799473  1.0
  C  C111  1  0.17639806  0.88028636  0.66552277  1.0
  C  C112  1  0.61792589  0.27560898  0.77519780  1.0
  C  C113  1  0.23141493  0.83755625  0.62153211  1.0
  C  C114  1  0.12715557  0.76093589  0.27188555  1.0
  C  C115  1  0.68347542  0.31977877  0.10882434  1.0
  C  C116  1  0.63888231  0.35660377  0.75368940  1.0
  C  C117  1  0.22159446  0.75322316  0.60574306  1.0
  C  C118  1  0.13896261  0.84558004  0.25141649  1.0
  C  C119  1  0.69800741  0.22655109  0.10828538  1.0
  C  C120  1  0.43065190  0.69011846  0.37231115  1.0
  C  C121  1  0.49570494  0.34757387  0.29513296  1.0
  C  C122  1  0.92255769  0.18033452  0.87223098  1.0
  C  C123  1  0.99634715  0.86062464  0.78761972  1.0
  C  C124  1  0.72485017  0.37603695  0.76734194  1.0
  C  C125  1  0.14624306  0.71949221  0.63191356  1.0
  C  C126  1  0.21985394  0.87367646  0.26637230  1.0
  C  C127  1  0.64732205  0.18388696  0.14961727  1.0
  C  C128  1  0.28576085  0.82009151  0.30032624  1.0
  C  C129  1  0.59361751  0.23028129  0.19302896  1.0
  C  C130  1  0.78758692  0.31700001  0.80037698  1.0
  C  C131  1  0.09173863  0.76172256  0.67663183  1.0
  C  C132  1  0.27437113  0.73499888  0.32063569  1.0
  C  C133  1  0.58744987  0.32238906  0.19741273  1.0
  C  C134  1  0.76762854  0.23497791  0.82112861  1.0
  C  C135  1  0.10969882  0.84042163  0.69741461  1.0
  C  C136  1  0.66500980  0.07208030  0.45925725  1.0
  C  C137  1  0.66263114  0.98259444  0.46648113  1.0
  C  C138  1  0.16592642  0.55579908  0.96836911  1.0
  C  C139  1  0.16017964  0.46693728  0.97616501  1.0
  C  C140  1  0.65618265  0.94125938  0.52073540  1.0
  C  C141  1  0.66095259  0.12541989  0.50609284  1.0
  C  C142  1  0.12769052  0.43297829  0.02822776  1.0
  C  C143  1  0.13959559  0.61467216  0.01249360  1.0
  C  C144  1  0.66257463  0.99206297  0.56733892  1.0
  C  C145  1  0.66522987  0.08188084  0.56013786  1.0
  C  C146  1  0.10975901  0.48976059  0.07375431  1.0
  C  C147  1  0.11597215  0.57840534  0.06601158  1.0
  C  C148  1  0.62088555  0.79922668  0.57559915  1.0
  C  C149  1  0.61121929  0.28461762  0.54131913  1.0
  C  C150  1  0.09178722  0.28957489  0.08042535  1.0
  C  C151  1  0.10173672  0.77630362  0.04274005  1.0
  C  C152  1  0.26663709  0.38543826  0.45812207  1.0
  C  C153  1  0.74025504  0.48931262  0.47431967  1.0
  C  C154  1  0.75410916  0.87592378  0.95602126  1.0
  C  C155  1  0.22729872  0.98787682  0.97495266  1.0
  C  C156  1  0.61518934  0.80285701  0.48252355  1.0
  C  C157  1  0.60752537  0.27271909  0.44894683  1.0
  C  C158  1  0.08518447  0.29769278  0.98725008  1.0
  C  C159  1  0.08878432  0.75833156  0.95183307  1.0
  C  C160  1  0.27182784  0.38891070  0.55075742  1.0
  C  C161  1  0.74024308  0.48493390  0.56797392  1.0
  C  C162  1  0.76198275  0.87074530  0.04872766  1.0
  C  C163  1  0.22912469  0.98197101  0.06853940  1.0
  C  C164  1  0.33835281  0.59385253  0.38201628  1.0
  C  C165  1  0.57971171  0.44648073  0.26609926  1.0
  C  C166  1  0.82600060  0.08775037  0.87901888  1.0
  C  C167  1  0.12273917  0.91842800  0.78795667  1.0
  C  C168  1  0.38323734  0.71510215  0.55292154  1.0
  C  C169  1  0.52517979  0.38859697  0.67309057  1.0
  C  C170  1  0.85927972  0.19641506  0.05499580  1.0
  C  C171  1  0.02055603  0.87106770  0.17261927  1.0
  C  C172  1  0.29629653  0.69701910  0.57220994  1.0
  C  C173  1  0.57866476  0.41493067  0.71392473  1.0
  C  C174  1  0.77427928  0.17373258  0.07398457  1.0
  C  C175  1  0.07412192  0.90015627  0.21235030  1.0
  N  N176  1  0.39396898  0.57133941  0.54335093  1.0
  N  N177  1  0.51944934  0.53119644  0.65456884  1.0
  N  N178  1  0.87696377  0.05239136  0.04347774  1.0
  N  N179  1  0.00446160  0.01515018  0.15513057  1.0
  N  N180  1  0.47269844  0.62092003  0.40535999  1.0
  N  N181  1  0.49244323  0.40553843  0.33599868  1.0
  N  N182  1  0.96198165  0.10870601  0.90418215  1.0
  N  N183  1  0.00109783  0.89285080  0.83875762  1.0
  N  N184  1  0.59413393  0.72490046  0.56104109  1.0
  N  N185  1  0.56779503  0.36367230  0.51838866  1.0
  N  N186  1  0.06563815  0.21595635  0.06431776  1.0
  N  N187  1  0.05923669  0.85492525  0.01852881  1.0
  N  N188  1  0.35431615  0.38968483  0.46984426  1.0
  N  N189  1  0.65438856  0.52904262  0.49425173  1.0
  N  N190  1  0.84282407  0.87644681  0.96757135  1.0
  N  N191  1  0.14102990  0.02470701  0.99567158  1.0
  N  N192  1  0.59078076  0.72767351  0.50313438  1.0
  N  N193  1  0.56562205  0.35626677  0.46127980  1.0
  N  N194  1  0.06163569  0.22135085  0.00642733  1.0
  N  N195  1  0.05130161  0.84358209  0.96239272  1.0
  N  N196  1  0.35770140  0.39102603  0.52853579  1.0
  N  N197  1  0.65464472  0.52545423  0.55298381  1.0
  N  N198  1  0.84809512  0.87212718  0.02641287  1.0
  N  N199  1  0.14234213  0.02016517  0.05432371  1.0
  N  N200  1  0.41516356  0.56017025  0.41103413  1.0
  N  N201  1  0.54605153  0.46727225  0.31800634  1.0
  N  N202  1  0.90182255  0.05012892  0.90794887  1.0
  N  N203  1  0.08086067  0.92858901  0.83917671  1.0
  N  N204  1  0.44295524  0.63834924  0.53681838  1.0
  N  N205  1  0.49120463  0.45727069  0.63723974  1.0
  N  N206  1  0.92223622  0.12216068  0.03786517  1.0
  N  N207  1  0.98035889  0.93908381  0.13794871  1.0
  O  O208  1  0.91357448  0.23158388  0.45290153  1.0
  O  O209  1  0.10037496  0.31283042  0.38101785  1.0
  O  O210  1  0.39168253  0.73268272  0.95472433  1.0
  O  O211  1  0.58587832  0.80464048  0.87952322  1.0
  O  O212  1  0.90581016  0.35027915  0.38733936  1.0
  O  O213  1  0.10155505  0.19713572  0.44588250  1.0
  O  O214  1  0.39023678  0.84514626  0.88586397  1.0
  O  O215  1  0.58106695  0.69084486  0.94569329  1.0
  O  O216  1  0.47342629  0.76015125  0.35890696  1.0
  O  O217  1  0.44710786  0.28030800  0.30368714  1.0
  O  O218  1  0.96867276  0.24849293  0.86069109  1.0
  O  O219  1  0.92210639  0.82298157  0.77683819  1.0
  O  O220  1  0.24525652  0.39071117  0.40331506  1.0
  O  O221  1  0.75857701  0.48835124  0.41818781  1.0
  O  O222  1  0.73099403  0.88546151  0.90135409  1.0
  O  O223  1  0.24538818  0.98997503  0.91870176  1.0
  O  O224  1  0.25093316  0.39196096  0.60752652  1.0
  O  O225  1  0.75912698  0.47397577  0.62381846  1.0
  O  O226  1  0.74225469  0.86923772  0.10567314  1.0
  O  O227  1  0.24941672  0.97068333  0.12415151  1.0
