# generated using pymatgen
data_Zn2H32C41(N5O)2
_symmetry_space_group_name_H-M   'P 1'
_cell_length_a   19.70555954
_cell_length_b   19.73412778
_cell_length_c   20.80927996
_cell_angle_alpha   105.70099704
_cell_angle_beta   108.60489086
_cell_angle_gamma   111.91531472
_symmetry_Int_Tables_number   1
_chemical_formula_structural   Zn2H32C41(N5O)2
_chemical_formula_sum   'Zn4 H64 C82 N20 O4'
_cell_volume   6378.05982248
_cell_formula_units_Z   2
loop_
 _symmetry_equiv_pos_site_id
 _symmetry_equiv_pos_as_xyz
  1  'x, y, z'
loop_
 _atom_site_type_symbol
 _atom_site_label
 _atom_site_symmetry_multiplicity
 _atom_site_fract_x
 _atom_site_fract_y
 _atom_site_fract_z
 _atom_site_occupancy
  Zn  Zn0  1  0.39948939  0.40011981  0.50668651  1.0
  Zn  Zn1  1  0.60849984  0.60911816  0.50855759  1.0
  Zn  Zn2  1  0.40521467  0.49568599  0.39922498  1.0
  Zn  Zn3  1  0.60130597  0.49770013  0.60323994  1.0
  H  H4  1  0.37586084  0.23602261  0.39108068  1.0
  H  H5  1  0.83838062  0.22465352  0.28529913  1.0
  H  H6  1  0.92418602  0.50425386  0.44925923  1.0
  H  H7  1  0.93579830  0.45473973  0.31386085  1.0
  H  H8  1  0.77240233  0.32029047  0.24211351  1.0
  H  H9  1  0.41922721  0.64178714  0.20259945  1.0
  H  H10  1  0.39077735  0.53049101  0.24807555  1.0
  H  H11  1  0.41295426  0.66041930  0.08727466  1.0
  H  H12  1  0.33658297  0.55275975  0.85018539  1.0
  H  H13  1  0.34488318  0.52144933  0.72953728  1.0
  H  H14  1  0.59245872  0.74115588  0.97209888  1.0
  H  H15  1  0.61563184  0.75277774  0.63299823  1.0
  H  H16  1  0.64019410  0.65856577  0.13234551  1.0
  H  H17  1  0.59893694  0.71736418  0.85123538  1.0
  H  H18  1  0.88937677  0.75384079  0.86928390  1.0
  H  H19  1  0.02682007  0.86516798  0.97681178  1.0
  H  H20  1  0.23002879  0.99444369  0.16124467  1.0
  H  H21  1  0.33048894  0.11981251  0.28263737  1.0
  H  H22  1  0.94370741  0.85512340  0.72049051  1.0
  H  H23  1  0.24553568  0.13811365  0.03839531  1.0
  H  H24  1  0.07918710  0.96919166  0.82999066  1.0
  H  H25  1  0.34497992  0.26383137  0.15860844  1.0
  H  H26  1  0.79880290  0.62287285  0.74954680  1.0
  H  H27  1  0.65512003  0.68627840  0.39322349  1.0
  H  H28  1  0.35575038  0.23427146  0.53870955  1.0
  H  H29  1  0.61173968  0.35334291  0.49670733  1.0
  H  H30  1  0.41889073  0.38139434  0.26945022  1.0
  H  H31  1  0.35789518  0.51498535  0.61300862  1.0
  H  H32  1  0.14270294  0.39953159  0.24639242  1.0
  H  H33  1  0.18121990  0.49739526  0.31731010  1.0
  H  H34  1  0.24889358  0.47515281  0.28732484  1.0
  H  H35  1  0.85165704  0.89922077  0.73929050  1.0
  H  H36  1  0.74231557  0.84654775  0.70777047  1.0
  H  H37  1  0.35057701  0.61401671  0.48407703  1.0
  H  H38  1  0.78185143  0.89885727  0.65829536  1.0
  H  H39  1  0.08669751  0.29072950  0.46143115  1.0
  H  H40  1  0.14810411  0.39650314  0.52633454  1.0
  H  H41  1  0.15721677  0.32227705  0.55771528  1.0
  H  H42  1  0.68303400  0.68340379  0.79331967  1.0
  H  H43  1  0.63548861  0.61985295  0.83040072  1.0
  H  H44  1  0.66973140  0.58432562  0.76614727  1.0
  H  H45  1  0.65515287  0.07313306  0.58261762  1.0
  H  H46  1  0.56635534  0.01112954  0.49057640  1.0
  H  H47  1  0.64801737  0.98782668  0.51555074  1.0
  H  H48  1  0.42365133  0.97386371  0.48894098  1.0
  H  H49  1  0.75505165  0.54080406  0.40413819  1.0
  H  H50  1  0.65725692  0.52314619  0.34348125  1.0
  H  H51  1  0.72004749  0.60898204  0.43376419  1.0
  H  H52  1  0.85690460  0.23025411  0.44595116  1.0
  H  H53  1  0.81033729  0.28572796  0.47637675  1.0
  H  H54  1  0.75492754  0.20390709  0.38421152  1.0
  H  H55  1  0.94401777  0.40460433  0.56963380  1.0
  H  H56  1  0.99413438  0.50282111  0.57207307  1.0
  H  H57  1  0.05491197  0.46641563  0.61999631  1.0
  H  H58  1  0.63966872  0.57727018  0.26753651  1.0
  H  H59  1  0.33505284  0.87644256  0.54404779  1.0
  H  H60  1  0.69500856  0.61713064  0.22135671  1.0
  H  H61  1  0.71161708  0.68257965  0.30914952  1.0
  H  H62  1  0.66777530  0.36567898  0.71595518  1.0
  H  H63  1  0.65723679  0.30748837  0.62845841  1.0
  H  H64  1  0.68884868  0.41256407  0.65711359  1.0
  H  H65  1  0.38980040  0.02017824  0.67171731  1.0
  H  H66  1  0.52943496  0.00979453  0.75109284  1.0
  H  H67  1  0.61985209  0.10810830  0.69772753  1.0
  C  C68  1  0.39087410  0.28263351  0.37139598  1.0
  C  C69  1  0.22301617  0.37438244  0.44432257  1.0
  C  C70  1  0.55704963  0.58468184  0.71507615  1.0
  C  C71  1  0.66295242  0.49472091  0.43724593  1.0
  C  C72  1  0.41655354  0.63668314  0.51451072  1.0
  C  C73  1  0.48454614  0.58315321  0.71524362  1.0
  C  C74  1  0.48012552  0.71364528  0.57453986  1.0
  C  C75  1  0.17028337  0.38785933  0.39091694  1.0
  C  C76  1  0.82572432  0.73137880  0.72469594  1.0
  C  C77  1  0.52584571  0.97687116  0.59176299  1.0
  C  C78  1  0.44755389  0.98110568  0.54703106  1.0
  C  C79  1  0.66462988  0.42390071  0.43871780  1.0
  C  C80  1  0.48358229  0.19290148  0.60681732  1.0
  C  C81  1  0.47571306  0.78464310  0.60163452  1.0
  C  C82  1  0.55672401  0.05596118  0.66327793  1.0
  C  C83  1  0.45415839  0.56581568  0.29358144  1.0
  C  C84  1  0.47890642  0.06157225  0.61840476  1.0
  C  C85  1  0.50633958  0.00224963  0.69291543  1.0
  C  C86  1  0.47570149  0.92179149  0.62186643  1.0
  C  C87  1  0.42865468  0.00692793  0.64883982  1.0
  C  C88  1  0.39823656  0.92845668  0.57781363  1.0
  C  C89  1  0.48163537  0.13308263  0.61451595  1.0
  C  C90  1  0.52671404  0.61738020  0.29406579  1.0
  C  C91  1  0.47452174  0.84834968  0.61730970  1.0
  C  C92  1  0.85721460  0.28685941  0.32187837  1.0
  C  C93  1  0.85168034  0.31262863  0.39740584  1.0
  C  C94  1  0.70739115  0.39167965  0.41021139  1.0
  C  C95  1  0.55969531  0.33444135  0.61845984  1.0
  C  C96  1  0.09006188  0.37403417  0.37431641  1.0
  C  C97  1  0.82131965  0.33976244  0.29799137  1.0
  C  C98  1  0.81551072  0.36715720  0.37417114  1.0
  C  C99  1  0.91104890  0.41464045  0.33788293  1.0
  C  C100  1  0.94853624  0.36169470  0.36172047  1.0
  C  C101  1  0.48750641  0.26186471  0.59715515  1.0
  C  C102  1  0.90659087  0.44231029  0.41340216  1.0
  C  C103  1  0.94203934  0.38885337  0.43734683  1.0
  C  C104  1  0.75231406  0.37546875  0.38782952  1.0
  C  C105  1  0.02132156  0.36409046  0.36209231  1.0
  C  C106  1  0.47448687  0.61293940  0.78190792  1.0
  C  C107  1  0.58906102  0.64412946  0.36688961  1.0
  C  C108  1  0.54217423  0.67878502  0.85088018  1.0
  C  C109  1  0.53859874  0.69360156  0.91843545  1.0
  C  C110  1  0.46529767  0.64492724  0.91857488  1.0
  C  C111  1  0.39382922  0.58783734  0.84927712  1.0
  C  C112  1  0.42312646  0.53332777  0.63921169  1.0
  C  C113  1  0.39887515  0.57111919  0.78218558  1.0
  C  C114  1  0.46347477  0.65536483  0.12248618  1.0
  C  C115  1  0.46712627  0.64412429  0.18618247  1.0
  C  C116  1  0.52674559  0.66027921  0.10321230  1.0
  C  C117  1  0.53138233  0.63571307  0.23141839  1.0
  C  C118  1  0.59558068  0.64154488  0.21231038  1.0
  C  C119  1  0.42204360  0.27460652  0.56312095  1.0
  C  C120  1  0.59252004  0.65527006  0.14938280  1.0
  C  C121  1  0.34290611  0.20185394  0.23026385  1.0
  C  C122  1  0.32103964  0.20484972  0.15974378  1.0
  C  C123  1  0.55212087  0.70744022  0.59098079  1.0
  C  C124  1  0.26549453  0.13508440  0.09227012  1.0
  C  C125  1  0.22979477  0.05871296  0.09282284  1.0
  C  C126  1  0.25681856  0.05419127  0.16195154  1.0
  C  C127  1  0.31275931  0.12447141  0.22941934  1.0
  C  C128  1  0.00804476  0.86156852  0.92019699  1.0
  C  C129  1  0.93191812  0.79968756  0.85995202  1.0
  C  C130  1  0.06168785  0.92348055  0.90964277  1.0
  C  C131  1  0.62408336  0.40316770  0.48103438  1.0
  C  C132  1  0.90662355  0.79636156  0.78699766  1.0
  C  C133  1  0.96137853  0.85771252  0.77678285  1.0
  C  C134  1  0.21907179  0.42209738  0.35849422  1.0
  C  C135  1  0.03718311  0.92079738  0.83731801  1.0
  C  C136  1  0.41266795  0.35658153  0.30923683  1.0
  C  C137  1  0.38494948  0.27607315  0.30028643  1.0
  C  C138  1  0.19694454  0.45005518  0.29936266  1.0
  C  C139  1  0.79013424  0.86333049  0.68935389  1.0
  C  C140  1  0.14695593  0.33813248  0.51029715  1.0
  C  C141  1  0.64067067  0.62019939  0.77951085  1.0
  C  C142  1  0.61273152  0.01047534  0.53685017  1.0
  C  C143  1  0.70055520  0.54475720  0.40289953  1.0
  C  C144  1  0.81682079  0.25526043  0.42780123  1.0
  C  C145  1  0.78137444  0.65082722  0.71364762  1.0
  C  C146  1  0.99897262  0.44847267  0.56997775  1.0
  C  C147  1  0.66399296  0.62907831  0.25482526  1.0
  C  C148  1  0.64797581  0.35641000  0.65701075  1.0
  C  C149  1  0.77331589  0.73150235  0.65984611  1.0
  N  N150  1  0.41770988  0.35993408  0.41705841  1.0
  N  N151  1  0.52920754  0.66609472  0.03795290  1.0
  N  N152  1  0.16277495  0.98637469  0.03014557  1.0
  N  N153  1  0.62382080  0.51281939  0.47566563  1.0
  N  N154  1  0.13666252  0.99223280  0.96862903  1.0
  N  N155  1  0.47217452  0.56218845  0.36009443  1.0
  N  N156  1  0.53742722  0.38519724  0.59830465  1.0
  N  N157  1  0.55627259  0.61140437  0.40613968  1.0
  N  N158  1  0.45233133  0.34841031  0.56421068  1.0
  N  N159  1  0.60085734  0.45768244  0.50336145  1.0
  N  N160  1  0.43127772  0.40564154  0.37903057  1.0
  N  N161  1  0.53251438  0.63361757  0.54321432  1.0
  N  N162  1  0.45609340  0.50747158  0.59735171  1.0
  N  N163  1  0.29283966  0.42705799  0.38948921  1.0
  N  N164  1  0.71030170  0.60698384  0.64822694  1.0
  N  N165  1  0.70506065  0.65775112  0.61505164  1.0
  N  N166  1  0.29543077  0.39753657  0.44293123  1.0
  N  N167  1  0.53804548  0.53927557  0.64382150  1.0
  N  N168  1  0.44943370  0.59042986  0.49649957  1.0
  N  N169  1  0.46000531  0.64409790  0.98437399  1.0
  O  O170  1  0.78112411  0.79131967  0.63687966  1.0
  O  O171  1  0.21384201  0.34344787  0.49350388  1.0
  O  O172  1  0.57379728  0.95612814  0.56395426  1.0
  O  O173  1  0.00784124  0.41300899  0.50546321  1.0
