# generated using pymatgen
data_Al3H18C39O16
_symmetry_space_group_name_H-M   'P 1'
_cell_length_a   12.29176991
_cell_length_b   12.46633845
_cell_length_c   26.93281233
_cell_angle_alpha   82.33975382
_cell_angle_beta   82.17679021
_cell_angle_gamma   64.31661054
_symmetry_Int_Tables_number   1
_chemical_formula_structural   Al3H18C39O16
_chemical_formula_sum   'Al6 H36 C78 O32'
_cell_volume   3671.86911569
_cell_formula_units_Z   2
loop_
 _symmetry_equiv_pos_site_id
 _symmetry_equiv_pos_as_xyz
  1  'x, y, z'
loop_
 _atom_site_type_symbol
 _atom_site_label
 _atom_site_symmetry_multiplicity
 _atom_site_fract_x
 _atom_site_fract_y
 _atom_site_fract_z
 _atom_site_occupancy
  Al  Al0  1  0.60343223  0.59445638  0.48884718  1.0
  Al  Al1  1  0.59143378  0.33956734  0.50001417  1.0
  Al  Al2  1  0.35667459  0.56092429  0.50302643  1.0
  Al  Al3  1  0.08231533  0.06319679  0.02041714  1.0
  Al  Al4  1  0.33829720  0.07854457  0.00352775  1.0
  Al  Al5  1  0.11282796  0.30942307  0.00230048  1.0
  H  H6  1  0.10488783  0.95128518  0.78113080  1.0
  H  H7  1  0.66632370  0.35558553  0.74205227  1.0
  H  H8  1  0.74993480  0.15052603  0.83304849  1.0
  H  H9  1  0.17992057  0.25358465  0.71475947  1.0
  H  H10  1  0.02996078  0.47622657  0.27016364  1.0
  H  H11  1  0.58738198  0.42161998  0.19588709  1.0
  H  H12  1  0.44601361  0.54815904  0.19183608  1.0
  H  H13  1  0.56269062  0.55465226  0.22167926  1.0
  H  H14  1  0.41016109  0.53072565  0.28763282  1.0
  H  H15  1  0.54708189  0.40093630  0.29050375  1.0
  H  H16  1  0.68804139  0.22217595  0.25842402  1.0
  H  H17  1  0.00563255  0.10855087  0.71178753  1.0
  H  H18  1  0.67584333  0.08474946  0.27324680  1.0
  H  H19  1  0.77008045  0.10277945  0.21985704  1.0
  H  H20  1  0.57712505  0.11698773  0.19241497  1.0
  H  H21  1  0.59123387  0.25145570  0.17671803  1.0
  H  H22  1  0.41155408  0.98811997  0.25803593  1.0
  H  H23  1  0.56171283  0.97611165  0.25225177  1.0
  H  H24  1  0.51285109  0.89745548  0.30337352  1.0
  H  H25  1  0.51726149  0.08207528  0.33118555  1.0
  H  H26  1  0.37201996  0.08488772  0.34078261  1.0
  H  H27  1  0.28510713  0.68037577  0.87711696  1.0
  H  H28  1  0.24413596  0.51855614  0.21376113  1.0
  H  H29  1  0.25448992  0.59959698  0.83546045  1.0
  H  H30  1  0.36957709  0.52348049  0.87715487  1.0
  H  H31  1  0.46227625  0.54814217  0.78939932  1.0
  H  H32  1  0.49487891  0.62481982  0.83186070  1.0
  H  H33  1  0.69574036  0.59988632  0.75467173  1.0
  H  H34  1  0.21853362  0.20963134  0.24966881  1.0
  H  H35  1  0.23102372  0.02750378  0.69668437  1.0
  H  H36  1  0.20668630  0.72160995  0.74649906  1.0
  H  H37  1  0.53103447  0.73139489  0.72001714  1.0
  H  H38  1  0.42838043  0.96354991  0.75496906  1.0
  H  H39  1  0.93469588  0.45586409  0.69726160  1.0
  H  H40  1  0.73674388  0.67615032  0.45108105  1.0
  H  H41  1  0.97384676  0.96393568  0.06770229  1.0
  C  C42  1  0.73527318  0.37844726  0.55905904  1.0
  C  C43  1  0.31038528  0.86820857  0.79947695  1.0
  C  C44  1  0.43657228  0.78077756  0.73434649  1.0
  C  C45  1  0.41146769  0.37365121  0.58311360  1.0
  C  C46  1  0.32604179  0.81622271  0.70191170  1.0
  C  C47  1  0.36792931  0.73701737  0.77994798  1.0
  C  C48  1  0.25622534  0.77528276  0.74873426  1.0
  C  C49  1  0.30553986  0.89129919  0.84979128  1.0
  C  C50  1  0.33710974  0.78948627  0.65163221  1.0
  C  C51  1  0.91114495  0.38718962  0.71907917  1.0
  C  C52  1  0.81468920  0.40902627  0.76570071  1.0
  C  C53  1  0.37537645  0.32905725  0.73288518  1.0
  C  C54  1  0.93993597  0.28105181  0.89130392  1.0
  C  C55  1  0.79465865  0.34112813  0.60495145  1.0
  C  C56  1  0.00040763  0.27366314  0.74937149  1.0
  C  C57  1  0.38624856  0.70973681  0.56147345  1.0
  C  C58  1  0.90287766  0.29452268  0.79634277  1.0
  C  C59  1  0.94968304  0.19481371  0.72681115  1.0
  C  C60  1  0.85972902  0.30950007  0.69678990  1.0
  C  C61  1  0.85312322  0.21469811  0.77241055  1.0
  C  C62  1  0.76263233  0.33112045  0.74389662  1.0
  C  C63  1  0.92371404  0.28703378  0.84726831  1.0
  C  C64  1  0.38309367  0.33874556  0.68249500  1.0
  C  C65  1  0.82891053  0.32194245  0.64692848  1.0
  C  C66  1  0.22417255  0.37856326  0.27880893  1.0
  C  C67  1  0.28691410  0.42931770  0.23308422  1.0
  C  C68  1  0.32291511  0.28576197  0.11271360  1.0
  C  C69  1  0.72681611  0.39437466  0.41837868  1.0
  C  C70  1  0.36800892  0.34402427  0.40115546  1.0
  C  C71  1  0.27344235  0.25726071  0.25320636  1.0
  C  C72  1  0.33539164  0.30936833  0.20719004  1.0
  C  C73  1  0.39109478  0.20694097  0.28147899  1.0
  C  C74  1  0.34170717  0.32823351  0.30749623  1.0
  C  C75  1  0.39111699  0.34820972  0.63632781  1.0
  C  C76  1  0.45516940  0.25834265  0.23578629  1.0
  C  C77  1  0.40513881  0.38067148  0.26087935  1.0
  C  C78  1  0.32937579  0.29743205  0.15635987  1.0
  C  C79  1  0.35159758  0.33769457  0.35812583  1.0
  C  C80  1  0.32855593  0.87481770  0.13298075  1.0
  C  C81  1  0.39554132  0.36969695  0.44658057  1.0
  C  C82  1  0.34026197  0.84054929  0.17762795  1.0
  C  C83  1  0.35007971  0.80815404  0.22685345  1.0
  C  C84  1  0.35676213  0.78427101  0.27260651  1.0
  C  C85  1  0.36649556  0.76003946  0.32219338  1.0
  C  C86  1  0.26906904  0.94563009  0.72152035  1.0
  C  C87  1  0.37669570  0.73844521  0.36754712  1.0
  C  C88  1  0.90778026  0.31568279  0.13253493  1.0
  C  C89  1  0.87934225  0.33308914  0.17720679  1.0
  C  C90  1  0.85145866  0.34897325  0.22634265  1.0
  C  C91  1  0.82886784  0.35919423  0.27200099  1.0
  C  C92  1  0.80180198  0.36864579  0.32158390  1.0
  C  C93  1  0.40097528  0.69668072  0.41905700  1.0
  C  C94  1  0.77539720  0.37626693  0.36695837  1.0
  C  C95  1  0.28616923  0.94917952  0.94245645  1.0
  C  C96  1  0.30997140  0.27083610  0.92772164  1.0
  C  C97  1  0.19973135  0.90332513  0.76720170  1.0
  C  C98  1  0.97773909  0.26218820  0.94109364  1.0
  C  C99  1  0.29524083  0.93548875  0.08432341  1.0
  C  C100  1  0.29993143  0.26153979  0.06576101  1.0
  C  C101  1  0.96245496  0.27982637  0.08319694  1.0
  C  C102  1  0.34210962  0.29741987  0.87576177  1.0
  C  C103  1  0.35558558  0.30880310  0.82968457  1.0
  C  C104  1  0.36753069  0.32033823  0.77930582  1.0
  C  C105  1  0.82488164  0.11988159  0.80243645  1.0
  C  C106  1  0.13168613  0.23693547  0.75131492  1.0
  C  C107  1  0.09676396  0.43977025  0.29944169  1.0
  C  C108  1  0.30363008  0.90932117  0.89338940  1.0
  C  C109  1  0.47214918  0.45351391  0.26670117  1.0
  C  C110  1  0.51973174  0.49665801  0.21620955  1.0
  C  C111  1  0.57801353  0.19273431  0.20905735  1.0
  C  C112  1  0.68354104  0.14826083  0.24208992  1.0
  C  C113  1  0.44235614  0.08771858  0.31109545  1.0
  C  C114  1  0.48457229  0.98162731  0.27936174  1.0
  C  C115  1  0.42073134  0.62395582  0.81334527  1.0
  C  C116  1  0.32701144  0.60597343  0.85293167  1.0
  C  C117  1  0.73785282  0.52734056  0.78478880  1.0
  C  C118  1  0.35214683  0.76255538  0.60849449  1.0
  C  C119  1  0.38000591  0.90896498  0.75261424  1.0
  O  O120  1  0.49080406  0.69015739  0.54048726  1.0
  O  O121  1  0.20905918  0.34556195  0.94710922  1.0
  O  O122  1  0.00399960  0.34310845  0.95457078  1.0
  O  O123  1  0.70005264  0.48706511  0.54346474  1.0
  O  O124  1  0.98479017  0.17519867  0.07439711  1.0
  O  O125  1  0.18649380  0.96777032  0.07589736  1.0
  O  O126  1  0.37737664  0.95545021  0.05480838  1.0
  O  O127  1  0.37334432  0.16223214  0.04811223  1.0
  O  O128  1  0.20426731  0.33817301  0.04586041  1.0
  O  O129  1  0.98831387  0.35708948  0.05330033  1.0
  O  O130  1  0.17847283  0.15191125  0.00889597  1.0
  O  O131  1  0.49701112  0.29841549  0.46398730  1.0
  O  O132  1  0.71905486  0.29837621  0.53906154  1.0
  O  O133  1  0.51066870  0.30209926  0.56130207  1.0
  O  O134  1  0.33160082  0.46885275  0.56314157  1.0
  O  O135  1  0.30846181  0.68169681  0.54499505  1.0
  O  O136  1  0.50020294  0.68565040  0.43220906  1.0
  O  O137  1  0.71256623  0.48955545  0.43536842  1.0
  O  O138  1  0.69752562  0.31222115  0.44173060  1.0
  O  O139  1  0.88113461  0.01410690  0.79528435  1.0
  O  O140  1  0.18611258  0.19006416  0.78871286  1.0
  O  O141  1  0.06315286  0.44993507  0.34408069  1.0
  O  O142  1  0.31982435  0.46604304  0.46604211  1.0
  O  O143  1  0.71842936  0.54701135  0.82902603  1.0
  O  O144  1  0.32012433  0.67012845  0.44632742  1.0
  O  O145  1  0.51671681  0.49700317  0.49687110  1.0
  O  O146  1  0.98650033  0.16677885  0.96669908  1.0
  O  O147  1  0.18890066  0.96164689  0.96906340  1.0
  O  O148  1  0.37024387  0.97353097  0.95537935  1.0
  O  O149  1  0.38127196  0.17217092  0.94905482  1.0
  O  O150  1  0.68275397  0.68323450  0.48136688  1.0
  O  O151  1  0.99213804  0.98471385  0.03270974  1.0
