# generated using pymatgen
data_AlH8C16IBrO5
_symmetry_space_group_name_H-M   'P 1'
_cell_length_a   6.62985460
_cell_length_b   21.14199600
_cell_length_c   21.88691438
_cell_angle_alpha   90.02629723
_cell_angle_beta   90.01703833
_cell_angle_gamma   96.27572922
_symmetry_Int_Tables_number   1
_chemical_formula_structural   AlH8C16IBrO5
_chemical_formula_sum   'Al4 H32 C64 I4 Br4 O20'
_cell_volume   3049.46780641
_cell_formula_units_Z   4
loop_
 _symmetry_equiv_pos_site_id
 _symmetry_equiv_pos_as_xyz
  1  'x, y, z'
loop_
 _atom_site_type_symbol
 _atom_site_label
 _atom_site_symmetry_multiplicity
 _atom_site_fract_x
 _atom_site_fract_y
 _atom_site_fract_z
 _atom_site_occupancy
  Al  Al0  1  0.01940254  0.31405002  0.50171668  1.0
  Al  Al1  1  0.97349964  0.68682817  0.00161227  1.0
  Al  Al2  1  0.51987233  0.31398965  0.50180592  1.0
  Al  Al3  1  0.47306196  0.68699839  0.00146219  1.0
  H  H4  1  0.53427586  0.18797337  0.64790037  1.0
  H  H5  1  0.45963979  0.81188856  0.14840425  1.0
  H  H6  1  0.96333199  0.85270243  0.91407644  1.0
  H  H7  1  0.02854691  0.14723155  0.41594980  1.0
  H  H8  1  0.59042101  0.83482153  0.87667538  1.0
  H  H9  1  0.40142843  0.16483066  0.37835851  1.0
  H  H10  1  0.43507104  0.02792703  0.77767425  1.0
  H  H11  1  0.55742004  0.97095315  0.27998552  1.0
  H  H12  1  0.87625138  0.05149125  0.65814460  1.0
  H  H13  1  0.11621813  0.94903371  0.15973185  1.0
  H  H14  1  0.97495725  0.94553127  0.84369280  1.0
  H  H15  1  0.01648168  0.05361857  0.34638974  1.0
  H  H16  1  0.90849716  0.14998384  0.59581144  1.0
  H  H17  1  0.08440479  0.85145783  0.09601438  1.0
  H  H18  1  0.50425443  0.09131163  0.71189801  1.0
  H  H19  1  0.48904295  0.90763163  0.21379084  1.0
  H  H20  1  0.60276023  0.92656216  0.80436099  1.0
  H  H21  1  0.38876135  0.07246434  0.30662708  1.0
  H  H22  1  0.32770885  0.67514722  0.69538122  1.0
  H  H23  1  0.64558901  0.32599807  0.19593883  1.0
  H  H24  1  0.40107320  0.62913082  0.59924535  1.0
  H  H25  1  0.57791518  0.37256157  0.09993040  1.0
  H  H26  1  0.23144580  0.41251702  0.68365635  1.0
  H  H27  1  0.76494294  0.58858513  0.18402638  1.0
  H  H28  1  0.09373310  0.49245793  0.94541587  1.0
  H  H29  1  0.90706431  0.50730710  0.44521002  1.0
  H  H30  1  0.17648280  0.39711775  0.88966867  1.0
  H  H31  1  0.83085198  0.60366925  0.38993907  1.0
  H  H32  1  0.78353011  0.35219563  0.57221727  1.0
  H  H33  1  0.21006485  0.64951456  0.07233865  1.0
  H  H34  1  0.27847384  0.33426537  0.42489753  1.0
  H  H35  1  0.71430865  0.66557770  0.92491187  1.0
  C  C36  1  0.72969241  0.21957304  0.43991631  1.0
  C  C37  1  0.26290620  0.78078296  0.93894739  1.0
  C  C38  1  0.80374475  0.39021753  0.41735316  1.0
  C  C39  1  0.18769678  0.61011663  0.91752033  1.0
  C  C40  1  0.30595909  0.40848392  0.56636989  1.0
  C  C41  1  0.68714918  0.59297612  0.06682750  1.0
  C  C42  1  0.23842344  0.23298912  0.57885542  1.0
  C  C43  1  0.75513263  0.76824751  0.07843117  1.0
  C  C44  1  0.22209832  0.17556208  0.61863122  1.0
  C  C45  1  0.77130287  0.82519579  0.11886541  1.0
  C  C46  1  0.38968790  0.15821496  0.65135030  1.0
  C  C47  1  0.60388101  0.84182364  0.15210254  1.0
  C  C48  1  0.37134778  0.10370500  0.68721536  1.0
  C  C49  1  0.62191532  0.89580581  0.18874847  1.0
  C  C50  1  0.18534024  0.06414543  0.69104402  1.0
  C  C51  1  0.80745891  0.93557123  0.19286811  1.0
  C  C52  1  0.02013157  0.08166226  0.65695439  1.0
  C  C53  1  0.97261819  0.91872538  0.15831219  1.0
  C  C54  1  0.03748536  0.13670621  0.62185171  1.0
  C  C55  1  0.95553452  0.86419676  0.12241989  1.0
  C  C56  1  0.10865521  0.92051823  0.84966954  1.0
  C  C57  1  0.88290513  0.07877333  0.35205960  1.0
  C  C58  1  0.10213932  0.86923735  0.88950388  1.0
  C  C59  1  0.88970946  0.13047011  0.39144600  1.0
  C  C60  1  0.45682427  0.85959607  0.86895903  1.0
  C  C61  1  0.53504985  0.14000007  0.37074924  1.0
  C  C62  1  0.46278280  0.91075802  0.82882163  1.0
  C  C63  1  0.52888021  0.08845258  0.33098919  1.0
  C  C64  1  0.28757421  0.94113629  0.81742985  1.0
  C  C65  1  0.70402749  0.05796939  0.31982779  1.0
  C  C66  1  0.16501203  0.00730370  0.73044095  1.0
  C  C67  1  0.82728129  0.99205382  0.23279587  1.0
  C  C68  1  0.29790920  0.99426517  0.77430737  1.0
  C  C69  1  0.69423978  0.00478362  0.27673163  1.0
  C  C70  1  0.27541077  0.83792691  0.89891817  1.0
  C  C71  1  0.71666920  0.16198041  0.40048322  1.0
  C  C72  1  0.37494739  0.58123775  0.61812740  1.0
  C  C73  1  0.60786111  0.42040822  0.11875953  1.0
  C  C74  1  0.32090329  0.46728862  0.60520896  1.0
  C  C75  1  0.67104512  0.53420636  0.10568537  1.0
  C  C76  1  0.14178439  0.49680451  0.89786120  1.0
  C  C77  1  0.85628079  0.50338716  0.39786691  1.0
  C  C78  1  0.18673947  0.44272648  0.86611668  1.0
  C  C79  1  0.81499558  0.55800346  0.36640437  1.0
  C  C80  1  0.26002762  0.44810037  0.80679152  1.0
  C  C81  1  0.73920218  0.55326612  0.30731837  1.0
  C  C82  1  0.26408430  0.50623724  0.77359570  1.0
  C  C83  1  0.72798156  0.49494715  0.27403313  1.0
  C  C84  1  0.23047995  0.56257358  0.80861427  1.0
  C  C85  1  0.75779628  0.43816349  0.30887220  1.0
  C  C86  1  0.29805992  0.51221228  0.70801179  1.0
  C  C87  1  0.69136012  0.48918048  0.20853596  1.0
  C  C88  1  0.33621139  0.57393614  0.68140959  1.0
  C  C89  1  0.64692659  0.42757327  0.18205865  1.0
  C  C90  1  0.31193491  0.62860654  0.71729191  1.0
  C  C91  1  0.66651405  0.37254545  0.21786927  1.0
  C  C92  1  0.24930982  0.62257980  0.77650612  1.0
  C  C93  1  0.73202385  0.37808604  0.27685078  1.0
  C  C94  1  0.28088712  0.46019963  0.66725716  1.0
  C  C95  1  0.71198286  0.54110563  0.16771168  1.0
  C  C96  1  0.37119892  0.52861151  0.58061087  1.0
  C  C97  1  0.61694601  0.47301126  0.08111970  1.0
  C  C98  1  0.17943064  0.55664831  0.87160770  1.0
  C  C99  1  0.81258606  0.44373348  0.37160366  1.0
  I  I100  1  0.41667151  0.54147232  0.48608112  1.0
  I  I101  1  0.57620458  0.46000632  0.98645462  1.0
  I  I102  1  0.40111161  0.36680506  0.77913253  1.0
  I  I103  1  0.60733357  0.63643441  0.28016754  1.0
  Br  Br104  1  0.16809043  0.69783225  0.81232718  1.0
  Br  Br105  1  0.80882105  0.30195267  0.31205749  1.0
  Br  Br106  1  0.93080610  0.94714786  0.71473088  1.0
  Br  Br107  1  0.06096507  0.05252500  0.21741343  1.0
  O  O108  1  0.62633647  0.36617837  0.43255038  1.0
  O  O109  1  0.36509810  0.63466608  0.93224452  1.0
  O  O110  1  0.90701996  0.24711749  0.45032944  1.0
  O  O111  1  0.08580158  0.75317532  0.94955364  1.0
  O  O112  1  0.07304249  0.24971952  0.55806185  1.0
  O  O113  1  0.92049751  0.75180425  0.05734792  1.0
  O  O114  1  0.96998499  0.37837232  0.44143675  1.0
  O  O115  1  0.02185246  0.62147108  0.94215044  1.0
  O  O116  1  0.12841055  0.38071530  0.55769408  1.0
  O  O117  1  0.86459836  0.62094339  0.05848851  1.0
  O  O118  1  0.56505978  0.23820864  0.45917896  1.0
  O  O119  1  0.42782500  0.76254269  0.95845838  1.0
  O  O120  1  0.77196404  0.32154537  0.53905729  1.0
  O  O121  1  0.22133723  0.67976046  0.03887084  1.0
  O  O122  1  0.47167945  0.39085490  0.54709716  1.0
  O  O123  1  0.52158074  0.61037119  0.04710973  1.0
  O  O124  1  0.41459998  0.26118907  0.56801592  1.0
  O  O125  1  0.57895802  0.74010816  0.06741644  1.0
  O  O126  1  0.26947021  0.31263624  0.46406923  1.0
  O  O127  1  0.72332155  0.68781817  0.96378811  1.0
