# generated using pymatgen
data_ZnH10C15NO5
_symmetry_space_group_name_H-M   'P 1'
_cell_length_a   11.25677369
_cell_length_b   14.01325975
_cell_length_c   15.34554710
_cell_angle_alpha   90.39981712
_cell_angle_beta   92.37373419
_cell_angle_gamma   104.74340485
_symmetry_Int_Tables_number   1
_chemical_formula_structural   ZnH10C15NO5
_chemical_formula_sum   'Zn2 H20 C30 N2 O10'
_cell_volume   2338.57626714
_cell_formula_units_Z   2
loop_
 _symmetry_equiv_pos_site_id
 _symmetry_equiv_pos_as_xyz
  1  'x, y, z'
loop_
 _atom_site_type_symbol
 _atom_site_label
 _atom_site_symmetry_multiplicity
 _atom_site_fract_x
 _atom_site_fract_y
 _atom_site_fract_z
 _atom_site_occupancy
  Zn  Zn0  1  0.48663701  0.39674665  0.50608130  1.0
  Zn  Zn1  1  0.49768480  0.60153979  0.50493857  1.0
  H  H2  1  0.11544647  0.58592261  0.51498179  1.0
  H  H3  1  0.87237670  0.41615816  0.50513575  1.0
  H  H4  1  0.31808745  0.88954673  0.43752384  1.0
  H  H5  1  0.58649861  0.09169958  0.62775418  1.0
  H  H6  1  0.06982748  0.35920005  0.50966849  1.0
  H  H7  1  0.92100102  0.64246215  0.52304757  1.0
  H  H8  1  0.57219309  0.36640172  0.94571979  1.0
  H  H9  1  0.57553570  0.65698795  0.06897477  1.0
  H  H10  1  0.56943406  0.36545249  0.78345594  1.0
  H  H11  1  0.56264418  0.65434299  0.23053076  1.0
  H  H12  1  0.45291928  0.63383916  0.78054323  1.0
  H  H13  1  0.42670262  0.33837514  0.21872235  1.0
  H  H14  1  0.45021240  0.63411104  0.94282342  1.0
  H  H15  1  0.43601310  0.34051876  0.05852278  1.0
  H  H16  1  0.68157766  0.97623633  0.56423484  1.0
  H  H17  1  0.40697701  0.04443102  0.37004453  1.0
  H  H18  1  0.33452969  0.71503009  0.44391500  1.0
  H  H19  1  0.57614668  0.26759554  0.61834888  1.0
  H  H20  1  0.70715382  0.72907948  0.55487109  1.0
  H  H21  1  0.41862982  0.30029602  0.35634397  1.0
  C  C22  1  0.50667215  0.49779516  0.67467929  1.0
  C  C23  1  0.48829805  0.49750492  0.33240236  1.0
  C  C24  1  0.51029876  0.49992518  0.95596896  1.0
  C  C25  1  0.50629755  0.49893909  0.05190775  1.0
  C  C26  1  0.60138033  0.92149465  0.53746646  1.0
  C  C27  1  0.44454542  0.09005117  0.42739461  1.0
  C  C28  1  0.60492615  0.82176126  0.53626786  1.0
  C  C29  1  0.44551157  0.19073084  0.42612236  1.0
  C  C30  1  0.40907983  0.77630594  0.46871457  1.0
  C  C31  1  0.54117418  0.21476379  0.56499442  1.0
  C  C32  1  0.40075221  0.87281498  0.46545840  1.0
  C  C33  1  0.54655753  0.11760853  0.56965737  1.0
  C  C34  1  0.49936635  0.94801603  0.50121547  1.0
  C  C35  1  0.49594094  0.05275881  0.49928858  1.0
  C  C36  1  0.73450619  0.54445332  0.50835966  1.0
  C  C37  1  0.25516095  0.45915184  0.50625211  1.0
  C  C38  1  0.86992978  0.56520785  0.51512666  1.0
  C  C39  1  0.11942079  0.43706596  0.50956316  1.0
  C  C40  1  0.92855413  0.49223750  0.51165044  1.0
  C  C41  1  0.05998038  0.50944155  0.51302532  1.0
  C  C42  1  0.54386567  0.42442040  0.90981409  1.0
  C  C43  1  0.54107808  0.58715510  0.10168198  1.0
  C  C44  1  0.54356175  0.42397660  0.81919817  1.0
  C  C45  1  0.53486850  0.58611063  0.19194182  1.0
  C  C46  1  0.51037822  0.49931955  0.77219833  1.0
  C  C47  1  0.49373200  0.49669679  0.23536641  1.0
  C  C48  1  0.47882675  0.57572476  0.81768247  1.0
  C  C49  1  0.45947412  0.40841185  0.18626727  1.0
  C  C50  1  0.47853168  0.57585670  0.90826369  1.0
  C  C51  1  0.46573510  0.40959789  0.09593733  1.0
  N  N52  1  0.50869287  0.75030988  0.50343115  1.0
  N  N53  1  0.49120990  0.25137695  0.49511173  1.0
  O  O54  1  0.52352158  0.42100363  0.63684144  1.0
  O  O55  1  0.51696157  0.58007328  0.37239547  1.0
  O  O56  1  0.48624776  0.57267201  0.63630607  1.0
  O  O57  1  0.45507786  0.41427080  0.37123843  1.0
  O  O58  1  0.67226984  0.45777221  0.48815513  1.0
  O  O59  1  0.31270095  0.54781561  0.48989804  1.0
  O  O60  1  0.68672314  0.61723923  0.52285299  1.0
  O  O61  1  0.30363617  0.38724553  0.51949271  1.0
  O  O62  1  0.70627418  0.79978457  0.56812604  1.0
  O  O63  1  0.40074710  0.22517944  0.35490877  1.0
