# generated using pymatgen
data_Al2H13C50N6Cl9O20
_symmetry_space_group_name_H-M   'P 1'
_cell_length_a   6.82226067
_cell_length_b   28.05430934
_cell_length_c   31.75965766
_cell_angle_alpha   78.27280875
_cell_angle_beta   89.39829855
_cell_angle_gamma   89.24689949
_symmetry_Int_Tables_number   1
_chemical_formula_structural   Al2H13C50N6Cl9O20
_chemical_formula_sum   'Al4 H26 C100 N12 Cl18 O40'
_cell_volume   5951.01554542
_cell_formula_units_Z   2
loop_
 _symmetry_equiv_pos_site_id
 _symmetry_equiv_pos_as_xyz
  1  'x, y, z'
loop_
 _atom_site_type_symbol
 _atom_site_label
 _atom_site_symmetry_multiplicity
 _atom_site_fract_x
 _atom_site_fract_y
 _atom_site_fract_z
 _atom_site_occupancy
  Al  Al0  1  0.10944354  0.49988064  0.50116770  1.0
  Al  Al1  1  0.60558446  0.50111849  0.49930230  1.0
  Al  Al2  1  0.69718245  0.00167587  0.99981008  1.0
  Al  Al3  1  0.19815928  0.99756970  0.99813164  1.0
  H  H4  1  0.59235608  0.63449018  0.40899781  1.0
  H  H5  1  0.21145664  0.85442896  0.71154644  1.0
  H  H6  1  0.18910779  0.94358034  0.88549680  1.0
  H  H7  1  0.83440650  0.32531299  0.24017672  1.0
  H  H8  1  0.09691335  0.38643159  0.43742343  1.0
  H  H9  1  0.70685203  0.10967728  0.16220607  1.0
  H  H10  1  0.70269098  0.05868092  0.10647927  1.0
  H  H11  1  0.15369347  0.17412576  0.11450292  1.0
  H  H12  1  0.65262240  0.42014030  0.61745047  1.0
  H  H13  1  0.11617172  0.30216752  0.66173960  1.0
  H  H14  1  0.31908820  0.58256233  0.40437552  1.0
  H  H15  1  0.56386626  0.60908706  0.77204404  1.0
  H  H16  1  0.98906692  0.63257893  0.50196667  1.0
  H  H17  1  0.43405039  0.59770517  0.66861824  1.0
  H  H18  1  0.89745519  0.15544834  0.23628540  1.0
  H  H19  1  0.01520724  0.17868917  0.36702621  1.0
  H  H20  1  0.83014390  0.28970305  0.13820441  1.0
  H  H21  1  0.57404459  0.50742841  0.37914209  1.0
  H  H22  1  0.06052643  0.37689922  0.55194719  1.0
  H  H23  1  0.06998100  0.10050095  0.93852542  1.0
  H  H24  1  0.54453621  0.90683120  0.06623638  1.0
  H  H25  1  0.59339703  0.82053356  0.22322760  1.0
  H  H26  1  0.35384134  0.56223145  0.50687147  1.0
  H  H27  1  0.85898176  0.44010585  0.49474571  1.0
  H  H28  1  0.46249765  0.94117417  0.98833155  1.0
  H  H29  1  0.95657935  0.05641134  0.01175162  1.0
  C  C30  1  0.36538900  0.45164682  0.44676388  1.0
  C  C31  1  0.35772054  0.43589753  0.56256376  1.0
  C  C32  1  0.84367719  0.55149847  0.55243499  1.0
  C  C33  1  0.86375271  0.56518312  0.43742739  1.0
  C  C34  1  0.03895301  0.60555021  0.37037436  1.0
  C  C35  1  0.04283960  0.64108972  0.33245279  1.0
  C  C36  1  0.89165132  0.67604904  0.32257667  1.0
  C  C37  1  0.73075660  0.67379350  0.35090390  1.0
  C  C38  1  0.71821849  0.63676856  0.38735964  1.0
  C  C39  1  0.87264501  0.60332849  0.39715888  1.0
  C  C40  1  0.92208369  0.78326238  0.21637404  1.0
  C  C41  1  0.90344714  0.71510269  0.28351750  1.0
  C  C42  1  0.10780042  0.83853574  0.15781983  1.0
  C  C43  1  0.10967922  0.88353333  0.12849457  1.0
  C  C44  1  0.93736069  0.89897077  0.10481243  1.0
  C  C45  1  0.75873518  0.87724684  0.11994234  1.0
  C  C46  1  0.75510195  0.84727417  0.16194080  1.0
  C  C47  1  0.92837608  0.82271644  0.17755777  1.0
  C  C48  1  0.87784614  0.64945207  0.71957851  1.0
  C  C49  1  0.09775327  0.70390462  0.67370972  1.0
  C  C50  1  0.07266633  0.74064983  0.70086219  1.0
  C  C51  1  0.94025907  0.73045611  0.73653479  1.0
  C  C52  1  0.84146255  0.68536777  0.74725192  1.0
  C  C53  1  0.17289402  0.78481112  0.69314023  1.0
  C  C54  1  0.13759470  0.81950679  0.71903845  1.0
  C  C55  1  0.01103676  0.80943621  0.75385376  1.0
  C  C56  1  0.91295825  0.76427052  0.76370632  1.0
  C  C57  1  0.77775134  0.75503300  0.79847729  1.0
  C  C58  1  0.68340052  0.71028236  0.80851332  1.0
  C  C59  1  0.72328394  0.67398163  0.78390194  1.0
  C  C60  1  0.97381419  0.84642248  0.78044060  1.0
  C  C61  1  0.73649261  0.79613438  0.82037249  1.0
  C  C62  1  0.82141664  0.83861488  0.89711322  1.0
  C  C63  1  0.81537133  0.86996772  0.92654689  1.0
  C  C64  1  0.93926398  0.91035790  0.92051205  1.0
  C  C65  1  0.07708970  0.91594882  0.88731676  1.0
  C  C66  1  0.07769297  0.88670366  0.85687381  1.0
  C  C67  1  0.92970462  0.85109189  0.85760790  1.0
  C  C68  1  0.97125243  0.66073020  0.59953498  1.0
  C  C69  1  0.96245462  0.62691117  0.57273401  1.0
  C  C70  1  0.84140139  0.58578522  0.58279043  1.0
  C  C71  1  0.71863266  0.58133425  0.61885119  1.0
  C  C72  1  0.73362646  0.61362015  0.64752874  1.0
  C  C73  1  0.88665614  0.64899426  0.64162035  1.0
  C  C74  1  0.58192351  0.20717915  0.17316655  1.0
  C  C75  1  0.27493853  0.16588245  0.20459424  1.0
  C  C76  1  0.26900938  0.19734627  0.23675749  1.0
  C  C77  1  0.41843655  0.23197172  0.23637011  1.0
  C  C78  1  0.57018623  0.23855312  0.20504459  1.0
  C  C79  1  0.12226375  0.19184447  0.26855101  1.0
  C  C80  1  0.13263447  0.21716037  0.30306581  1.0
  C  C81  1  0.27867713  0.25140832  0.30252886  1.0
  C  C82  1  0.41763982  0.26033972  0.26858209  1.0
  C  C83  1  0.56847460  0.29407856  0.26939467  1.0
  C  C84  1  0.71676137  0.29980103  0.23870078  1.0
  C  C85  1  0.71637034  0.27292989  0.20568833  1.0
  C  C86  1  0.30553477  0.27637735  0.33903074  1.0
  C  C87  1  0.57437493  0.32206466  0.30413623  1.0
  C  C88  1  0.47589715  0.40376183  0.34561835  1.0
  C  C89  1  0.49194081  0.43190743  0.37713459  1.0
  C  C90  1  0.36040297  0.42321951  0.41223317  1.0
  C  C91  1  0.21337878  0.38916581  0.41345529  1.0
  C  C92  1  0.21078796  0.35822507  0.38431685  1.0
  C  C93  1  0.36327552  0.35996217  0.35291290  1.0
  C  C94  1  0.58516850  0.11228376  0.13994622  1.0
  C  C95  1  0.58225385  0.08382656  0.10898749  1.0
  C  C96  1  0.42553932  0.08593490  0.08028123  1.0
  C  C97  1  0.27009401  0.11890794  0.08269015  1.0
  C  C98  1  0.27352587  0.14845738  0.11309274  1.0
  C  C99  1  0.42952641  0.14459194  0.14155683  1.0
  C  C100  1  0.53548019  0.39420813  0.62733026  1.0
  C  C101  1  0.55159126  0.35937653  0.66534783  1.0
  C  C102  1  0.40017136  0.32576946  0.67818912  1.0
  C  C103  1  0.23381227  0.32827177  0.65256755  1.0
  C  C104  1  0.21591639  0.36261404  0.61411229  1.0
  C  C105  1  0.36881675  0.39622375  0.60184243  1.0
  C  C106  1  0.42484962  0.21813768  0.78399396  1.0
  C  C107  1  0.41225114  0.28694550  0.71725799  1.0
  C  C108  1  0.60610281  0.16671883  0.84562681  1.0
  C  C109  1  0.61577550  0.12090528  0.87424435  1.0
  C  C110  1  0.44121606  0.10261877  0.89533955  1.0
  C  C111  1  0.25999046  0.12367481  0.87954886  1.0
  C  C112  1  0.26400689  0.15181261  0.83698890  1.0
  C  C113  1  0.43122656  0.17861376  0.82260556  1.0
  C  C114  1  0.44429599  0.06292130  0.93519272  1.0
  C  C115  1  0.43638704  0.05263789  0.04926660  1.0
  C  C116  1  0.94588141  0.93687847  0.06359142  1.0
  C  C117  1  0.94373598  0.94563098  0.94979718  1.0
  C  C118  1  0.21272235  0.57150554  0.38186774  1.0
  C  C119  1  0.63990448  0.62342470  0.79743311  1.0
  C  C120  1  0.07736332  0.63420540  0.53099037  1.0
  C  C121  1  0.56323788  0.61842868  0.67509563  1.0
  C  C122  1  0.94571894  0.16123408  0.26793684  1.0
  C  C123  1  0.98037075  0.20813161  0.33906148  1.0
  C  C124  1  0.87601306  0.28301472  0.17228947  1.0
  C  C125  1  0.63588616  0.47291361  0.37253927  1.0
  C  C126  1  0.04568162  0.35848789  0.58623146  1.0
  C  C127  1  0.10701928  0.13143993  0.91255537  1.0
  C  C128  1  0.59654727  0.87386520  0.08819172  1.0
  C  C129  1  0.61363766  0.85285546  0.19703019  1.0
  N  N130  1  0.77254694  0.71412387  0.25223799  1.0
  N  N131  1  0.78286402  0.74912142  0.21738714  1.0
  N  N132  1  0.04927377  0.78484846  0.24841646  1.0
  N  N133  1  0.04046118  0.74953698  0.28296056  1.0
  N  N134  1  0.92872678  0.67275180  0.67475463  1.0
  N  N135  1  0.90950624  0.82554164  0.82396332  1.0
  N  N136  1  0.42604896  0.17490436  0.17315770  1.0
  N  N137  1  0.39093057  0.32447563  0.32734937  1.0
  N  N138  1  0.26354836  0.28469988  0.74594232  1.0
  N  N139  1  0.27174129  0.24964032  0.78074166  1.0
  N  N140  1  0.56925853  0.21919579  0.75434596  1.0
  N  N141  1  0.56446240  0.25510002  0.72024231  1.0
  Cl  Cl142  1  0.51579218  0.69840427  0.84982272  1.0
  Cl  Cl143  1  0.72043663  0.78209137  0.91347121  1.0
  Cl  Cl144  1  0.67254036  0.85503898  0.97228057  1.0
  Cl  Cl145  1  0.28148989  0.89183282  0.82405372  1.0
  Cl  Cl146  1  0.05366910  0.71806261  0.57692954  1.0
  Cl  Cl147  1  0.55508521  0.53407723  0.63110053  1.0
  Cl  Cl148  1  0.23613320  0.64220574  0.29680885  1.0
  Cl  Cl149  1  0.55994192  0.42972821  0.29477694  1.0
  Cl  Cl150  1  0.00113691  0.32501252  0.38542569  1.0
  Cl  Cl151  1  0.54986601  0.71809673  0.34169201  1.0
  Cl  Cl152  1  0.07342187  0.12782232  0.04779747  1.0
  Cl  Cl153  1  0.75444231  0.35942933  0.69699151  1.0
  Cl  Cl154  1  0.78600449  0.20884362  0.83968541  1.0
  Cl  Cl155  1  0.82382524  0.08575710  0.87820597  1.0
  Cl  Cl156  1  0.08338525  0.14958112  0.80046114  1.0
  Cl  Cl157  1  0.31111363  0.80250296  0.16978111  1.0
  Cl  Cl158  1  0.30505996  0.92098760  0.12609831  1.0
  Cl  Cl159  1  0.33649695  0.80099660  0.65134605  1.0
  O  O160  1  0.51978266  0.44895847  0.54383286  1.0
  O  O161  1  0.20354211  0.45780919  0.46556892  1.0
  O  O162  1  0.02936424  0.54752932  0.45148789  1.0
  O  O163  1  0.18830846  0.45361958  0.55137306  1.0
  O  O164  1  0.01255808  0.54197221  0.53827713  1.0
  O  O165  1  0.53188258  0.46712635  0.45598080  1.0
  O  O166  1  0.35496333  0.53110976  0.49787602  1.0
  O  O167  1  0.68043027  0.53686596  0.54179404  1.0
  O  O168  1  0.69672177  0.55443854  0.45459533  1.0
  O  O169  1  0.85841545  0.47183706  0.50244503  1.0
  O  O170  1  0.89643569  0.60568514  0.73226260  1.0
  O  O171  1  0.24413262  0.69836359  0.65291300  1.0
  O  O172  1  0.98878062  0.89006702  0.76677738  1.0
  O  O173  1  0.57413694  0.80734545  0.83134171  1.0
  O  O174  1  0.72218422  0.20813444  0.14814563  1.0
  O  O175  1  0.16096853  0.13221281  0.20483550  1.0
  O  O176  1  0.26737034  0.25675974  0.37600407  1.0
  O  O177  1  0.72338344  0.34126841  0.31276126  1.0
  O  O178  1  0.27664068  0.03850807  0.03581831  1.0
  O  O179  1  0.60686328  0.05233202  0.95410863  1.0
  O  O180  1  0.78042199  0.96151200  0.96115412  1.0
  O  O181  1  0.60798919  0.04020275  0.03910214  1.0
  O  O182  1  0.78165002  0.95491700  0.04940789  1.0
  O  O183  1  0.28054334  0.04308452  0.94725629  1.0
  O  O184  1  0.45181230  0.96900976  0.00219654  1.0
  O  O185  1  0.11163475  0.94745279  0.04591491  1.0
  O  O186  1  0.11291056  0.95758887  0.96029272  1.0
  O  O187  1  0.94971340  0.02975035  0.99640595  1.0
  O  O188  1  0.24151748  0.53589321  0.36612063  1.0
  O  O189  1  0.65562669  0.60046335  0.83413919  1.0
  O  O190  1  0.25350410  0.64112888  0.52838953  1.0
  O  O191  1  0.54953473  0.64559467  0.70101203  1.0
  O  O192  1  0.85380413  0.14509774  0.30108287  1.0
  O  O193  1  0.83378971  0.23382337  0.33765746  1.0
  O  O194  1  0.04740901  0.28648038  0.18233680  1.0
  O  O195  1  0.80763433  0.46892079  0.36252304  1.0
  O  O196  1  0.89896756  0.33499940  0.59907285  1.0
  O  O197  1  0.05268856  0.17315257  0.91263128  1.0
  O  O198  1  0.54537709  0.83303178  0.08516951  1.0
  O  O199  1  0.55070473  0.89288695  0.20042345  1.0
