# generated using pymatgen
data_Zn4C24O13F12
_symmetry_space_group_name_H-M   'P 1'
_cell_length_a   18.54692045
_cell_length_b   18.54699008
_cell_length_c   18.54699157
_cell_angle_alpha   60.00015751
_cell_angle_beta   60.00011171
_cell_angle_gamma   60.00007557
_symmetry_Int_Tables_number   1
_chemical_formula_structural   Zn4C24O13F12
_chemical_formula_sum   'Zn8 C48 O26 F24'
_cell_volume   4511.33270904
_cell_formula_units_Z   2
loop_
 _symmetry_equiv_pos_site_id
 _symmetry_equiv_pos_as_xyz
  1  'x, y, z'
loop_
 _atom_site_type_symbol
 _atom_site_label
 _atom_site_symmetry_multiplicity
 _atom_site_fract_x
 _atom_site_fract_y
 _atom_site_fract_z
 _atom_site_occupancy
  Zn  Zn0  1  0.04329994  0.54329777  0.04329673  1.0
  Zn  Zn1  1  0.87010684  0.54329448  0.04329965  1.0
  Zn  Zn2  1  0.04329739  0.37010767  0.04329722  1.0
  Zn  Zn3  1  0.04329788  0.54329621  0.87010852  1.0
  Zn  Zn4  1  0.45670142  0.95669973  0.45670458  1.0
  Zn  Zn5  1  0.45670330  0.12989096  0.45670359  1.0
  Zn  Zn6  1  0.62989427  0.95670311  0.45670128  1.0
  Zn  Zn7  1  0.45670258  0.95670221  0.62989295  1.0
  C  C8  1  0.86236667  0.63763390  0.13763410  1.0
  C  C9  1  0.86236627  0.36236294  0.13763580  1.0
  C  C10  1  0.13763453  0.36236498  0.13763544  1.0
  C  C11  1  0.13763494  0.36236402  0.86236636  1.0
  C  C12  1  0.13763620  0.63763368  0.86236531  1.0
  C  C13  1  0.86236578  0.63763380  0.86236568  1.0
  C  C14  1  0.36236544  0.13763329  0.36236586  1.0
  C  C15  1  0.63763377  0.13763359  0.36236645  1.0
  C  C16  1  0.63763425  0.86236386  0.36236667  1.0
  C  C17  1  0.63763544  0.86236606  0.63763261  1.0
  C  C18  1  0.36236580  0.86236336  0.63763665  1.0
  C  C19  1  0.36236652  0.13763322  0.63763445  1.0
  C  C20  1  0.19490625  0.69490337  0.80509618  1.0
  C  C21  1  0.30509575  0.80509261  0.69490645  1.0
  C  C22  1  0.22338607  0.72338427  0.71224563  1.0
  C  C23  1  0.27661571  0.77661255  0.78775700  1.0
  C  C24  1  0.27661524  0.77661245  0.65901666  1.0
  C  C25  1  0.22338730  0.72338299  0.84098597  1.0
  C  C26  1  0.80509524  0.30509335  0.19490626  1.0
  C  C27  1  0.69490555  0.19490394  0.30509467  1.0
  C  C28  1  0.84098562  0.21224270  0.22338619  1.0
  C  C29  1  0.65901648  0.28775371  0.27661409  1.0
  C  C30  1  0.78775658  0.15901358  0.27661451  1.0
  C  C31  1  0.71224475  0.34098316  0.22338643  1.0
  C  C32  1  0.19490467  0.30509445  0.19490514  1.0
  C  C33  1  0.30509454  0.19490414  0.30509683  1.0
  C  C34  1  0.22338719  0.21224310  0.22338574  1.0
  C  C35  1  0.27661302  0.28775430  0.27661558  1.0
  C  C36  1  0.27661360  0.15901428  0.27661478  1.0
  C  C37  1  0.22338478  0.34098346  0.22338784  1.0
  C  C38  1  0.80509533  0.69490402  0.80509598  1.0
  C  C39  1  0.69490630  0.80509517  0.69490364  1.0
  C  C40  1  0.84098472  0.72338409  0.71224542  1.0
  C  C41  1  0.65901616  0.77661435  0.78775551  1.0
  C  C42  1  0.78775683  0.77661359  0.65901572  1.0
  C  C43  1  0.71224449  0.72338529  0.84098390  1.0
  C  C44  1  0.80509546  0.69490410  0.19490533  1.0
  C  C45  1  0.69490556  0.80509374  0.30509610  1.0
  C  C46  1  0.71224471  0.72338439  0.22338615  1.0
  C  C47  1  0.78775685  0.77661291  0.27661528  1.0
  C  C48  1  0.65901549  0.77661335  0.27661539  1.0
  C  C49  1  0.84098606  0.72338397  0.22338603  1.0
  C  C50  1  0.19490571  0.30509338  0.80509645  1.0
  C  C51  1  0.30509538  0.19490459  0.69490568  1.0
  C  C52  1  0.22338696  0.34098281  0.71224591  1.0
  C  C53  1  0.27661563  0.15901340  0.78775754  1.0
  C  C54  1  0.27661480  0.28775355  0.65901733  1.0
  C  C55  1  0.22338685  0.21224280  0.84098546  1.0
  O  O56  1  0.00000006  0.49999948  0.00000050  1.0
  O  O57  1  0.94538340  0.61585490  0.11585646  1.0
  O  O58  1  0.82290481  0.44538060  0.11585904  1.0
  O  O59  1  0.11585464  0.32290491  0.11585788  1.0
  O  O60  1  0.82290506  0.61585638  0.11585525  1.0
  O  O61  1  0.11585740  0.44538206  0.11585602  1.0
  O  O62  1  0.94538313  0.32290363  0.11585551  1.0
  O  O63  1  0.11585717  0.32290362  0.94538369  1.0
  O  O64  1  0.11585751  0.61585423  0.82290503  1.0
  O  O65  1  0.11585536  0.44538086  0.82290618  1.0
  O  O66  1  0.11585758  0.61585501  0.94538332  1.0
  O  O67  1  0.82290394  0.61585468  0.94538435  1.0
  O  O68  1  0.94538268  0.61585611  0.82290663  1.0
  O  O69  1  0.50000013  0.99999900  0.50000015  1.0
  O  O70  1  0.38414459  0.05461606  0.38414528  1.0
  O  O71  1  0.55461766  0.17709472  0.38414476  1.0
  O  O72  1  0.67709564  0.88414222  0.38414552  1.0
  O  O73  1  0.38414171  0.17709404  0.38414409  1.0
  O  O74  1  0.55461753  0.88414285  0.38414431  1.0
  O  O75  1  0.67709563  0.05461740  0.38414321  1.0
  O  O76  1  0.67709663  0.88414345  0.55461658  1.0
  O  O77  1  0.38414246  0.88414404  0.67709627  1.0
  O  O78  1  0.55461859  0.88414381  0.67709430  1.0
  O  O79  1  0.38414497  0.88414042  0.55461931  1.0
  O  O80  1  0.38414581  0.17709407  0.55461976  1.0
  O  O81  1  0.38414216  0.05461676  0.67709529  1.0
  F  F82  1  0.20091332  0.70091294  0.66963549  1.0
  F  F83  1  0.29908599  0.79908573  0.83036713  1.0
  F  F84  1  0.29908598  0.79908324  0.57146340  1.0
  F  F85  1  0.20091687  0.70091251  0.92853923  1.0
  F  F86  1  0.92853896  0.16963237  0.20091451  1.0
  F  F87  1  0.57146250  0.33036450  0.29908510  1.0
  F  F88  1  0.83036890  0.07146035  0.29908529  1.0
  F  F89  1  0.66963231  0.42853626  0.20091696  1.0
  F  F90  1  0.20091817  0.16963208  0.20091150  1.0
  F  F91  1  0.29908408  0.33036629  0.29908716  1.0
  F  F92  1  0.29908450  0.07146101  0.29908690  1.0
  F  F93  1  0.20091277  0.42853670  0.20091836  1.0
  F  F94  1  0.92853898  0.70091269  0.66963388  1.0
  F  F95  1  0.57146221  0.79908713  0.83036639  1.0
  F  F96  1  0.83036908  0.79908344  0.57146245  1.0
  F  F97  1  0.66963139  0.70091460  0.92853783  1.0
  F  F98  1  0.66963242  0.70091375  0.20091526  1.0
  F  F99  1  0.83036904  0.79908453  0.29908485  1.0
  F  F100  1  0.57146217  0.79908358  0.29908640  1.0
  F  F101  1  0.92853885  0.70091426  0.20091503  1.0
  F  F102  1  0.20091686  0.42853586  0.66963391  1.0
  F  F103  1  0.29908796  0.07146043  0.83036888  1.0
  F  F104  1  0.29908443  0.33036658  0.57146409  1.0
  F  F105  1  0.20091668  0.16963031  0.92853870  1.0
