# generated using pymatgen
data_AlH5C14N2O9F
_symmetry_space_group_name_H-M   'P 1'
_cell_length_a   6.64325831
_cell_length_b   11.12304179
_cell_length_c   17.51572024
_cell_angle_alpha   92.34376638
_cell_angle_beta   96.67200711
_cell_angle_gamma   106.71013939
_symmetry_Int_Tables_number   1
_chemical_formula_structural   AlH5C14N2O9F
_chemical_formula_sum   'Al2 H10 C28 N4 O18 F2'
_cell_volume   1227.48056219
_cell_formula_units_Z   2
loop_
 _symmetry_equiv_pos_site_id
 _symmetry_equiv_pos_as_xyz
  1  'x, y, z'
loop_
 _atom_site_type_symbol
 _atom_site_label
 _atom_site_symmetry_multiplicity
 _atom_site_fract_x
 _atom_site_fract_y
 _atom_site_fract_z
 _atom_site_occupancy
  Al  Al0  1  0.00604860  0.50138873  0.49973311  1.0
  Al  Al1  1  0.50299746  0.49799304  0.49894013  1.0
  H  H2  1  0.34902912  0.64574397  0.55612141  1.0
  H  H3  1  0.68778626  0.42334810  0.40756700  1.0
  H  H4  1  0.83634098  0.42780961  0.27414793  1.0
  H  H5  1  0.74989380  0.42803915  0.13261635  1.0
  H  H6  1  0.42145840  0.56022492  0.11455392  1.0
  H  H7  1  0.62237892  0.52269764  0.88875588  1.0
  H  H8  1  0.13303564  0.46945613  0.71378376  1.0
  H  H9  1  0.22169710  0.46131609  0.85497865  1.0
  H  H10  1  0.56668299  0.76442880  0.39068580  1.0
  H  H11  1  0.78047578  0.23322181  0.42227406  1.0
  C  C12  1  0.86640845  0.72517257  0.48958866  1.0
  C  C13  1  0.79135509  0.50391324  0.63630463  1.0
  C  C14  1  0.13770869  0.27609432  0.50829605  1.0
  C  C15  1  0.21286113  0.48960712  0.35996909  1.0
  C  C16  1  0.17356531  0.49156951  0.27502954  1.0
  C  C17  1  0.96276624  0.45596638  0.23840467  1.0
  C  C18  1  0.91437917  0.45618092  0.15948226  1.0
  C  C19  1  0.07858887  0.49262218  0.11302436  1.0
  C  C20  1  0.29089382  0.52963095  0.14839153  1.0
  C  C21  1  0.33412330  0.52889700  0.22766472  1.0
  C  C22  1  0.02932768  0.49221512  0.03226578  1.0
  C  C23  1  0.98070230  0.49070965  0.96277018  1.0
  C  C24  1  0.92874413  0.49095357  0.88214196  1.0
  C  C25  1  0.73491024  0.50886345  0.85126944  1.0
  C  C26  1  0.68985346  0.51214725  0.77222526  1.0
  C  C27  1  0.83045568  0.49815833  0.72101941  1.0
  C  C28  1  0.02258282  0.47980029  0.75298173  1.0
  C  C29  1  0.07196062  0.47567408  0.83162125  1.0
  C  C30  1  0.93463733  0.86648847  0.48918486  1.0
  C  C31  1  0.80643599  0.93199560  0.44799953  1.0
  C  C32  1  0.12198740  0.93542657  0.53352272  1.0
  C  C33  1  0.61689343  0.86674697  0.39887160  1.0
  C  C34  1  0.49597665  0.93243528  0.36057523  1.0
  C  C35  1  0.06210773  0.13436185  0.50323594  1.0
  C  C36  1  0.18348194  0.06780507  0.54156723  1.0
  C  C37  1  0.87123874  0.06711394  0.45515277  1.0
  C  C38  1  0.74142060  0.13146376  0.41464311  1.0
  C  C39  1  0.55692524  0.06558830  0.36955605  1.0
  N  N40  1  0.37599953  0.13658364  0.59506315  1.0
  N  N41  1  0.24936945  0.86858700  0.58115543  1.0
  N  N42  1  0.31230770  0.86204363  0.30451005  1.0
  N  N43  1  0.41457114  0.13737194  0.33916879  1.0
  O  O44  1  0.00809158  0.67204934  0.48100679  1.0
  O  O45  1  0.60307134  0.48637609  0.60335862  1.0
  O  O46  1  0.32642782  0.32459865  0.49490985  1.0
  O  O47  1  0.04995496  0.46819541  0.39565518  1.0
  O  O48  1  0.00417647  0.33251289  0.52178284  1.0
  O  O49  1  0.40215142  0.50699625  0.39235261  1.0
  O  O50  1  0.67679609  0.67396771  0.50075769  1.0
  O  O51  1  0.95529055  0.52698899  0.60153136  1.0
  O  O52  1  0.29513616  0.56107366  0.53079298  1.0
  O  O53  1  0.71567945  0.44097228  0.46328415  1.0
  O  O54  1  0.35182691  0.20753477  0.64686823  1.0
  O  O55  1  0.54379978  0.11599026  0.58367721  1.0
  O  O56  1  0.39650743  0.84334934  0.55372319  1.0
  O  O57  1  0.19435515  0.84335157  0.64496201  1.0
  O  O58  1  0.19037222  0.76630723  0.32531051  1.0
  O  O59  1  0.29895816  0.90329389  0.24016370  1.0
  O  O60  1  0.49546353  0.24226448  0.31669178  1.0
  O  O61  1  0.22267673  0.08892361  0.34147104  1.0
  F  F62  1  0.54199749  0.56918914  0.25849229  1.0
  F  F63  1  0.50486717  0.53434156  0.74558597  1.0
