# generated using pymatgen
data_AlH5C15O5F2
_symmetry_space_group_name_H-M   'P 1'
_cell_length_a   6.67880698
_cell_length_b   20.34166320
_cell_length_c   22.99066907
_cell_angle_alpha   93.34050457
_cell_angle_beta   90.48345484
_cell_angle_gamma   91.14271362
_symmetry_Int_Tables_number   1
_chemical_formula_structural   AlH5C15O5F2
_chemical_formula_sum   'Al4 H20 C60 O20 F8'
_cell_volume   3117.39578740
_cell_formula_units_Z   4
loop_
 _symmetry_equiv_pos_site_id
 _symmetry_equiv_pos_as_xyz
  1  'x, y, z'
loop_
 _atom_site_type_symbol
 _atom_site_label
 _atom_site_symmetry_multiplicity
 _atom_site_fract_x
 _atom_site_fract_y
 _atom_site_fract_z
 _atom_site_occupancy
  Al  Al0  1  0.21137541  0.75042388  0.75039438  1.0
  Al  Al1  1  0.78861575  0.24957589  0.24960742  1.0
  Al  Al2  1  0.71134794  0.74886226  0.74901053  1.0
  Al  Al3  1  0.28864326  0.25113855  0.25099214  1.0
  H  H4  1  0.30578271  0.54617205  0.95496547  1.0
  H  H5  1  0.69423389  0.45382768  0.04503421  1.0
  H  H6  1  0.80954299  0.95550446  0.54268132  1.0
  H  H7  1  0.19045253  0.04448943  0.45732050  1.0
  H  H8  1  0.33697472  0.46622199  0.03294204  1.0
  H  H9  1  0.66305384  0.53377721  0.96705636  1.0
  H  H10  1  0.83384632  0.03581096  0.46464764  1.0
  H  H11  1  0.16615964  0.96418190  0.53535290  1.0
  H  H12  1  0.25088502  0.58770079  0.64454580  1.0
  H  H13  1  0.74910620  0.41230147  0.35545643  1.0
  H  H14  1  0.19672409  0.91853178  0.86131005  1.0
  H  H15  1  0.80328367  0.08147509  0.13868656  1.0
  H  H16  1  0.45860518  0.40909951  0.51524966  1.0
  H  H17  1  0.54139201  0.59090263  0.48475042  1.0
  H  H18  1  0.06365701  0.10332807  0.99340149  1.0
  H  H19  1  0.93634171  0.89667552  0.00659815  1.0
  H  H20  1  0.45523808  0.66519651  0.76087583  1.0
  H  H21  1  0.54475010  0.33480458  0.23912378  1.0
  H  H22  1  0.96297265  0.83602280  0.74662175  1.0
  H  H23  1  0.03701550  0.16397721  0.25337656  1.0
  C  C24  1  0.47172333  0.83012571  0.83157017  1.0
  C  C25  1  0.52827832  0.16987454  0.16843079  1.0
  C  C26  1  0.95538564  0.66900584  0.66828340  1.0
  C  C27  1  0.04460252  0.33099352  0.33171971  1.0
  C  C28  1  0.46323662  0.82629173  0.67323055  1.0
  C  C29  1  0.53675753  0.17370846  0.32676995  1.0
  C  C30  1  0.95947234  0.67281786  0.82642338  1.0
  C  C31  1  0.04052326  0.32717988  0.17357713  1.0
  C  C32  1  0.19027683  0.48129662  0.01826122  1.0
  C  C33  1  0.80974717  0.51869967  0.98173804  1.0
  C  C34  1  0.68849531  0.01982396  0.48039270  1.0
  C  C35  1  0.31150913  0.98016829  0.51960609  1.0
  C  C36  1  0.01735486  0.45499577  0.04399730  1.0
  C  C37  1  0.98266459  0.54499882  0.95599890  1.0
  C  C38  1  0.51361428  0.04522035  0.45598402  1.0
  C  C39  1  0.48639165  0.95477231  0.54401346  1.0
  C  C40  1  0.82696613  0.47441124  0.02501096  1.0
  C  C41  1  0.17305793  0.52558794  0.97498742  1.0
  C  C42  1  0.32485085  0.02468700  0.47632385  1.0
  C  C43  1  0.67514763  0.97530716  0.52367448  1.0
  C  C44  1  0.03254731  0.41007747  0.08845808  1.0
  C  C45  1  0.96747216  0.58991813  0.91153855  1.0
  C  C46  1  0.52608354  0.09032135  0.41152703  1.0
  C  C47  1  0.47392701  0.90967589  0.58847264  1.0
  C  C48  1  0.95997724  0.62837751  0.87293148  1.0
  C  C49  1  0.04003178  0.37161906  0.12706557  1.0
  C  C50  1  0.46650905  0.87100715  0.62694329  1.0
  C  C51  1  0.53348351  0.12898864  0.37305765  1.0
  C  C52  1  0.81238310  0.61200731  0.57459163  1.0
  C  C53  1  0.18760353  0.38799097  0.42541017  1.0
  C  C54  1  0.64032252  0.88205127  0.92316524  1.0
  C  C55  1  0.35968069  0.11795104  0.07683702  1.0
  C  C56  1  0.96344578  0.62014267  0.61716172  1.0
  C  C57  1  0.03654390  0.37985761  0.38284051  1.0
  C  C58  1  0.47952177  0.87808813  0.88345502  1.0
  C  C59  1  0.52048145  0.12191553  0.11654550  1.0
  C  C60  1  0.13174721  0.58015112  0.61215664  1.0
  C  C61  1  0.86824250  0.41985058  0.38784472  1.0
  C  C62  1  0.32328974  0.92257537  0.89151260  1.0
  C  C63  1  0.67672103  0.07743205  0.10848488  1.0
  C  C64  1  0.14681676  0.53159057  0.56695630  1.0
  C  C65  1  0.85317744  0.46841115  0.43304507  1.0
  C  C66  1  0.33043882  0.97171356  0.93665976  1.0
  C  C67  1  0.66957640  0.02829232  0.06333642  1.0
  C  C68  1  0.99275701  0.52419038  0.52342688  1.0
  C  C69  1  0.00723567  0.47581081  0.47657405  1.0
  C  C70  1  0.49546529  0.97534973  0.97679482  1.0
  C  C71  1  0.50454547  0.02465631  0.02320396  1.0
  C  C72  1  0.82326353  0.56586959  0.52686462  1.0
  C  C73  1  0.17673209  0.43412956  0.47313501  1.0
  C  C74  1  0.65246049  0.92898486  0.97038691  1.0
  C  C75  1  0.34754124  0.07101886  0.02961448  1.0
  C  C76  1  0.31100016  0.48763636  0.56147060  1.0
  C  C77  1  0.68899401  0.51236482  0.43852990  1.0
  C  C78  1  0.17953409  0.02019101  0.94511342  1.0
  C  C79  1  0.82048111  0.97981305  0.05488494  1.0
  C  C80  1  0.32905599  0.44068442  0.51732807  1.0
  C  C81  1  0.67093673  0.55931825  0.48267286  1.0
  C  C82  1  0.18386622  0.06813400  0.98891302  1.0
  C  C83  1  0.81613551  0.93187006  0.01108619  1.0
  O  O84  1  0.63312334  0.80875736  0.69175058  1.0
  O  O85  1  0.36686645  0.19124657  0.30825471  1.0
  O  O86  1  0.13095744  0.69184118  0.80935279  1.0
  O  O87  1  0.86903522  0.30815906  0.19064858  1.0
  O  O88  1  0.29835418  0.81411064  0.81130233  1.0
  O  O89  1  0.70164901  0.18589198  0.18869732  1.0
  O  O90  1  0.78512417  0.68699986  0.68670124  1.0
  O  O91  1  0.21486402  0.31300089  0.31330056  1.0
  O  O92  1  0.29202509  0.80921913  0.69188027  1.0
  O  O93  1  0.70796150  0.19077802  0.30811935  1.0
  O  O94  1  0.78958625  0.68812352  0.80620323  1.0
  O  O95  1  0.21040336  0.31187335  0.19379944  1.0
  O  O96  1  0.12465919  0.68685347  0.69033523  1.0
  O  O97  1  0.87532744  0.31314394  0.30966831  1.0
  O  O98  1  0.63813696  0.81139150  0.81090735  1.0
  O  O99  1  0.36186168  0.18860747  0.18909665  1.0
  O  O100  1  0.45824238  0.71009400  0.74898835  1.0
  O  O101  1  0.54175330  0.28990634  0.25101434  1.0
  O  O102  1  0.96295248  0.78903100  0.75116188  1.0
  O  O103  1  0.03703718  0.21096834  0.24884079  1.0
  F  F104  1  0.64929101  0.65062256  0.57725776  1.0
  F  F105  1  0.35069413  0.34937487  0.42274622  1.0
  F  F106  1  0.79109822  0.83853981  0.91806716  1.0
  F  F107  1  0.20890049  0.16146251  0.08193553  1.0
  F  F108  1  0.45691784  0.49451417  0.60331727  1.0
  F  F109  1  0.54306587  0.50548710  0.39668539  1.0
  F  F110  1  0.02336380  0.01691580  0.90640928  1.0
  F  F111  1  0.97664705  0.98309417  0.09358951  1.0
