# generated using pymatgen
data_ZnH6(C3N2)2
_symmetry_space_group_name_H-M   'P 1'
_cell_length_a   16.52484769
_cell_length_b   27.25571820
_cell_length_c   27.25546428
_cell_angle_alpha   59.99983025
_cell_angle_beta   89.99985540
_cell_angle_gamma   90.00008121
_symmetry_Int_Tables_number   1
_chemical_formula_structural   ZnH6(C3N2)2
_chemical_formula_sum   'Zn24 H144 C144 N96'
_cell_volume   10631.10894737
_cell_formula_units_Z   24
loop_
 _symmetry_equiv_pos_site_id
 _symmetry_equiv_pos_as_xyz
  1  'x, y, z'
loop_
 _atom_site_type_symbol
 _atom_site_label
 _atom_site_symmetry_multiplicity
 _atom_site_fract_x
 _atom_site_fract_y
 _atom_site_fract_z
 _atom_site_occupancy
  Zn  Zn0  1  0.31358044  0.87488419  0.66476449  1.0
  Zn  Zn1  1  0.31358364  0.66476417  0.46035850  1.0
  Zn  Zn2  1  0.31358074  0.46035711  0.87488326  1.0
  Zn  Zn3  1  0.31358079  0.12511751  0.33523360  1.0
  Zn  Zn4  1  0.31357819  0.33523626  0.53964499  1.0
  Zn  Zn5  1  0.31357988  0.53964586  0.12511309  1.0
  Zn  Zn6  1  0.18641720  0.33523769  0.12512015  1.0
  Zn  Zn7  1  0.18642185  0.53964470  0.33523897  1.0
  Zn  Zn8  1  0.18641914  0.12511681  0.53964370  1.0
  Zn  Zn9  1  0.18641793  0.66476458  0.87487711  1.0
  Zn  Zn10  1  0.18641934  0.46035502  0.66476397  1.0
  Zn  Zn11  1  0.18641781  0.87488419  0.46035420  1.0
  Zn  Zn12  1  0.68641570  0.12511622  0.33523799  1.0
  Zn  Zn13  1  0.68641733  0.33523710  0.53964391  1.0
  Zn  Zn14  1  0.68641781  0.53964500  0.12511469  1.0
  Zn  Zn15  1  0.68641776  0.87488376  0.66476331  1.0
  Zn  Zn16  1  0.68641915  0.66476077  0.46035918  1.0
  Zn  Zn17  1  0.68642049  0.46035582  0.87488582  1.0
  Zn  Zn18  1  0.81358498  0.66476654  0.87488041  1.0
  Zn  Zn19  1  0.81358276  0.46035105  0.66476437  1.0
  Zn  Zn20  1  0.81357820  0.87488361  0.46035180  1.0
  Zn  Zn21  1  0.81358244  0.33523245  0.12512192  1.0
  Zn  Zn22  1  0.81357861  0.53964921  0.33523549  1.0
  Zn  Zn23  1  0.81358135  0.12511834  0.53964575  1.0
  H  H24  1  0.27996718  0.87582409  0.78354624  1.0
  H  H25  1  0.27996495  0.78354842  0.34063165  1.0
  H  H26  1  0.27997061  0.34063199  0.87582562  1.0
  H  H27  1  0.27996560  0.12418007  0.21644773  1.0
  H  H28  1  0.27997387  0.21645107  0.65936906  1.0
  H  H29  1  0.27997547  0.65936413  0.12417604  1.0
  H  H30  1  0.22003130  0.21645274  0.12417577  1.0
  H  H31  1  0.22004251  0.65936743  0.21644878  1.0
  H  H32  1  0.22003615  0.12417745  0.65937091  1.0
  H  H33  1  0.22003108  0.78355129  0.87582019  1.0
  H  H34  1  0.22003621  0.34063025  0.78355293  1.0
  H  H35  1  0.22003773  0.87582235  0.34063047  1.0
  H  H36  1  0.72003077  0.12417505  0.21645100  1.0
  H  H37  1  0.72003784  0.21645241  0.65937098  1.0
  H  H38  1  0.72002794  0.65936588  0.12417886  1.0
  H  H39  1  0.72003114  0.87582246  0.78355222  1.0
  H  H40  1  0.72003739  0.78354637  0.34062830  1.0
  H  H41  1  0.72003034  0.34063544  0.87581988  1.0
  H  H42  1  0.77997149  0.78354937  0.87582365  1.0
  H  H43  1  0.77996633  0.34063850  0.78354470  1.0
  H  H44  1  0.77997027  0.87582000  0.34062754  1.0
  H  H45  1  0.77996626  0.21644743  0.12417799  1.0
  H  H46  1  0.77996234  0.65936592  0.21645240  1.0
  H  H47  1  0.77997051  0.12418061  0.65936890  1.0
  H  H48  1  0.25000193  0.74531674  0.74531841  1.0
  H  H49  1  0.24999697  0.74531703  0.50936668  1.0
  H  H50  1  0.24999924  0.50936428  0.74531805  1.0
  H  H51  1  0.24999867  0.25468143  0.25468154  1.0
  H  H52  1  0.24999577  0.25468155  0.49063343  1.0
  H  H53  1  0.24999531  0.49063262  0.25468254  1.0
  H  H54  1  0.74999965  0.25467943  0.25468215  1.0
  H  H55  1  0.74999977  0.25468465  0.49063406  1.0
  H  H56  1  0.74999871  0.49063233  0.25468266  1.0
  H  H57  1  0.74999867  0.74532111  0.74531730  1.0
  H  H58  1  0.74999855  0.74531758  0.50936418  1.0
  H  H59  1  0.74999659  0.50936991  0.74531741  1.0
  H  H60  1  0.28907477  0.75344963  0.66799467  1.0
  H  H61  1  0.28907425  0.66799436  0.57856306  1.0
  H  H62  1  0.28907924  0.57856098  0.75344259  1.0
  H  H63  1  0.28907723  0.24655202  0.33200421  1.0
  H  H64  1  0.28906686  0.33200051  0.42143995  1.0
  H  H65  1  0.28908245  0.42144363  0.24655224  1.0
  H  H66  1  0.21092852  0.33200380  0.24655930  1.0
  H  H67  1  0.21092119  0.42144356  0.33200309  1.0
  H  H68  1  0.21092867  0.24654938  0.42144417  1.0
  H  H69  1  0.21092552  0.66799936  0.75343968  1.0
  H  H70  1  0.21092014  0.57855410  0.66799681  1.0
  H  H71  1  0.21092658  0.75345251  0.57855398  1.0
  H  H72  1  0.71092560  0.24655164  0.33200334  1.0
  H  H73  1  0.71093096  0.33200479  0.42143968  1.0
  H  H74  1  0.71091750  0.42144282  0.24655085  1.0
  H  H75  1  0.71093342  0.75345136  0.66799531  1.0
  H  H76  1  0.71092625  0.66799229  0.57856303  1.0
  H  H77  1  0.71092276  0.57856187  0.75344476  1.0
  H  H78  1  0.78907669  0.66799746  0.75344605  1.0
  H  H79  1  0.78907857  0.57855177  0.66799569  1.0
  H  H80  1  0.78907593  0.75345146  0.57855442  1.0
  H  H81  1  0.78906759  0.33200275  0.24655534  1.0
  H  H82  1  0.78907780  0.42144800  0.33200629  1.0
  H  H83  1  0.78907440  0.24655510  0.42144013  1.0
  H  H84  1  0.25000074  0.92181839  0.53909354  1.0
  H  H85  1  0.25000575  0.53909520  0.53909012  1.0
  H  H86  1  0.25000133  0.53909675  0.92181150  1.0
  H  H87  1  0.25000229  0.07818442  0.46090409  1.0
  H  H88  1  0.25000454  0.46090424  0.46090993  1.0
  H  H89  1  0.24999685  0.46090693  0.07818423  1.0
  H  H90  1  0.75000266  0.07818498  0.46091002  1.0
  H  H91  1  0.74999099  0.46090691  0.46091114  1.0
  H  H92  1  0.75000267  0.46090325  0.07818458  1.0
  H  H93  1  0.74999808  0.92181895  0.53908920  1.0
  H  H94  1  0.74999946  0.53909278  0.53909094  1.0
  H  H95  1  0.75000473  0.53909602  0.92181551  1.0
  H  H96  1  0.27342451  0.94479443  0.72095307  1.0
  H  H97  1  0.27343957  0.72094847  0.33426455  1.0
  H  H98  1  0.27342033  0.33426412  0.94478942  1.0
  H  H99  1  0.27343099  0.05521142  0.27904594  1.0
  H  H100  1  0.27342924  0.27904848  0.66574331  1.0
  H  H101  1  0.27342004  0.66573621  0.05520758  1.0
  H  H102  1  0.22656894  0.27905433  0.05521111  1.0
  H  H103  1  0.22657679  0.66574059  0.27905118  1.0
  H  H104  1  0.22657530  0.05521712  0.66573439  1.0
  H  H105  1  0.22656648  0.72094887  0.94478710  1.0
  H  H106  1  0.22657194  0.33426007  0.72095306  1.0
  H  H107  1  0.22657343  0.94478904  0.33425756  1.0
  H  H108  1  0.72656678  0.05521361  0.27904779  1.0
  H  H109  1  0.72655717  0.27904728  0.66574356  1.0
  H  H110  1  0.72658125  0.66574053  0.05521167  1.0
  H  H111  1  0.72657059  0.94478646  0.72095120  1.0
  H  H112  1  0.72656810  0.72095363  0.33426455  1.0
  H  H113  1  0.72657731  0.33425574  0.94479289  1.0
  H  H114  1  0.77343990  0.72095159  0.94478861  1.0
  H  H115  1  0.77342055  0.33425644  0.72095555  1.0
  H  H116  1  0.77342628  0.94479133  0.33425746  1.0
  H  H117  1  0.77343086  0.27904477  0.05521546  1.0
  H  H118  1  0.77342116  0.66574966  0.27904659  1.0
  H  H119  1  0.77342331  0.05520926  0.66574193  1.0
  H  H120  1  0.24999960  0.99999780  0.54736763  1.0
  H  H121  1  0.24999504  0.54736492  0.45263816  1.0
  H  H122  1  0.25000426  0.45263546  0.00000182  1.0
  H  H123  1  0.24999858  0.99999953  0.45263127  1.0
  H  H124  1  0.24999346  0.45263029  0.54736694  1.0
  H  H125  1  0.24999937  0.54736694  0.99999565  1.0
  H  H126  1  0.74999956  0.99999881  0.45263454  1.0
  H  H127  1  0.75000593  0.45262914  0.54736859  1.0
  H  H128  1  0.74999429  0.54736834  0.99999566  1.0
  H  H129  1  0.74999816  0.00000173  0.54736638  1.0
  H  H130  1  0.74999413  0.54736713  0.45263077  1.0
  H  H131  1  0.74999798  0.45262754  0.00000686  1.0
  H  H132  1  0.41665904  0.90875595  0.73674085  1.0
  H  H133  1  0.41666265  0.73674617  0.35450044  1.0
  H  H134  1  0.41665866  0.35450326  0.90875853  1.0
  H  H135  1  0.41665840  0.09124343  0.26325603  1.0
  H  H136  1  0.41665842  0.26325491  0.64549816  1.0
  H  H137  1  0.41665818  0.64549823  0.09123950  1.0
  H  H138  1  0.08334150  0.26326017  0.09123923  1.0
  H  H139  1  0.08333917  0.64549154  0.26325962  1.0
  H  H140  1  0.08333957  0.09124757  0.64549794  1.0
  H  H141  1  0.08334226  0.73673975  0.90875827  1.0
  H  H142  1  0.08333794  0.35450203  0.73674289  1.0
  H  H143  1  0.08333754  0.90875869  0.35450189  1.0
  H  H144  1  0.58333830  0.09124149  0.26325724  1.0
  H  H145  1  0.58333711  0.26325594  0.64550045  1.0
  H  H146  1  0.58333747  0.64549884  0.09123760  1.0
  H  H147  1  0.58333894  0.90875613  0.73674283  1.0
  H  H148  1  0.58334134  0.73674212  0.35449903  1.0
  H  H149  1  0.58333735  0.35450176  0.90876282  1.0
  H  H150  1  0.91666371  0.73674405  0.90875657  1.0
  H  H151  1  0.91665878  0.35450295  0.73673921  1.0
  H  H152  1  0.91665898  0.90875834  0.35450142  1.0
  H  H153  1  0.91666114  0.26325431  0.09124628  1.0
  H  H154  1  0.91665941  0.64549203  0.26326019  1.0
  H  H155  1  0.91666041  0.09124765  0.64549799  1.0
  H  H156  1  0.49999977  0.85824347  0.62253196  1.0
  H  H157  1  0.50000092  0.62253170  0.51922167  1.0
  H  H158  1  0.50000132  0.51922583  0.85824304  1.0
  H  H159  1  0.49999878  0.14174890  0.37747233  1.0
  H  H160  1  0.50000005  0.37747252  0.48078000  1.0
  H  H161  1  0.49999784  0.48077501  0.14175738  1.0
  H  H162  1  0.00000037  0.37747148  0.14175091  1.0
  H  H163  1  0.99999894  0.48076807  0.37747833  1.0
  H  H164  1  0.99999894  0.14174429  0.48077977  1.0
  H  H165  1  0.99999879  0.62253360  0.85824446  1.0
  H  H166  1  0.00000325  0.51922430  0.62252706  1.0
  H  H167  1  0.99999794  0.85824452  0.51922369  1.0
  C  C168  1  0.26439724  0.83525324  0.78804894  1.0
  C  C169  1  0.26439802  0.78804829  0.37670100  1.0
  C  C170  1  0.26440025  0.37670081  0.83525469  1.0
  C  C171  1  0.26439637  0.16474877  0.21194760  1.0
  C  C172  1  0.26440284  0.21194991  0.62330001  1.0
  C  C173  1  0.26440425  0.62329655  0.16474674  1.0
  C  C174  1  0.23560110  0.21195209  0.16474539  1.0
  C  C175  1  0.23560994  0.62329755  0.21194964  1.0
  C  C176  1  0.23560555  0.16474675  0.62330138  1.0
  C  C177  1  0.23559985  0.78805156  0.83525074  1.0
  C  C178  1  0.23560250  0.37669973  0.78805261  1.0
  C  C179  1  0.23560386  0.83525180  0.37669950  1.0
  C  C180  1  0.73560011  0.16474463  0.21195004  1.0
  C  C181  1  0.73560416  0.21195254  0.62330053  1.0
  C  C182  1  0.73559770  0.62329791  0.16474863  1.0
  C  C183  1  0.73560400  0.83525418  0.78805140  1.0
  C  C184  1  0.73560479  0.78804796  0.37669713  1.0
  C  C185  1  0.73560035  0.37670556  0.83524975  1.0
  C  C186  1  0.76439746  0.78805002  0.83525440  1.0
  C  C187  1  0.76439829  0.37670667  0.78804653  1.0
  C  C188  1  0.76440269  0.83525026  0.37669766  1.0
  C  C189  1  0.76439931  0.21194801  0.16474812  1.0
  C  C190  1  0.76439303  0.62329729  0.21195119  1.0
  C  C191  1  0.76440195  0.16475030  0.62330066  1.0
  C  C192  1  0.25000070  0.76823717  0.76823801  1.0
  C  C193  1  0.24999769  0.76823779  0.46352632  1.0
  C  C194  1  0.24999914  0.46352521  0.76823738  1.0
  C  C195  1  0.24999869  0.23176142  0.23176173  1.0
  C  C196  1  0.24999807  0.23175995  0.53647311  1.0
  C  C197  1  0.24999965  0.53647168  0.23176321  1.0
  C  C198  1  0.74999907  0.23175773  0.23176429  1.0
  C  C199  1  0.75000207  0.23176390  0.53647368  1.0
  C  C200  1  0.74999820  0.53647181  0.23176312  1.0
  C  C201  1  0.74999986  0.76824111  0.76823748  1.0
  C  C202  1  0.75000109  0.76823707  0.46352372  1.0
  C  C203  1  0.75000072  0.46353127  0.76823543  1.0
  C  C204  1  0.26865958  0.78883551  0.62816844  1.0
  C  C205  1  0.26866070  0.62816913  0.58300114  1.0
  C  C206  1  0.26866264  0.58300196  0.78882704  1.0
  C  C207  1  0.26866482  0.21116609  0.37183013  1.0
  C  C208  1  0.26865341  0.37182654  0.41700150  1.0
  C  C209  1  0.26866115  0.41700430  0.21116810  1.0
  C  C210  1  0.23134335  0.37183003  0.21117280  1.0
  C  C211  1  0.23133944  0.41700010  0.37182902  1.0
  C  C212  1  0.23134396  0.21116541  0.41700199  1.0
  C  C213  1  0.23134374  0.62817403  0.78882570  1.0
  C  C214  1  0.23134160  0.58299633  0.62817146  1.0
  C  C215  1  0.23134193  0.78883695  0.58299516  1.0
  C  C216  1  0.73134261  0.21116745  0.37183056  1.0
  C  C217  1  0.73134572  0.37183001  0.41700197  1.0
  C  C218  1  0.73133591  0.41699762  0.21116888  1.0
  C  C219  1  0.73134523  0.78883602  0.62816929  1.0
  C  C220  1  0.73134212  0.62816795  0.58300137  1.0
  C  C221  1  0.73134467  0.58300162  0.78882942  1.0
  C  C222  1  0.76866065  0.62817251  0.78883228  1.0
  C  C223  1  0.76865911  0.58299311  0.62817155  1.0
  C  C224  1  0.76866186  0.78883713  0.58299428  1.0
  C  C225  1  0.76865481  0.37182723  0.21116791  1.0
  C  C226  1  0.76865514  0.41700705  0.37182880  1.0
  C  C227  1  0.76866207  0.21116727  0.41700248  1.0
  C  C228  1  0.25000003  0.87592426  0.56204077  1.0
  C  C229  1  0.25000451  0.56203893  0.56204026  1.0
  C  C230  1  0.25000387  0.56204334  0.87591677  1.0
  C  C231  1  0.25000360  0.12407772  0.43795801  1.0
  C  C232  1  0.25000032  0.43795967  0.43796021  1.0
  C  C233  1  0.24999673  0.43796075  0.12407839  1.0
  C  C234  1  0.75000155  0.12407827  0.43796175  1.0
  C  C235  1  0.74999404  0.43796318  0.43796100  1.0
  C  C236  1  0.74999650  0.43795707  0.12407984  1.0
  C  C237  1  0.74999798  0.87592439  0.56203701  1.0
  C  C238  1  0.74999884  0.56203736  0.56204102  1.0
  C  C239  1  0.75000304  0.56204348  0.87591961  1.0
  C  C240  1  0.26181726  0.97220632  0.67637286  1.0
  C  C241  1  0.26182848  0.67637064  0.35142842  1.0
  C  C242  1  0.26181353  0.35143044  0.97220229  1.0
  C  C243  1  0.26181865  0.02779822  0.32362389  1.0
  C  C244  1  0.26181591  0.32362586  0.64857601  1.0
  C  C245  1  0.26181331  0.64856944  0.02779605  1.0
  C  C246  1  0.23817823  0.32363178  0.02779810  1.0
  C  C247  1  0.23818707  0.64857307  0.32363108  1.0
  C  C248  1  0.23818086  0.02780214  0.64857220  1.0
  C  C249  1  0.23817677  0.67637017  0.97220108  1.0
  C  C250  1  0.23818184  0.35142423  0.67637446  1.0
  C  C251  1  0.23818382  0.97220193  0.35142262  1.0
  C  C252  1  0.73817947  0.02779917  0.32362634  1.0
  C  C253  1  0.73817249  0.32362469  0.64857769  1.0
  C  C254  1  0.73818805  0.64857378  0.02779791  1.0
  C  C255  1  0.73817929  0.97220177  0.67637293  1.0
  C  C256  1  0.73817538  0.67637625  0.35142525  1.0
  C  C257  1  0.73818464  0.35142292  0.97220568  1.0
  C  C258  1  0.76182819  0.67637286  0.97220116  1.0
  C  C259  1  0.76181088  0.35142184  0.67637635  1.0
  C  C260  1  0.76181225  0.97220294  0.35142354  1.0
  C  C261  1  0.76182360  0.32362304  0.02780133  1.0
  C  C262  1  0.76181247  0.64857958  0.32362668  1.0
  C  C263  1  0.76181231  0.02779721  0.64857646  1.0
  C  C264  1  0.24999649  0.00000057  0.58716561  1.0
  C  C265  1  0.25000001  0.58716572  0.41283885  1.0
  C  C266  1  0.24999998  0.41283654  0.00000193  1.0
  C  C267  1  0.24999866  0.00000013  0.41283161  1.0
  C  C268  1  0.24999696  0.41283244  0.58716587  1.0
  C  C269  1  0.25000123  0.58716586  0.99999554  1.0
  C  C270  1  0.75000146  0.99999858  0.41283493  1.0
  C  C271  1  0.75000097  0.41283088  0.58716773  1.0
  C  C272  1  0.74999978  0.58716853  0.99999492  1.0
  C  C273  1  0.74999626  0.00000112  0.58716531  1.0
  C  C274  1  0.74999433  0.58716797  0.41283330  1.0
  C  C275  1  0.75000277  0.41282820  0.00000754  1.0
  C  C276  1  0.45846642  0.89813595  0.71284864  1.0
  C  C277  1  0.45846627  0.71285195  0.38901372  1.0
  C  C278  1  0.45846486  0.38901634  0.89813830  1.0
  C  C279  1  0.45846450  0.10186225  0.28715024  1.0
  C  C280  1  0.45846526  0.28714879  0.61098682  1.0
  C  C281  1  0.45846425  0.61098524  0.10186072  1.0
  C  C282  1  0.04153719  0.28715163  0.10186213  1.0
  C  C283  1  0.04153416  0.61097838  0.28715576  1.0
  C  C284  1  0.04153231  0.10186447  0.61098617  1.0
  C  C285  1  0.04153551  0.71284947  0.89813631  1.0
  C  C286  1  0.04153613  0.38901635  0.71284697  1.0
  C  C287  1  0.04153313  0.89813662  0.38901558  1.0
  C  C288  1  0.54153395  0.10186192  0.28715107  1.0
  C  C289  1  0.54153350  0.28715057  0.61098697  1.0
  C  C290  1  0.54153249  0.61098492  0.10186008  1.0
  C  C291  1  0.54153527  0.89813562  0.71284874  1.0
  C  C292  1  0.54153511  0.71285163  0.38901345  1.0
  C  C293  1  0.54153309  0.38901559  0.89814008  1.0
  C  C294  1  0.95846741  0.71285006  0.89813677  1.0
  C  C295  1  0.95846742  0.38901568  0.71284879  1.0
  C  C296  1  0.95846503  0.89813722  0.38901457  1.0
  C  C297  1  0.95846788  0.28714967  0.10186313  1.0
  C  C298  1  0.95846485  0.61097856  0.28715569  1.0
  C  C299  1  0.95846421  0.10186506  0.61098479  1.0
  C  C300  1  0.49999912  0.87196844  0.65370620  1.0
  C  C301  1  0.49999863  0.65370693  0.47432716  1.0
  C  C302  1  0.50000124  0.47433071  0.87196848  1.0
  C  C303  1  0.49999762  0.12802944  0.34629607  1.0
  C  C304  1  0.49999811  0.34629771  0.52567320  1.0
  C  C305  1  0.49999791  0.52567097  0.12803153  1.0
  C  C306  1  0.99999990  0.34629552  0.12803144  1.0
  C  C307  1  0.99999784  0.52566455  0.34630104  1.0
  C  C308  1  0.00000005  0.12802827  0.52567057  1.0
  C  C309  1  0.00000047  0.65370446  0.87196758  1.0
  C  C310  1  0.00000132  0.47432698  0.65370404  1.0
  C  C311  1  0.99999865  0.87196816  0.47433018  1.0
  N  N312  1  0.27295533  0.82286793  0.74502067  1.0
  N  N313  1  0.27295346  0.74502003  0.43211417  1.0
  N  N314  1  0.27295594  0.43211399  0.82286776  1.0
  N  N315  1  0.27295613  0.17713156  0.25497711  1.0
  N  N316  1  0.27295800  0.25497777  0.56788483  1.0
  N  N317  1  0.27295553  0.56788338  0.17713219  1.0
  N  N318  1  0.22704128  0.25497918  0.17713132  1.0
  N  N319  1  0.22704451  0.56788549  0.25497941  1.0
  N  N320  1  0.22704100  0.17713000  0.56788876  1.0
  N  N321  1  0.22704180  0.74502149  0.82286778  1.0
  N  N322  1  0.22704342  0.43211134  0.74502161  1.0
  N  N323  1  0.22704390  0.82286811  0.43211199  1.0
  N  N324  1  0.72704201  0.17712740  0.25497957  1.0
  N  N325  1  0.72704449  0.25498039  0.56788720  1.0
  N  N326  1  0.72704201  0.56788430  0.17713284  1.0
  N  N327  1  0.72704121  0.82287055  0.74502194  1.0
  N  N328  1  0.72704600  0.74502010  0.43211011  1.0
  N  N329  1  0.72704363  0.43211830  0.82286562  1.0
  N  N330  1  0.77296090  0.74502378  0.82286694  1.0
  N  N331  1  0.77295647  0.43211915  0.74501765  1.0
  N  N332  1  0.77295816  0.82286660  0.43211085  1.0
  N  N333  1  0.77295736  0.25497554  0.17713418  1.0
  N  N334  1  0.77295393  0.56788356  0.25498105  1.0
  N  N335  1  0.77295829  0.17713357  0.56788802  1.0
  N  N336  1  0.27996688  0.84442196  0.61473653  1.0
  N  N337  1  0.27996919  0.61473527  0.54084754  1.0
  N  N338  1  0.27996909  0.54084896  0.84441493  1.0
  N  N339  1  0.27996650  0.15558050  0.38526013  1.0
  N  N340  1  0.27996419  0.38526253  0.45915365  1.0
  N  N341  1  0.27997215  0.45915563  0.15557846  1.0
  N  N342  1  0.22003445  0.38526266  0.15558551  1.0
  N  N343  1  0.22003467  0.45915360  0.38526264  1.0
  N  N344  1  0.22003538  0.15557839  0.45915320  1.0
  N  N345  1  0.22003519  0.61473884  0.84441282  1.0
  N  N346  1  0.22003255  0.54084449  0.61473556  1.0
  N  N347  1  0.22003547  0.84442438  0.54084376  1.0
  N  N348  1  0.72003470  0.15558099  0.38526468  1.0
  N  N349  1  0.72003118  0.38526556  0.45915436  1.0
  N  N350  1  0.72003249  0.45915230  0.15558125  1.0
  N  N351  1  0.72003871  0.84442119  0.61473547  1.0
  N  N352  1  0.72003497  0.61473407  0.54084890  1.0
  N  N353  1  0.72003729  0.54085030  0.84441685  1.0
  N  N354  1  0.77997257  0.61473818  0.84442005  1.0
  N  N355  1  0.77997175  0.54084130  0.61473562  1.0
  N  N356  1  0.77996559  0.84442372  0.54084182  1.0
  N  N357  1  0.77996578  0.38526201  0.15558063  1.0
  N  N358  1  0.77996722  0.45915847  0.38526564  1.0
  N  N359  1  0.77996551  0.15558112  0.45915507  1.0
  N  N360  1  0.26933933  0.95422071  0.63743992  1.0
  N  N361  1  0.26934488  0.63743783  0.40834690  1.0
  N  N362  1  0.26934290  0.40834805  0.95421897  1.0
  N  N363  1  0.26934363  0.04578131  0.36255881  1.0
  N  N364  1  0.26934049  0.36255911  0.59165767  1.0
  N  N365  1  0.26933945  0.59165186  0.04577971  1.0
  N  N366  1  0.23066107  0.36256297  0.04578431  1.0
  N  N367  1  0.23065887  0.59165495  0.36256678  1.0
  N  N368  1  0.23066020  0.04578482  0.59165463  1.0
  N  N369  1  0.23065597  0.63743813  0.95421494  1.0
  N  N370  1  0.23065514  0.40834149  0.63743920  1.0
  N  N371  1  0.23065744  0.95421796  0.40834121  1.0
  N  N372  1  0.73065438  0.04578013  0.36256307  1.0
  N  N373  1  0.73065367  0.36255835  0.59165879  1.0
  N  N374  1  0.73065808  0.59165745  0.04577802  1.0
  N  N375  1  0.73065614  0.95421783  0.63743770  1.0
  N  N376  1  0.73065443  0.63744131  0.40834297  1.0
  N  N377  1  0.73065850  0.40834051  0.95422422  1.0
  N  N378  1  0.76934414  0.63744169  0.95421457  1.0
  N  N379  1  0.76934331  0.40833911  0.63744107  1.0
  N  N380  1  0.76934259  0.95421813  0.40834144  1.0
  N  N381  1  0.76934138  0.36255381  0.04578884  1.0
  N  N382  1  0.76933736  0.59166105  0.36255928  1.0
  N  N383  1  0.76933990  0.04578245  0.59165723  1.0
  N  N384  1  0.43228106  0.88152293  0.67524810  1.0
  N  N385  1  0.43227888  0.67525109  0.44322849  1.0
  N  N386  1  0.43228014  0.44323226  0.88152054  1.0
  N  N387  1  0.43227903  0.11847310  0.32475300  1.0
  N  N388  1  0.43227758  0.32475214  0.55677378  1.0
  N  N389  1  0.43227813  0.55677054  0.11847571  1.0
  N  N390  1  0.06772020  0.32475554  0.11847200  1.0
  N  N391  1  0.06771762  0.55676407  0.32475750  1.0
  N  N392  1  0.06772148  0.11847412  0.55677194  1.0
  N  N393  1  0.06772152  0.67524900  0.88152211  1.0
  N  N394  1  0.06772047  0.44323031  0.67524536  1.0
  N  N395  1  0.06772024  0.88152322  0.44322945  1.0
  N  N396  1  0.56771809  0.11847198  0.32475492  1.0
  N  N397  1  0.56771967  0.32475440  0.55677255  1.0
  N  N398  1  0.56771841  0.55677027  0.11847501  1.0
  N  N399  1  0.56771771  0.88152223  0.67524725  1.0
  N  N400  1  0.56771977  0.67524786  0.44322743  1.0
  N  N401  1  0.56772163  0.44323071  0.88152451  1.0
  N  N402  1  0.93228017  0.67525081  0.88152127  1.0
  N  N403  1  0.93228336  0.44322872  0.67524402  1.0
  N  N404  1  0.93227828  0.88152248  0.44322951  1.0
  N  N405  1  0.93228066  0.32474929  0.11847849  1.0
  N  N406  1  0.93227929  0.55676418  0.32475824  1.0
  N  N407  1  0.93227832  0.11847381  0.55677105  1.0
