# generated using pymatgen
data_Zn4H32(C12O7)3
_symmetry_space_group_name_H-M   'P 1'
_cell_length_a   17.82658126
_cell_length_b   18.60796139
_cell_length_c   23.42607693
_cell_angle_alpha   66.68794109
_cell_angle_beta   69.56971436
_cell_angle_gamma   89.93561308
_symmetry_Int_Tables_number   1
_chemical_formula_structural   Zn4H32(C12O7)3
_chemical_formula_sum   'Zn8 H64 C72 O42'
_cell_volume   6602.22756331
_cell_formula_units_Z   2
loop_
 _symmetry_equiv_pos_site_id
 _symmetry_equiv_pos_as_xyz
  1  'x, y, z'
loop_
 _atom_site_type_symbol
 _atom_site_label
 _atom_site_symmetry_multiplicity
 _atom_site_fract_x
 _atom_site_fract_y
 _atom_site_fract_z
 _atom_site_occupancy
  Zn  Zn0  1  0.11798465  0.53075755  0.94254564  1.0
  Zn  Zn1  1  0.97247585  0.56031008  0.05061867  1.0
  Zn  Zn2  1  0.97640425  0.38919765  0.05032769  1.0
  Zn  Zn3  1  0.93800291  0.52977432  0.93583171  1.0
  Zn  Zn4  1  0.38517118  0.97743921  0.04905074  1.0
  Zn  Zn5  1  0.52940554  0.11601145  0.93783850  1.0
  Zn  Zn6  1  0.52327204  0.94513459  0.93809443  1.0
  Zn  Zn7  1  0.56719963  0.97283287  0.05064648  1.0
  H  H8  1  0.19840288  0.30158856  0.91128963  1.0
  H  H9  1  0.12672810  0.22959006  0.98775291  1.0
  H  H10  1  0.21607551  0.13823875  0.98500375  1.0
  H  H11  1  0.28760863  0.21087238  0.90886086  1.0
  H  H12  1  0.21573120  0.12463541  0.09596648  1.0
  H  H13  1  0.28739181  0.18616861  0.09973697  1.0
  H  H14  1  0.12720026  0.21710502  0.09878302  1.0
  H  H15  1  0.20000493  0.27880389  0.10119491  1.0
  H  H16  1  0.30246241  0.39180978  0.91420326  1.0
  H  H17  1  0.30301866  0.38331584  0.99155864  1.0
  H  H18  1  0.39176001  0.29117511  0.99020186  1.0
  H  H19  1  0.39168701  0.30048463  0.91258540  1.0
  H  H20  1  0.89004905  0.80004459  0.90599077  1.0
  H  H21  1  0.88623698  0.78742092  0.98604839  1.0
  H  H22  1  0.79729365  0.87951834  0.98690961  1.0
  H  H23  1  0.80098123  0.89095879  0.90712731  1.0
  H  H24  1  0.69389228  0.77583147  0.09225222  1.0
  H  H25  1  0.62218285  0.71412688  0.08862769  1.0
  H  H26  1  0.78139205  0.68239020  0.09142634  1.0
  H  H27  1  0.71013830  0.62216941  0.08595555  1.0
  H  H28  1  0.78936264  0.71228445  0.89763301  1.0
  H  H29  1  0.71633349  0.63894998  0.97088884  1.0
  H  H30  1  0.62659238  0.73007335  0.97332102  1.0
  H  H31  1  0.69936368  0.80291520  0.89975991  1.0
  H  H32  1  0.16258089  0.79364069  0.93709467  1.0
  H  H33  1  0.24671566  0.75713274  0.89635344  1.0
  H  H34  1  0.33386070  0.85251413  0.89414072  1.0
  H  H35  1  0.24923667  0.88767331  0.93601068  1.0
  H  H36  1  0.39350924  0.74308864  0.96082409  1.0
  H  H37  1  0.35246407  0.70180323  0.04960033  1.0
  H  H38  1  0.30503778  0.64758482  0.96401295  1.0
  H  H39  1  0.26372912  0.60769361  0.05277946  1.0
  H  H40  1  0.10187436  0.73570717  0.06503146  1.0
  H  H41  1  0.14259659  0.65940760  0.11229816  1.0
  H  H42  1  0.23150520  0.75323842  0.11012294  1.0
  H  H43  1  0.19008282  0.82951883  0.06347499  1.0
  H  H44  1  0.89887666  0.26689897  0.92971910  1.0
  H  H45  1  0.85408264  0.34299215  0.88522689  1.0
  H  H46  1  0.76833146  0.24718037  0.88663567  1.0
  H  H47  1  0.81162613  0.17138947  0.93310902  1.0
  H  H48  1  0.64950657  0.29815846  0.94660732  1.0
  H  H49  1  0.60620966  0.25687465  0.03524978  1.0
  H  H50  1  0.73602371  0.39208104  0.94708688  1.0
  H  H51  1  0.69359606  0.34890672  0.03586834  1.0
  H  H52  1  0.83928637  0.20404887  0.05762686  1.0
  H  H53  1  0.75668403  0.23814560  0.10147439  1.0
  H  H54  1  0.66694028  0.14605023  0.10264850  1.0
  H  H55  1  0.74968747  0.11029993  0.06068765  1.0
  H  H56  1  0.52741192  0.89238925  0.21188921  1.0
  H  H57  1  0.27782254  0.90024309  0.20410142  1.0
  H  H58  1  0.16318664  0.78276952  0.43386647  1.0
  H  H59  1  0.41321893  0.77772764  0.44225627  1.0
  H  H60  1  0.35073305  0.72152332  0.55764141  1.0
  H  H61  1  0.10254069  0.72762896  0.54539584  1.0
  H  H62  1  0.98394870  0.61235766  0.77533956  1.0
  H  H63  1  0.23137946  0.60618937  0.78739071  1.0
  H  H64  1  0.60340490  0.98789993  0.78024518  1.0
  H  H65  1  0.59869710  0.23006682  0.78073933  1.0
  H  H66  1  0.73539831  0.34499893  0.55248868  1.0
  H  H67  1  0.73885450  0.10231360  0.55179118  1.0
  H  H68  1  0.77445347  0.15966388  0.43763510  1.0
  H  H69  1  0.77406638  0.40235020  0.43816625  1.0
  H  H70  1  0.89193947  0.51713820  0.20832087  1.0
  H  H71  1  0.89523274  0.27476604  0.20790882  1.0
  C  C72  1  0.14143952  0.63529594  0.00325872  1.0
  C  C73  1  0.90790211  0.41070693  0.17858491  1.0
  C  C74  1  0.14472328  0.36437682  0.00097242  1.0
  C  C75  1  0.86085867  0.36515897  0.99110721  1.0
  C  C76  1  0.09228992  0.59427022  0.81119455  1.0
  C  C77  1  0.86049543  0.64293338  0.98979428  1.0
  C  C78  1  0.36097736  0.14274699  0.99659781  1.0
  C  C79  1  0.58460039  0.09424765  0.80982708  1.0
  C  C80  1  0.35586278  0.86274349  0.99826710  1.0
  C  C81  1  0.64347334  0.86466998  0.99246141  1.0
  C  C82  1  0.41729863  0.91137170  0.17812995  1.0
  C  C83  1  0.64643778  0.13951313  0.99306575  1.0
  C  C84  1  0.38103630  0.87439473  0.25152283  1.0
  C  C85  1  0.43151551  0.85453822  0.28969819  1.0
  C  C86  1  0.39598299  0.81941543  0.35996441  1.0
  C  C87  1  0.31045973  0.80332433  0.39299663  1.0
  C  C88  1  0.26021661  0.82260588  0.35541586  1.0
  C  C89  1  0.29467448  0.85810209  0.28519825  1.0
  C  C90  1  0.27422775  0.76779332  0.46395056  1.0
  C  C91  1  0.24072791  0.73699646  0.52562177  1.0
  C  C92  1  0.20354092  0.70164340  0.59651880  1.0
  C  C93  1  0.25257137  0.68226301  0.63514186  1.0
  C  C94  1  0.21672673  0.64714830  0.70532654  1.0
  C  C95  1  0.13021613  0.63092782  0.73787707  1.0
  C  C96  1  0.08097247  0.65069910  0.69862131  1.0
  C  C97  1  0.11789117  0.68580301  0.62845613  1.0
  C  C98  1  0.62451283  0.13088950  0.73681278  1.0
  C  C99  1  0.64603775  0.08217288  0.70104028  1.0
  C  C100  1  0.68544302  0.11778647  0.63114902  1.0
  C  C101  1  0.70303881  0.20141473  0.59627498  1.0
  C  C102  1  0.68350178  0.24987421  0.63150259  1.0
  C  C103  1  0.64384714  0.21536131  0.70136595  1.0
  C  C104  1  0.73975557  0.23692600  0.52552167  1.0
  C  C105  1  0.76959389  0.26805699  0.46377154  1.0
  C  C106  1  0.80371607  0.30354680  0.39291600  1.0
  C  C107  1  0.82072861  0.25501827  0.35767725  1.0
  C  C108  1  0.85551103  0.28956848  0.28751415  1.0
  C  C109  1  0.87270023  0.37408250  0.25184067  1.0
  C  C110  1  0.85449397  0.42279425  0.28775565  1.0
  C  C111  1  0.82003743  0.38716399  0.35792977  1.0
  C  C112  1  0.18998559  0.25958774  0.96263493  1.0
  C  C113  1  0.24936761  0.19884176  0.96100888  1.0
  C  C114  1  0.30421444  0.20359964  0.99857705  1.0
  C  C115  1  0.24924634  0.18508101  0.07185261  1.0
  C  C116  1  0.19059196  0.24639263  0.07324291  1.0
  C  C117  1  0.20469283  0.30617346  0.00092024  1.0
  C  C118  1  0.29283939  0.34887808  0.96538589  1.0
  C  C119  1  0.35180980  0.28804502  0.96431040  1.0
  C  C120  1  0.84874836  0.78610887  0.95780758  1.0
  C  C121  1  0.78939714  0.84707555  0.95858186  1.0
  C  C122  1  0.70078945  0.80397701  0.99138837  1.0
  C  C123  1  0.68564294  0.74376094  0.06381494  1.0
  C  C124  1  0.74422216  0.68243667  0.06268447  1.0
  C  C125  1  0.80068828  0.70144416  0.98957264  1.0
  C  C126  1  0.74927296  0.69930271  0.94945799  1.0
  C  C127  1  0.68977457  0.75974436  0.95086728  1.0
  C  C128  1  0.21905588  0.77138797  0.93965749  1.0
  C  C129  1  0.27706970  0.83426926  0.93845818  1.0
  C  C130  1  0.29684617  0.80006900  0.00258901  1.0
  C  C131  1  0.33664147  0.72568045  0.00490677  1.0
  C  C132  1  0.27783918  0.66274487  0.00682173  1.0
  C  C133  1  0.19827366  0.69450310  0.00509199  1.0
  C  C134  1  0.15895474  0.71407074  0.06582670  1.0
  C  C135  1  0.21761235  0.77644281  0.06453424  1.0
  C  C136  1  0.84077860  0.28742173  0.93051262  1.0
  C  C137  1  0.78288391  0.22406343  0.93188031  1.0
  C  C138  1  0.70323883  0.19908988  0.99467043  1.0
  C  C139  1  0.66398745  0.27393549  0.99181357  1.0
  C  C140  1  0.72193762  0.33591384  0.99185388  1.0
  C  C141  1  0.80151630  0.30422589  0.99340102  1.0
  C  C142  1  0.78245763  0.22618284  0.05670961  1.0
  C  C143  1  0.72336914  0.16436299  0.05793861  1.0
  O  O144  1  0.00072622  0.50316730  0.99360376  1.0
  O  O145  1  0.17109817  0.60825149  0.95902873  1.0
  O  O146  1  0.92062320  0.48714032  0.14729051  1.0
  O  O147  1  0.07109466  0.33569480  0.04097997  1.0
  O  O148  1  0.06808621  0.61822822  0.04474264  1.0
  O  O149  1  0.17154546  0.43699155  0.96019171  1.0
  O  O150  1  0.92509092  0.36562051  0.14713231  1.0
  O  O151  1  0.89818662  0.33926478  0.03097481  1.0
  O  O152  1  0.01400852  0.57973679  0.83976213  1.0
  O  O153  1  0.87005221  0.43716357  0.94900288  1.0
  O  O154  1  0.13855105  0.57753064  0.84517938  1.0
  O  O155  1  0.89845117  0.63386721  0.02886861  1.0
  O  O156  1  0.86894356  0.60784711  0.95140084  1.0
  O  O157  1  0.50154184  0.00214880  0.99516621  1.0
  O  O158  1  0.32980826  0.06979643  0.03334209  1.0
  O  O159  1  0.56574039  0.13931371  0.84123288  1.0
  O  O160  1  0.42734574  0.87880782  0.95340480  1.0
  O  O161  1  0.43526342  0.16873115  0.95792317  1.0
  O  O162  1  0.33006051  0.89542247  0.03862014  1.0
  O  O163  1  0.56926988  0.01778514  0.84111194  1.0
  O  O164  1  0.60589731  0.87927350  0.95272150  1.0
  O  O165  1  0.49539823  0.92388933  0.14811895  1.0
  O  O166  1  0.63750482  0.89680690  0.03277800  1.0
  O  O167  1  0.36962744  0.93046919  0.14548139  1.0
  O  O168  1  0.61798735  0.16612883  0.94680848  1.0
  O  O169  1  0.63157941  0.06799779  0.03704306  1.0
  O  O170  1  0.51341976  0.86826064  0.26127823  1.0
  O  O171  1  0.24286884  0.87490660  0.25284434  1.0
  O  O172  1  0.17750798  0.80779561  0.38538957  1.0
  O  O173  1  0.44661113  0.80180493  0.39436041  1.0
  O  O174  1  0.33536176  0.69670639  0.60624909  1.0
  O  O175  1  0.06833267  0.70359387  0.59310000  1.0
  O  O176  1  0.99902451  0.63735133  0.72579491  1.0
  O  O177  1  0.26726564  0.63032740  0.73887303  1.0
  O  O178  1  0.63057423  0.00212885  0.73130204  1.0
  O  O179  1  0.62620548  0.26491286  0.73190650  1.0
  O  O180  1  0.70167281  0.33071362  0.59948967  1.0
  O  O181  1  0.70535379  0.06932112  0.59874156  1.0
  O  O182  1  0.80445196  0.17413409  0.38995257  1.0
  O  O183  1  0.80323000  0.43566274  0.39043725  1.0
  O  O184  1  0.86867038  0.50285448  0.25743089  1.0
  O  O185  1  0.87066457  0.23996488  0.25694511  1.0
