# generated using pymatgen
data_Zn4H4C24S4Br4O13
_symmetry_space_group_name_H-M   'P 1'
_cell_length_a   19.77911954
_cell_length_b   19.78765089
_cell_length_c   33.63967048
_cell_angle_alpha   78.57195347
_cell_angle_beta   78.59860137
_cell_angle_gamma   63.56620761
_symmetry_Int_Tables_number   1
_chemical_formula_structural   Zn4H4C24S4Br4O13
_chemical_formula_sum   'Zn16 H16 C96 S16 Br16 O52'
_cell_volume   11465.48048565
_cell_formula_units_Z   4
loop_
 _symmetry_equiv_pos_site_id
 _symmetry_equiv_pos_as_xyz
  1  'x, y, z'
loop_
 _atom_site_type_symbol
 _atom_site_label
 _atom_site_symmetry_multiplicity
 _atom_site_fract_x
 _atom_site_fract_y
 _atom_site_fract_z
 _atom_site_occupancy
  Zn  Zn0  1  0.05622684  0.40131164  0.47879182  1.0
  Zn  Zn1  1  0.98259517  0.48248747  0.55988774  1.0
  Zn  Zn2  1  0.05990161  0.55996375  0.48246263  1.0
  Zn  Zn3  1  0.90131843  0.55605161  0.47881672  1.0
  Zn  Zn4  1  0.69371543  0.34869709  0.27119680  1.0
  Zn  Zn5  1  0.69008131  0.19005476  0.26748678  1.0
  Zn  Zn6  1  0.76752342  0.26748664  0.19007558  1.0
  Zn  Zn7  1  0.84859721  0.19391212  0.27124166  1.0
  Zn  Zn8  1  0.26743124  0.76752060  0.69010802  1.0
  Zn  Zn9  1  0.34868538  0.69388372  0.77120511  1.0
  Zn  Zn10  1  0.19372854  0.84866827  0.77122987  1.0
  Zn  Zn11  1  0.19009879  0.69004561  0.76752670  1.0
  Zn  Zn12  1  0.55991931  0.05995514  0.98250292  1.0
  Zn  Zn13  1  0.40142123  0.05602315  0.97876239  1.0
  Zn  Zn14  1  0.55624280  0.90128059  0.97882271  1.0
  Zn  Zn15  1  0.48250567  0.98252830  0.05991457  1.0
  H  H16  1  0.28630280  0.51000066  0.40924875  1.0
  H  H17  1  0.46364494  0.24005212  0.34073762  1.0
  H  H18  1  0.77115964  0.54750246  0.64820819  1.0
  H  H19  1  0.47889273  0.70253175  0.60178831  1.0
  H  H20  1  0.04754952  0.27109409  0.64816796  1.0
  H  H21  1  0.20250059  0.97894887  0.60182518  1.0
  H  H22  1  0.80137401  0.77922515  0.40219721  1.0
  H  H23  1  0.94853668  0.97078125  0.34785559  1.0
  H  H24  1  0.70254578  0.47894759  0.10182167  1.0
  H  H25  1  0.54749447  0.77110070  0.14817095  1.0
  H  H26  1  0.08664992  0.10894610  0.20964293  1.0
  H  H27  1  0.16331446  0.14103355  0.04033896  1.0
  H  H28  1  0.44857032  0.47078030  0.84783502  1.0
  H  H29  1  0.30141107  0.27922173  0.90217683  1.0
  H  H30  1  0.96363944  0.74005261  0.84074391  1.0
  H  H31  1  0.78629526  0.01000318  0.90925553  1.0
  C  C32  1  0.06128912  0.31592652  0.56169129  1.0
  C  C33  1  0.06845609  0.56852897  0.56846760  1.0
  C  C34  1  0.18429517  0.43903147  0.43858395  1.0
  C  C35  1  0.93806754  0.68427197  0.43856787  1.0
  C  C36  1  0.93148852  0.43146210  0.43156111  1.0
  C  C37  1  0.81592771  0.56126678  0.56170634  1.0
  C  C38  1  0.56566188  0.31102257  0.31143365  1.0
  C  C39  1  0.68161245  0.18146823  0.18149816  1.0
  C  C40  1  0.68881388  0.43409442  0.18833131  1.0
  C  C41  1  0.93456627  0.18837483  0.18876865  1.0
  C  C42  1  0.81845965  0.31849227  0.31848429  1.0
  C  C43  1  0.81190352  0.06566626  0.31146698  1.0
  C  C44  1  0.43411130  0.68878765  0.68831110  1.0
  C  C45  1  0.31846922  0.81849360  0.81846179  1.0
  C  C46  1  0.18878754  0.93409515  0.68832416  1.0
  C  C47  1  0.06564064  0.81102425  0.81142642  1.0
  C  C48  1  0.18158075  0.68149731  0.68150094  1.0
  C  C49  1  0.31191937  0.56566499  0.81144139  1.0
  C  C50  1  0.43808471  0.18427746  0.93854574  1.0
  C  C51  1  0.43150554  0.93144847  0.93153796  1.0
  C  C52  1  0.68427165  0.93903513  0.93857554  1.0
  C  C53  1  0.56125573  0.81593137  0.06168642  1.0
  C  C54  1  0.56842902  0.06855645  0.06846773  1.0
  C  C55  1  0.31545434  0.06169329  0.06121732  1.0
  C  C56  1  0.90252607  0.40249518  0.40249994  1.0
  C  C57  1  0.84749116  0.34754516  0.34746578  1.0
  C  C58  1  0.83022064  0.44660492  0.38840454  1.0
  C  C59  1  0.91978687  0.30344151  0.36156516  1.0
  C  C60  1  0.80335301  0.41981649  0.36154235  1.0
  C  C61  1  0.94668308  0.33024616  0.38839948  1.0
  C  C62  1  0.09747964  0.59752193  0.59747953  1.0
  C  C63  1  0.15254598  0.65248802  0.65248493  1.0
  C  C64  1  0.14066009  0.64073445  0.58245863  1.0
  C  C65  1  0.10935027  0.60927946  0.66749786  1.0
  C  C66  1  0.16754435  0.66754516  0.60929242  1.0
  C  C67  1  0.08247288  0.58246335  0.64066095  1.0
  C  C68  1  0.30360993  0.45354573  0.40120898  1.0
  C  C69  1  0.44633806  0.29647327  0.34882453  1.0
  C  C70  1  0.25902254  0.41366981  0.41365678  1.0
  C  C71  1  0.49094120  0.33632002  0.33640409  1.0
  C  C72  1  0.37812085  0.33902973  0.37241707  1.0
  C  C73  1  0.37181532  0.41096954  0.37761638  1.0
  C  C74  1  0.72621329  0.57628029  0.62861767  1.0
  C  C75  1  0.52382892  0.67372458  0.62138888  1.0
  C  C76  1  0.74095048  0.58635822  0.58640479  1.0
  C  C77  1  0.50906209  0.66364552  0.66361439  1.0
  C  C78  1  0.60283846  0.64192630  0.60859569  1.0
  C  C79  1  0.64719991  0.60802802  0.64142227  1.0
  C  C80  1  0.07631412  0.22615789  0.62860576  1.0
  C  C81  1  0.17370553  0.02387156  0.62140049  1.0
  C  C82  1  0.08636856  0.24094680  0.58639019  1.0
  C  C83  1  0.16365284  0.00904982  0.66362785  1.0
  C  C84  1  0.14191881  0.10286448  0.60859485  1.0
  C  C85  1  0.10805025  0.14715928  0.64142331  1.0
  C  C86  1  0.84518476  0.79997011  0.39758627  1.0
  C  C87  1  0.90476634  0.94999757  0.35247467  1.0
  C  C88  1  0.91354171  0.75903970  0.41366811  1.0
  C  C89  1  0.83636548  0.99093381  0.33640955  1.0
  C  C90  1  0.90811239  0.88044296  0.37472974  1.0
  C  C91  1  0.84191402  0.86944814  0.37527487  1.0
  C  C92  1  0.65257994  0.15246212  0.15248154  1.0
  C  C93  1  0.59745660  0.09753794  0.09747961  1.0
  C  C94  1  0.66760336  0.16750929  0.10928587  1.0
  C  C95  1  0.58242363  0.08248978  0.14066604  1.0
  C  C96  1  0.64067065  0.14072345  0.08246036  1.0
  C  C97  1  0.60935233  0.10928089  0.16749291  1.0
  C  C98  1  0.67372153  0.52386746  0.12139797  1.0
  C  C99  1  0.57628859  0.72616395  0.12860851  1.0
  C  C100  1  0.66365978  0.50904180  0.16362528  1.0
  C  C101  1  0.58635321  0.74095939  0.08639316  1.0
  C  C102  1  0.60803667  0.64716294  0.14142292  1.0
  C  C103  1  0.64192282  0.60286587  0.10859602  1.0
  C  C104  1  0.07978200  0.12498580  0.17736725  1.0
  C  C105  1  0.17020791  0.12490195  0.07260538  1.0
  C  C106  1  0.00907801  0.16357505  0.16362366  1.0
  C  C107  1  0.24092013  0.08636530  0.08635112  1.0
  C  C108  1  0.11148503  0.13898807  0.10569083  1.0
  C  C109  1  0.13851200  0.11083903  0.14428241  1.0
  C  C110  1  0.34750306  0.84751137  0.84745377  1.0
  C  C111  1  0.40253741  0.90245593  0.90249098  1.0
  C  C112  1  0.30335403  0.91978197  0.86154054  1.0
  C  C113  1  0.44668019  0.83019679  0.88839916  1.0
  C  C114  1  0.33024971  0.94657341  0.88837758  1.0
  C  C115  1  0.41981481  0.80340738  0.86153921  1.0
  C  C116  1  0.40477932  0.45001488  0.85246745  1.0
  C  C117  1  0.34520284  0.29998680  0.89757974  1.0
  C  C118  1  0.33638811  0.49095170  0.83640178  1.0
  C  C119  1  0.41356487  0.25906353  0.91366111  1.0
  C  C120  1  0.34192123  0.36947242  0.87527316  1.0
  C  C121  1  0.40812074  0.38046728  0.87472760  1.0
  C  C122  1  0.94633032  0.79647684  0.84882596  1.0
  C  C123  1  0.80360219  0.95354930  0.90120982  1.0
  C  C124  1  0.99093180  0.83632591  0.83639980  1.0
  C  C125  1  0.75901372  0.91367910  0.91365026  1.0
  C  C126  1  0.87181097  0.91097008  0.87762104  1.0
  C  C127  1  0.87811707  0.83903056  0.87242104  1.0
  S  S128  1  0.29954052  0.32459410  0.39683287  1.0
  S  S129  1  0.45040325  0.42540402  0.35323465  1.0
  S  S130  1  0.65928137  0.63426063  0.56211586  1.0
  S  S131  1  0.59074059  0.61569448  0.68789818  1.0
  S  S132  1  0.13425689  0.15934269  0.56210651  1.0
  S  S133  1  0.11571798  0.09066223  0.68790775  1.0
  S  S134  1  0.97400571  0.80454829  0.40181452  1.0
  S  S135  1  0.77598517  0.94535008  0.34821969  1.0
  S  S136  1  0.61569935  0.59065773  0.18790644  1.0
  S  S137  1  0.63426653  0.65935044  0.06210843  1.0
  S  S138  1  0.01351464  0.18284885  0.11064468  1.0
  S  S139  1  0.23647794  0.06708054  0.13932480  1.0
  S  S140  1  0.27599581  0.44537190  0.84821668  1.0
  S  S141  1  0.47401633  0.30457475  0.90181159  1.0
  S  S142  1  0.95039608  0.92540786  0.85323569  1.0
  S  S143  1  0.79953164  0.82459918  0.89683336  1.0
  Br  Br144  1  0.76404010  0.54442570  0.40437600  1.0
  Br  Br145  1  0.98587275  0.20547341  0.34570951  1.0
  Br  Br146  1  0.70543106  0.48585398  0.34562779  1.0
  Br  Br147  1  0.04466276  0.26422738  0.40426663  1.0
  Br  Br148  1  0.16557403  0.66599954  0.52553233  1.0
  Br  Br149  1  0.08445787  0.58403479  0.72441624  1.0
  Br  Br150  1  0.22449854  0.72447753  0.58416612  1.0
  Br  Br151  1  0.02551689  0.52552225  0.66580090  1.0
  Br  Br152  1  0.72473194  0.22425589  0.08417841  1.0
  Br  Br153  1  0.52528361  0.02574476  0.16578203  1.0
  Br  Br154  1  0.66558044  0.16602425  0.02553380  1.0
  Br  Br155  1  0.58445721  0.08401109  0.22441230  1.0
  Br  Br156  1  0.20538759  0.98579595  0.84565911  1.0
  Br  Br157  1  0.54460846  0.76415207  0.90430966  1.0
  Br  Br158  1  0.26415443  0.04454563  0.90423223  1.0
  Br  Br159  1  0.48597721  0.70558186  0.84556851  1.0
  O  O160  1  0.00003029  0.49996327  0.49999413  1.0
  O  O161  1  0.07817666  0.31611136  0.52291311  1.0
  O  O162  1  0.03030350  0.53044868  0.58414787  1.0
  O  O163  1  0.15646582  0.50551462  0.44942991  1.0
  O  O164  1  0.02503460  0.37393763  0.58101970  1.0
  O  O165  1  0.15385720  0.39187221  0.44714842  1.0
  O  O166  1  0.08413085  0.58415194  0.53035039  1.0
  O  O167  1  0.00472900  0.65631329  0.44946969  1.0
  O  O168  1  0.88895546  0.49643355  0.44277911  1.0
  O  O169  1  0.89095412  0.65398957  0.44708112  1.0
  O  O170  1  0.99644328  0.38890043  0.44285253  1.0
  O  O171  1  0.87398395  0.52498206  0.58103310  1.0
  O  O172  1  0.81605663  0.57817839  0.52292639  1.0
  O  O173  1  0.74998570  0.25003129  0.25000600  1.0
  O  O174  1  0.59608874  0.35816530  0.30290882  1.0
  O  O175  1  0.66594406  0.16582460  0.21961339  1.0
  O  O176  1  0.72506378  0.37605195  0.16902623  1.0
  O  O177  1  0.59346683  0.24458484  0.30051132  1.0
  O  O178  1  0.67198857  0.43393222  0.22711640  1.0
  O  O179  1  0.71973849  0.21958139  0.16584393  1.0
  O  O180  1  0.87630792  0.22476436  0.16945388  1.0
  O  O181  1  0.86101922  0.25351092  0.30728586  1.0
  O  O182  1  0.93454883  0.17149402  0.22745429  1.0
  O  O183  1  0.75343999  0.36095560  0.30726098  1.0
  O  O184  1  0.74530056  0.09360662  0.30046262  1.0
  O  O185  1  0.85900565  0.09593505  0.30300911  1.0
  O  O186  1  0.24998653  0.75002923  0.75000685  1.0
  O  O187  1  0.37605506  0.72504904  0.66899467  1.0
  O  O188  1  0.36098057  0.75348550  0.80727466  1.0
  O  O189  1  0.17197200  0.93390048  0.72711327  1.0
  O  O190  1  0.43398027  0.67192715  0.72710403  1.0
  O  O191  1  0.22500967  0.87608110  0.66900176  1.0
  O  O192  1  0.25348474  0.86101205  0.80721118  1.0
  O  O193  1  0.09608171  0.85816567  0.80289957  1.0
  O  O194  1  0.16589571  0.66589363  0.71961536  1.0
  O  O195  1  0.09344107  0.74459727  0.80049745  1.0
  O  O196  1  0.21973506  0.71956549  0.66582450  1.0
  O  O197  1  0.35900380  0.59597067  0.80297573  1.0
  O  O198  1  0.24533662  0.59355893  0.80042687  1.0
  O  O199  1  0.50002946  0.99996302  0.99998778  1.0
  O  O200  1  0.50475262  0.15627797  0.94944630  1.0
  O  O201  1  0.38891230  0.99638933  0.94277437  1.0
  O  O202  1  0.65385018  0.89187517  0.94713616  1.0
  O  O203  1  0.39094917  0.15402932  0.94704159  1.0
  O  O204  1  0.65643860  0.00552937  0.94941373  1.0
  O  O205  1  0.49650231  0.88895771  0.94279363  1.0
  O  O206  1  0.57814967  0.81608365  0.02290938  1.0
  O  O207  1  0.53028646  0.03045019  0.08412421  1.0
  O  O208  1  0.52497741  0.87397594  0.08099502  1.0
  O  O209  1  0.58410021  0.08420921  0.03035147  1.0
  O  O210  1  0.31547317  0.07862958  0.02253426  1.0
  O  O211  1  0.37372034  0.02535661  0.08053457  1.0
