# generated using pymatgen
data_ZnH26C27NClO4
_symmetry_space_group_name_H-M   'P 1'
_cell_length_a   13.92979134
_cell_length_b   15.30142858
_cell_length_c   16.13967637
_cell_angle_alpha   90.20906283
_cell_angle_beta   89.92357713
_cell_angle_gamma   89.85328687
_symmetry_Int_Tables_number   1
_chemical_formula_structural   ZnH26C27NClO4
_chemical_formula_sum   'Zn2 H52 C54 N2 Cl2 O8'
_cell_volume   3440.06545395
_cell_formula_units_Z   2
loop_
 _symmetry_equiv_pos_site_id
 _symmetry_equiv_pos_as_xyz
  1  'x, y, z'
loop_
 _atom_site_type_symbol
 _atom_site_label
 _atom_site_symmetry_multiplicity
 _atom_site_fract_x
 _atom_site_fract_y
 _atom_site_fract_z
 _atom_site_occupancy
  Zn  Zn0  1  0.59910647  0.50276523  0.49989060  1.0
  Zn  Zn1  1  0.40119386  0.49832925  0.49933669  1.0
  H  H2  1  0.24968765  0.42911040  0.61023232  1.0
  H  H3  1  0.93338583  0.57748469  0.61019095  1.0
  H  H4  1  0.24796425  0.56945238  0.39126527  1.0
  H  H5  1  0.75247461  0.57717720  0.60592462  1.0
  H  H6  1  0.43669655  0.74488730  0.96237592  1.0
  H  H7  1  0.32807284  0.68534162  0.95510719  1.0
  H  H8  1  0.33828496  0.77275047  0.02720382  1.0
  H  H9  1  0.35271594  0.63247080  0.10378895  1.0
  H  H10  1  0.46355411  0.68687090  0.10709633  1.0
  H  H11  1  0.67207376  0.30863931  0.04369518  1.0
  H  H12  1  0.56302984  0.24980017  0.03596724  1.0
  H  H13  1  0.75039071  0.42457988  0.39342709  1.0
  H  H14  1  0.66119801  0.22195499  0.97091042  1.0
  H  H15  1  0.53658985  0.30914384  0.89170226  1.0
  H  H16  1  0.64772612  0.36285752  0.89535937  1.0
  H  H17  1  0.60324813  0.73332107  0.04065445  1.0
  H  H18  1  0.70098307  0.65931660  0.04734767  1.0
  H  H19  1  0.70524036  0.74755780  0.97627110  1.0
  H  H20  1  0.66850270  0.61150901  0.89784635  1.0
  H  H21  1  0.56763731  0.68055702  0.89533724  1.0
  H  H22  1  0.29900397  0.33659227  0.95311441  1.0
  H  H23  1  0.39676636  0.26254540  0.95910239  1.0
  H  H24  1  0.33431032  0.50967434  0.95092129  1.0
  H  H25  1  0.29524960  0.24823685  0.02407239  1.0
  H  H26  1  0.43336747  0.31500735  0.10441953  1.0
  H  H27  1  0.33270080  0.38429764  0.10235262  1.0
  H  H28  1  0.59593445  0.93316086  0.27050206  1.0
  H  H29  1  0.58228484  0.03765399  0.31744641  1.0
  H  H30  1  0.69612292  0.00446532  0.27902296  1.0
  H  H31  1  0.68889490  0.99379659  0.43382113  1.0
  H  H32  1  0.71154463  0.89159934  0.38682539  1.0
  H  H33  1  0.41735433  0.06714392  0.26693394  1.0
  H  H34  1  0.42751525  0.96277865  0.31394620  1.0
  H  H35  1  0.66656303  0.48569698  0.04861391  1.0
  H  H36  1  0.31634284  0.99642456  0.27083153  1.0
  H  H37  1  0.31430166  0.00753873  0.42582513  1.0
  H  H38  1  0.29508948  0.10966386  0.37833844  1.0
  H  H39  1  0.25954907  0.72333333  0.49824913  1.0
  H  H40  1  0.22488536  0.83123955  0.52771521  1.0
  H  H41  1  0.19975765  0.74182386  0.59447356  1.0
  H  H42  1  0.37437780  0.71738354  0.61782161  1.0
  H  H43  1  0.34175674  0.82522144  0.64643824  1.0
  H  H44  1  0.64123097  0.27995911  0.72557495  1.0
  H  H45  1  0.53803956  0.30488367  0.66618699  1.0
  H  H46  1  0.62389963  0.77042143  0.42083116  1.0
  H  H47  1  0.55067522  0.19941756  0.71044270  1.0
  H  H48  1  0.69423339  0.17010842  0.61864960  1.0
  H  H49  1  0.68083754  0.27535360  0.57402611  1.0
  H  H50  1  0.38181725  0.23059200  0.41582270  1.0
  H  H51  1  0.37716062  0.94945126  0.56040348  1.0
  H  H52  1  0.61894490  0.05111352  0.56510599  1.0
  H  H53  1  0.06706132  0.57133972  0.38728926  1.0
  C  C54  1  0.49985867  0.67120312  0.49825906  1.0
  C  C55  1  0.56837793  0.09138792  0.53021591  1.0
  C  C56  1  0.50023825  0.95174201  0.48065720  1.0
  C  C57  1  0.50000453  0.04897450  0.48082797  1.0
  C  C58  1  0.10498812  0.53897982  0.43761985  1.0
  C  C59  1  0.89534740  0.54285914  0.56118040  1.0
  C  C60  1  0.20459892  0.53882733  0.43935095  1.0
  C  C61  1  0.79573303  0.54342719  0.55933580  1.0
  C  C62  1  0.20629729  0.45947276  0.56196384  1.0
  C  C63  1  0.79386193  0.45738882  0.44028655  1.0
  C  C64  1  0.10612342  0.45692371  0.56392625  1.0
  C  C65  1  0.50172654  0.32974877  0.49849486  1.0
  C  C66  1  0.89403829  0.45416193  0.43838719  1.0
  C  C67  1  0.05326813  0.49743006  0.50064598  1.0
  C  C68  1  0.94699575  0.49771570  0.49991472  1.0
  C  C69  1  0.49944772  0.49923520  0.33669895  1.0
  C  C70  1  0.49993859  0.50063955  0.66279187  1.0
  C  C71  1  0.55260145  0.56753806  0.97170829  1.0
  C  C72  1  0.44823992  0.42794635  0.02787496  1.0
  C  C73  1  0.46023986  0.57372262  0.02899162  1.0
  C  C74  1  0.54054135  0.42172313  0.97049183  1.0
  C  C75  1  0.50051221  0.49818336  0.24744650  1.0
  C  C76  1  0.56865881  0.81114686  0.44974749  1.0
  C  C77  1  0.49948312  0.49972453  0.75203521  1.0
  C  C78  1  0.59261326  0.49107956  0.02600653  1.0
  C  C79  1  0.40825271  0.50435123  0.97351830  1.0
  C  C80  1  0.50267875  0.49709719  0.08448800  1.0
  C  C81  1  0.49814433  0.49848911  0.91502740  1.0
  C  C82  1  0.50253964  0.49732190  0.17193168  1.0
  C  C83  1  0.49804988  0.49896750  0.82758650  1.0
  C  C84  1  0.57311680  0.90188633  0.44173148  1.0
  C  C85  1  0.43000458  0.09893855  0.43902110  1.0
  C  C86  1  0.41323166  0.65393024  0.06464514  1.0
  C  C87  1  0.43485337  0.18983882  0.44721484  1.0
  C  C88  1  0.37715582  0.71775262  0.99872874  1.0
  C  C89  1  0.58709309  0.34148682  0.93441495  1.0
  C  C90  1  0.62274371  0.27692414  0.99983284  1.0
  C  C91  1  0.61203016  0.64070703  0.93730493  1.0
  C  C92  1  0.65782980  0.69840081  0.00405616  1.0
  C  C93  1  0.38881569  0.35493517  0.06261456  1.0
  C  C94  1  0.34247641  0.29738769  0.99606818  1.0
  C  C95  1  0.65624871  0.94238453  0.39526301  1.0
  C  C96  1  0.63098984  0.98161954  0.31071865  1.0
  C  C97  1  0.34951168  0.05867717  0.38892828  1.0
  C  C98  1  0.49655399  0.76887554  0.49507608  1.0
  C  C99  1  0.37960121  0.01903076  0.30540878  1.0
  C  C100  1  0.35026200  0.78048167  0.59326373  1.0
  C  C101  1  0.25268462  0.76858252  0.55082650  1.0
  C  C102  1  0.64156489  0.22077258  0.60192916  1.0
  C  C103  1  0.58996558  0.25303821  0.68057292  1.0
  C  C104  1  0.50444187  0.23192645  0.49549147  1.0
  C  C105  1  0.42583496  0.81845672  0.53661579  1.0
  C  C106  1  0.57246492  0.18209813  0.53978548  1.0
  C  C107  1  0.42963243  0.90923064  0.52721397  1.0
  N  N108  1  0.25346078  0.49955254  0.50066626  1.0
  N  N109  1  0.74679392  0.50122787  0.49970338  1.0
  Cl  Cl110  1  0.05074450  0.40168848  0.64352510  1.0
  Cl  Cl111  1  0.94929484  0.39444993  0.36110681  1.0
  O  O112  1  0.58253060  0.63523153  0.49685079  1.0
  O  O113  1  0.41919548  0.36592654  0.49629936  1.0
  O  O114  1  0.41999623  0.63071940  0.50073106  1.0
  O  O115  1  0.58163741  0.37007315  0.50160365  1.0
  O  O116  1  0.58096112  0.49749527  0.37258740  1.0
  O  O117  1  0.41847692  0.49500574  0.62705688  1.0
  O  O118  1  0.41727948  0.50189541  0.37161504  1.0
  O  O119  1  0.58159401  0.50688716  0.62748472  1.0
