# generated using pymatgen
data_Zr3H25C46Cl5O16
_symmetry_space_group_name_H-M   'P 1'
_cell_length_a   18.99171580
_cell_length_b   19.15837645
_cell_length_c   19.15851444
_cell_angle_alpha   90.47468167
_cell_angle_beta   119.64040239
_cell_angle_gamma   119.63844985
_symmetry_Int_Tables_number   1
_chemical_formula_structural   Zr3H25C46Cl5O16
_chemical_formula_sum   'Zr6 H50 C92 Cl10 O32'
_cell_volume   4962.23139357
_cell_formula_units_Z   2
loop_
 _symmetry_equiv_pos_site_id
 _symmetry_equiv_pos_as_xyz
  1  'x, y, z'
loop_
 _atom_site_type_symbol
 _atom_site_label
 _atom_site_symmetry_multiplicity
 _atom_site_fract_x
 _atom_site_fract_y
 _atom_site_fract_z
 _atom_site_occupancy
  Zr  Zr0  1  0.49985885  0.90726237  0.90726653  1.0
  Zr  Zr1  1  0.50086299  0.09273256  0.09275530  1.0
  Zr  Zr2  1  0.68565567  0.09134651  0.09139397  1.0
  Zr  Zr3  1  0.31502946  0.90858307  0.90864760  1.0
  Zr  Zr4  1  0.50029758  0.90818293  0.09179552  1.0
  Zr  Zr5  1  0.50030538  0.09175584  0.90821236  1.0
  H  H6  1  0.64610521  0.92683451  0.07127345  1.0
  H  H7  1  0.35461098  0.92872271  0.07320461  1.0
  H  H8  1  0.64611038  0.21745080  0.07278709  1.0
  H  H9  1  0.35452592  0.92717303  0.78253283  1.0
  H  H10  1  0.50005189  0.45437542  0.11362411  1.0
  H  H11  1  0.50110216  0.54593935  0.88673045  1.0
  H  H12  1  0.49672462  0.68149349  0.10332779  1.0
  H  H13  1  0.49911842  0.55472705  0.11136084  1.0
  H  H14  1  0.49685243  0.31518507  0.89319257  1.0
  H  H15  1  0.49935025  0.44437008  0.88766524  1.0
  H  H16  1  0.49875769  0.11309232  0.45366203  1.0
  H  H17  1  0.49981360  0.88619845  0.54520290  1.0
  H  H18  1  0.50338275  0.10672648  0.68472458  1.0
  H  H19  1  0.50057622  0.11218155  0.55536261  1.0
  H  H20  1  0.50340483  0.89651805  0.31839056  1.0
  H  H21  1  0.50074202  0.88847038  0.44500368  1.0
  H  H22  1  0.83915394  0.45269459  0.88697552  1.0
  H  H23  1  0.16128165  0.54823289  0.11399134  1.0
  H  H24  1  0.07573756  0.67901302  0.89211763  1.0
  H  H25  1  0.94146222  0.55243234  0.88731331  1.0
  H  H26  1  0.92482960  0.31762316  0.10454931  1.0
  H  H27  1  0.05898475  0.44734004  0.11249881  1.0
  H  H28  1  0.83900803  0.88610341  0.45201958  1.0
  H  H29  1  0.16115840  0.11312514  0.54756072  1.0
  H  H30  1  0.07569018  0.89551622  0.68260810  1.0
  H  H31  1  0.94146287  0.88766042  0.55306036  1.0
  H  H32  1  0.92475956  0.10791795  0.32121099  1.0
  H  H33  1  0.05893244  0.11279710  0.44793590  1.0
  H  H34  1  0.29079817  0.11176709  0.10884124  1.0
  H  H35  1  0.07019124  0.89095823  0.88798917  1.0
  H  H36  1  0.71003399  0.89124409  0.88818891  1.0
  H  H37  1  0.93067619  0.11211179  0.10904040  1.0
  H  H38  1  0.06858608  0.45381604  0.45317691  1.0
  H  H39  1  0.93190365  0.54692407  0.54632024  1.0
  H  H40  1  0.28776099  0.68042439  0.68360371  1.0
  H  H41  1  0.16733607  0.55415789  0.55485022  1.0
  H  H42  1  0.71268255  0.31623286  0.31956703  1.0
  H  H43  1  0.83296462  0.44502030  0.44581104  1.0
  H  H44  1  0.17067390  0.19747789  0.26257515  1.0
  H  H45  1  0.06276320  0.19392519  0.19446765  1.0
  H  H46  1  0.17067806  0.26259125  0.19813541  1.0
  H  H47  1  0.29093758  0.26233207  0.19769537  1.0
  H  H48  1  0.32568431  0.19295225  0.19416346  1.0
  H  H49  1  0.28991714  0.19737593  0.26245391  1.0
  H  H50  1  0.70998730  0.80236174  0.73762969  1.0
  H  H51  1  0.67508664  0.80584339  0.80692645  1.0
  H  H52  1  0.71099114  0.73761398  0.80259730  1.0
  H  H53  1  0.83024010  0.73745856  0.80256778  1.0
  H  H54  1  0.93816852  0.80560937  0.80620677  1.0
  H  H55  1  0.83025724  0.80187495  0.73743924  1.0
  C  C56  1  0.49581571  0.76332547  0.99438586  1.0
  C  C57  1  0.50469505  0.00558764  0.23664426  1.0
  C  C58  1  0.49603238  0.23238854  0.00128280  1.0
  C  C59  1  0.50445725  0.99866891  0.76752469  1.0
  C  C60  1  0.73678797  0.00211776  0.99790614  1.0
  C  C61  1  0.26171391  0.76340806  0.76764212  1.0
  C  C62  1  0.26403554  0.00210264  0.99794436  1.0
  C  C63  1  0.73893880  0.23235769  0.23661540  1.0
  C  C64  1  0.73245064  0.99929663  0.23618129  1.0
  C  C65  1  0.73263758  0.23135527  0.99460543  1.0
  C  C66  1  0.26794757  0.00538335  0.76868753  1.0
  C  C67  1  0.26806020  0.76383755  0.00065954  1.0
  C  C68  1  0.49667739  0.31067187  0.00442444  1.0
  C  C69  1  0.49716087  0.68605857  0.99223340  1.0
  C  C70  1  0.49783161  0.35208601  0.06669727  1.0
  C  C71  1  0.49928333  0.42547535  0.06399155  1.0
  C  C72  1  0.49880684  0.64603037  0.93135799  1.0
  C  C73  1  0.50005143  0.57397840  0.93543632  1.0
  C  C74  1  0.49762349  0.65039891  0.05620795  1.0
  C  C75  1  0.49895409  0.57888682  0.06011796  1.0
  C  C76  1  0.49748266  0.34699299  0.94109197  1.0
  C  C77  1  0.49893358  0.41989112  0.93860171  1.0
  C  C78  1  0.49960179  0.46107281  0.00042406  1.0
  C  C79  1  0.49980025  0.53844482  0.99905164  1.0
  C  C80  1  0.50304834  0.00765949  0.31377005  1.0
  C  C81  1  0.50356959  0.99549793  0.68913543  1.0
  C  C82  1  0.50127625  0.06850806  0.35369660  1.0
  C  C83  1  0.49986564  0.06439977  0.42567073  1.0
  C  C84  1  0.50233103  0.93320712  0.64766244  1.0
  C  C85  1  0.50067923  0.93585506  0.57418398  1.0
  C  C86  1  0.50268245  0.05881853  0.65283041  1.0
  C  C87  1  0.50105712  0.06127089  0.57985272  1.0
  C  C88  1  0.50245435  0.94364732  0.34940388  1.0
  C  C89  1  0.50099737  0.93973584  0.42085557  1.0
  C  C90  1  0.50011132  0.00079954  0.46124489  1.0
  C  C91  1  0.50031190  0.99942555  0.53861566  1.0
  C  C92  1  0.80728784  0.31049060  0.99273067  1.0
  C  C93  1  0.19329147  0.68614479  0.00394965  1.0
  C  C94  1  0.78521049  0.35107478  0.93180601  1.0
  C  C95  1  0.86096348  0.42469395  0.93586286  1.0
  C  C96  1  0.21530986  0.64717215  0.06648934  1.0
  C  C97  1  0.13950222  0.57522552  0.06408840  1.0
  C  C98  1  0.09273613  0.64912367  0.94050156  1.0
  C  C99  1  0.01763978  0.57769306  0.93833830  1.0
  C  C100  1  0.90779429  0.34841790  0.05705910  1.0
  C  C101  1  0.98284007  0.42160839  0.06098739  1.0
  C  C102  1  0.96103562  0.46148636  0.99955916  1.0
  C  C103  1  0.03942577  0.53862191  0.00056830  1.0
  C  C104  1  0.80715539  0.99606294  0.31398676  1.0
  C  C105  1  0.19319707  0.00734385  0.68969854  1.0
  C  C106  1  0.78506581  0.93357004  0.35299734  1.0
  C  C107  1  0.86082858  0.93597155  0.42501052  1.0
  C  C108  1  0.21519471  0.06828078  0.64911715  1.0
  C  C109  1  0.13939244  0.06423505  0.57556294  1.0
  C  C110  1  0.09269753  0.94302856  0.65184321  1.0
  C  C111  1  0.01760424  0.93912450  0.57871872  1.0
  C  C112  1  0.90770326  0.05952759  0.35108740  1.0
  C  C113  1  0.98275502  0.06173615  0.42261279  1.0
  C  C114  1  0.96091110  0.99950597  0.46166042  1.0
  C  C115  1  0.03932640  0.00053717  0.53880698  1.0
  C  C116  1  0.21221785  0.06426282  0.06185474  1.0
  C  C117  1  0.14022375  0.06550156  0.06434661  1.0
  C  C118  1  0.16663659  0.13009309  0.12980355  1.0
  C  C119  1  0.08607232  0.93799767  0.93557457  1.0
  C  C120  1  0.01035363  0.93552529  0.93434396  1.0
  C  C121  1  0.90686994  0.87020302  0.86984169  1.0
  C  C122  1  0.78862862  0.93823020  0.93572679  1.0
  C  C123  1  0.86060507  0.93570990  0.93450056  1.0
  C  C124  1  0.83416097  0.87024781  0.86989484  1.0
  C  C125  1  0.91475746  0.06449501  0.06197956  1.0
  C  C126  1  0.99047167  0.06569383  0.06448027  1.0
  C  C127  1  0.09392833  0.13018267  0.12982742  1.0
  C  C128  1  0.18543621  0.00155895  0.99823922  1.0
  C  C129  1  0.03772374  0.00045949  0.99949429  1.0
  C  C130  1  0.81535875  0.00181712  0.99843319  1.0
  C  C131  1  0.96309231  0.00053772  0.99955658  1.0
  C  C132  1  0.81955306  0.31084310  0.31403729  1.0
  C  C133  1  0.18100816  0.68604965  0.68911324  1.0
  C  C134  1  0.92200090  0.35205103  0.35380940  1.0
  C  C135  1  0.99093391  0.42532227  0.42564894  1.0
  C  C136  1  0.07855952  0.64629299  0.64797054  1.0
  C  C137  1  0.00952985  0.57442006  0.57470881  1.0
  C  C138  1  0.20884270  0.64990450  0.65230627  1.0
  C  C139  1  0.14017524  0.57854767  0.57953441  1.0
  C  C140  1  0.79160739  0.34757692  0.35013309  1.0
  C  C141  1  0.86019027  0.42037166  0.42146686  1.0
  C  C142  1  0.96247597  0.46126296  0.46152814  1.0
  C  C143  1  0.03790964  0.53848249  0.53872897  1.0
  C  C144  1  0.12487336  0.19889045  0.19912251  1.0
  C  C145  1  0.27356964  0.19853321  0.19891329  1.0
  C  C146  1  0.72724072  0.80112981  0.80140765  1.0
  C  C147  1  0.87599362  0.80091945  0.80117114  1.0
  Cl  Cl148  1  0.49753236  0.31811648  0.15023234  1.0
  Cl  Cl149  1  0.49965300  0.68026368  0.84809169  1.0
  Cl  Cl150  1  0.50041680  0.15173257  0.31939470  1.0
  Cl  Cl151  1  0.50263533  0.84965140  0.68157947  1.0
  Cl  Cl152  1  0.66650976  0.31583103  0.84832984  1.0
  Cl  Cl153  1  0.33399157  0.68259492  0.15019142  1.0
  Cl  Cl154  1  0.66635064  0.84993038  0.31756135  1.0
  Cl  Cl155  1  0.33384245  0.15179077  0.68430376  1.0
  Cl  Cl156  1  0.97213644  0.31781855  0.31926980  1.0
  Cl  Cl157  1  0.02854079  0.68086169  0.68233896  1.0
  O  O158  1  0.49454144  0.79494706  0.93576877  1.0
  O  O159  1  0.50618704  0.06429295  0.20510787  1.0
  O  O160  1  0.49649840  0.20040424  0.05950760  1.0
  O  O161  1  0.50418508  0.94050877  0.79955451  1.0
  O  O162  1  0.76511689  0.06134416  0.05751769  1.0
  O  O163  1  0.23606750  0.79604626  0.80073127  1.0
  O  O164  1  0.23570732  0.94251174  0.93870590  1.0
  O  O165  1  0.76462249  0.19925945  0.20402541  1.0
  O  O166  1  0.64152719  0.94181532  0.20368642  1.0
  O  O167  1  0.64169804  0.19832623  0.93663132  1.0
  O  O168  1  0.35886286  0.06330915  0.80159035  1.0
  O  O169  1  0.35896922  0.79627451  0.05812165  1.0
  O  O170  1  0.76468847  0.20294831  0.05450064  1.0
  O  O171  1  0.23596519  0.94545022  0.79708349  1.0
  O  O172  1  0.23603370  0.79305982  0.94160368  1.0
  O  O173  1  0.76451315  0.05830101  0.20692470  1.0
  O  O174  1  0.64681033  0.94301495  0.93927052  1.0
  O  O175  1  0.64992188  0.20457599  0.20780860  1.0
  O  O176  1  0.35399648  0.06074503  0.05705624  1.0
  O  O177  1  0.35071694  0.79212413  0.79545634  1.0
  O  O178  1  0.50385980  0.05857235  0.79632072  1.0
  O  O179  1  0.49730458  0.79307179  0.05533924  1.0
  O  O180  1  0.50324387  0.94464665  0.20694895  1.0
  O  O181  1  0.49666305  0.20365719  0.94137774  1.0
  O  O182  1  0.39559384  0.94784866  0.84429033  1.0
  O  O183  1  0.60510194  0.15569382  0.05212630  1.0
  O  O184  1  0.39605787  0.94860514  0.05240991  1.0
  O  O185  1  0.60462613  0.94759816  0.05136862  1.0
  O  O186  1  0.57745279  0.03836746  0.11450004  1.0
  O  O187  1  0.42319322  0.88545367  0.96161047  1.0
  O  O188  1  0.42362164  0.03836403  0.96238454  1.0
  O  O189  1  0.57706899  0.03760848  0.96162562  1.0
