# generated using pymatgen
data_Cd3H62C72S2(N8O7)2
_symmetry_space_group_name_H-M   'P 1'
_cell_length_a   10.20753495
_cell_length_b   13.10645692
_cell_length_c   17.44887951
_cell_angle_alpha   79.67280026
_cell_angle_beta   85.61703717
_cell_angle_gamma   78.05080915
_symmetry_Int_Tables_number   1
_chemical_formula_structural   Cd3H62C72S2(N8O7)2
_chemical_formula_sum   'Cd3 H62 C72 S2 N16 O14'
_cell_volume   2244.93716790
_cell_formula_units_Z   1
loop_
 _symmetry_equiv_pos_site_id
 _symmetry_equiv_pos_as_xyz
  1  'x, y, z'
loop_
 _atom_site_type_symbol
 _atom_site_label
 _atom_site_symmetry_multiplicity
 _atom_site_fract_x
 _atom_site_fract_y
 _atom_site_fract_z
 _atom_site_occupancy
  Cd  Cd0  1  0.95386773  0.90141007  0.79939710  1.0
  Cd  Cd1  1  0.04613176  0.09858873  0.20060355  1.0
  Cd  Cd2  1  0.49999854  0.50000020  0.50000227  1.0
  H  H3  1  0.59733460  0.19414883  0.69651329  1.0
  H  H4  1  0.46788343  0.90557143  0.79956326  1.0
  H  H5  1  0.17764761  0.18042654  0.70921910  1.0
  H  H6  1  0.22313454  0.73908683  0.72723356  1.0
  H  H7  1  0.19470033  0.56555733  0.66123480  1.0
  H  H8  1  0.81474483  0.72007083  0.73974006  1.0
  H  H9  1  0.82616109  0.58407519  0.64199388  1.0
  H  H10  1  0.98720197  0.51751515  0.61520040  1.0
  H  H11  1  0.07890095  0.45962425  0.79244956  1.0
  H  H12  1  0.06108998  0.30115263  0.88828704  1.0
  H  H13  1  0.72885495  0.25574952  0.76892191  1.0
  H  H14  1  0.74126451  0.41963230  0.67465323  1.0
  H  H15  1  0.90500696  0.09970054  0.85488844  1.0
  H  H16  1  0.78299703  0.16700227  0.91525526  1.0
  H  H17  1  0.16539561  0.09510216  0.89031178  1.0
  H  H18  1  0.26197347  0.07161822  0.03945905  1.0
  H  H19  1  0.84151671  0.16742965  0.05144337  1.0
  H  H20  1  0.40266574  0.80584677  0.30348375  1.0
  H  H21  1  0.53211664  0.09442500  0.20043826  1.0
  H  H22  1  0.82235210  0.81956749  0.29078047  1.0
  H  H23  1  0.77687142  0.26091355  0.27276718  1.0
  H  H24  1  0.80530696  0.43444150  0.33876954  1.0
  H  H25  1  0.18526275  0.27993506  0.26025642  1.0
  H  H26  1  0.17384310  0.41593231  0.35800539  1.0
  H  H27  1  0.01280046  0.48248760  0.38479959  1.0
  H  H28  1  0.92109772  0.54038168  0.20755186  1.0
  H  H29  1  0.93891128  0.69885091  0.11171232  1.0
  H  H30  1  0.27114651  0.74425718  0.23107643  1.0
  H  H31  1  0.25873714  0.58037361  0.32534578  1.0
  H  H32  1  0.09499927  0.90030297  0.14510670  1.0
  H  H33  1  0.21700742  0.83299651  0.08474175  1.0
  H  H34  1  0.83461116  0.90489900  0.10968768  1.0
  H  H35  1  0.73802875  0.92838533  0.96054141  1.0
  H  H36  1  0.15848558  0.83256992  0.94855362  1.0
  H  H37  1  0.84305325  0.51300159  0.47774349  1.0
  H  H38  1  0.04352842  0.34531904  0.54516653  1.0
  H  H39  1  0.67179475  0.24669332  0.56193632  1.0
  H  H40  1  0.03467120  0.16999922  0.62427844  1.0
  H  H41  1  0.87847476  0.13519954  0.65115596  1.0
  H  H42  1  0.03465790  0.95322183  0.64188255  1.0
  H  H43  1  0.91647317  0.18680300  0.43957735  1.0
  H  H44  1  0.64549273  0.70678330  0.50756732  1.0
  H  H45  1  0.51957253  0.71550607  0.74397149  1.0
  H  H46  1  0.45557957  0.53793978  0.69774557  1.0
  H  H47  1  0.75055782  0.82733828  0.60512597  1.0
  H  H48  1  0.62593853  0.86204647  0.67703758  1.0
  H  H49  1  0.37091605  0.90028476  0.60299300  1.0
  H  H50  1  0.74897299  0.96308205  0.49835514  1.0
  H  H51  1  0.15694564  0.48699563  0.52225797  1.0
  H  H52  1  0.95647127  0.65467501  0.45483476  1.0
  H  H53  1  0.32819958  0.75330628  0.43806729  1.0
  H  H54  1  0.96532913  0.82999639  0.37571918  1.0
  H  H55  1  0.12152552  0.86479609  0.34884509  1.0
  H  H56  1  0.96533612  0.04677537  0.35811624  1.0
  H  H57  1  0.08352065  0.81319499  0.56042135  1.0
  H  H58  1  0.35450715  0.29321392  0.49243410  1.0
  H  H59  1  0.48042281  0.28450143  0.25602870  1.0
  H  H60  1  0.54441594  0.46206695  0.30225701  1.0
  H  H61  1  0.24944247  0.17266129  0.39487339  1.0
  H  H62  1  0.37406293  0.13795627  0.32296130  1.0
  H  H63  1  0.62908662  0.09971322  0.39700476  1.0
  H  H64  1  0.25102829  0.03691752  0.50164361  1.0
  C  C65  1  0.38414028  0.19871183  0.69871430  1.0
  C  C66  1  0.51696508  0.15051169  0.71364635  1.0
  C  C67  1  0.54739700  0.04457040  0.75036524  1.0
  C  C68  1  0.68909553  0.99082696  0.76720737  1.0
  C  C69  1  0.44454375  0.98791459  0.77124379  1.0
  C  C70  1  0.31159138  0.03615368  0.75619153  1.0
  C  C71  1  0.20279437  0.97293721  0.77684905  1.0
  C  C72  1  0.28132269  0.14239979  0.72039282  1.0
  C  C73  1  0.13443412  0.70993765  0.71846364  1.0
  C  C74  1  0.12155257  0.62556437  0.68489629  1.0
  C  C75  1  0.92165235  0.70355007  0.72628297  1.0
  C  C76  1  0.92462590  0.54447478  0.66449382  1.0
  C  C77  1  0.91130572  0.45086908  0.72693534  1.0
  C  C78  1  0.99969303  0.41701540  0.78766209  1.0
  C  C79  1  0.99038991  0.32612661  0.84162732  1.0
  C  C80  1  0.89405799  0.26693519  0.83499541  1.0
  C  C81  1  0.80433329  0.30166147  0.77446384  1.0
  C  C82  1  0.81217913  0.39315528  0.72128840  1.0
  C  C83  1  0.88466356  0.16446201  0.88893515  1.0
  C  C84  1  0.11452852  0.10590286  0.94590645  1.0
  C  C85  1  0.16042012  0.09486966  0.01951017  1.0
  C  C86  1  0.94326987  0.14591298  0.02817047  1.0
  C  C87  1  0.61585884  0.80128458  0.30128496  1.0
  C  C88  1  0.48303265  0.84948630  0.28635333  1.0
  C  C89  1  0.45260210  0.95542602  0.24963575  1.0
  C  C90  1  0.31090353  0.00916948  0.23279591  1.0
  C  C91  1  0.55545634  0.01208182  0.22875601  1.0
  C  C92  1  0.68840793  0.96384194  0.24380898  1.0
  C  C93  1  0.79720514  0.02705762  0.22315099  1.0
  C  C94  1  0.71867683  0.85759504  0.27960608  1.0
  C  C95  1  0.86557066  0.29006352  0.28153761  1.0
  C  C96  1  0.87845416  0.37443681  0.31510545  1.0
  C  C97  1  0.07835538  0.29645506  0.27371648  1.0
  C  C98  1  0.07537691  0.45553035  0.33550640  1.0
  C  C99  1  0.08869435  0.54913526  0.27306453  1.0
  C  C100  1  0.00030447  0.58299131  0.21233812  1.0
  C  C101  1  0.00960956  0.67388009  0.15837224  1.0
  C  C102  1  0.10594288  0.73306993  0.16500317  1.0
  C  C103  1  0.19566658  0.69834365  0.22553593  1.0
  C  C104  1  0.18782053  0.60685065  0.27871241  1.0
  C  C105  1  0.11534107  0.83553993  0.11106199  1.0
  C  C106  1  0.88547608  0.89409909  0.05409241  1.0
  C  C107  1  0.83958389  0.90513467  0.98048896  1.0
  C  C108  1  0.05673123  0.85408738  0.97182703  1.0
  C  C109  1  0.83871601  0.43245103  0.50487256  1.0
  C  C110  1  0.93809140  0.35090921  0.53607546  1.0
  C  C111  1  0.74476745  0.29715140  0.54653164  1.0
  C  C112  1  0.94167107  0.16149496  0.60058595  1.0
  C  C113  1  0.97124574  0.07970921  0.54718621  1.0
  C  C114  1  0.01829023  0.97376806  0.57953993  1.0
  C  C115  1  0.95345725  0.10512467  0.46676441  1.0
  C  C116  1  0.60262191  0.68366130  0.56541683  1.0
  C  C117  1  0.53607626  0.68598152  0.68908535  1.0
  C  C118  1  0.50464896  0.59948131  0.66538066  1.0
  C  C119  1  0.64213667  0.83918937  0.61896032  1.0
  C  C120  1  0.56812325  0.92274882  0.55767330  1.0
  C  C121  1  0.42792325  0.94393814  0.55788204  1.0
  C  C122  1  0.63959422  0.97935575  0.49933329  1.0
  C  C123  1  0.16128402  0.56754541  0.49513183  1.0
  C  C124  1  0.06190731  0.64908483  0.46392530  1.0
  C  C125  1  0.25522690  0.70284820  0.45347140  1.0
  C  C126  1  0.05832490  0.83850225  0.39941391  1.0
  C  C127  1  0.02874749  0.92028720  0.45281272  1.0
  C  C128  1  0.98170221  0.02622756  0.42045972  1.0
  C  C129  1  0.04653599  0.89487174  0.53323453  1.0
  C  C130  1  0.39737835  0.31633829  0.43458425  1.0
  C  C131  1  0.46392143  0.31402441  0.31091554  1.0
  C  C132  1  0.49534833  0.40052224  0.33462171  1.0
  C  C133  1  0.35786440  0.16081100  0.38103890  1.0
  C  C134  1  0.43187898  0.07725076  0.44232713  1.0
  C  C135  1  0.57207922  0.05606063  0.44211563  1.0
  C  C136  1  0.36040726  0.02064303  0.50066556  1.0
  S  S137  1  0.34155657  0.33390996  0.65160091  1.0
  S  S138  1  0.65843589  0.66608170  0.34839871  1.0
  N  N139  1  0.00887967  0.75792412  0.74366876  1.0
  N  N140  1  0.98635813  0.62303225  0.69004299  1.0
  N  N141  1  0.97681773  0.13818926  0.95251328  1.0
  N  N142  1  0.05243987  0.11971576  0.07018972  1.0
  N  N143  1  0.99112727  0.24208022  0.25633140  1.0
  N  N144  1  0.01364820  0.37697052  0.30995855  1.0
  N  N145  1  0.02318789  0.86181268  0.04748382  1.0
  N  N146  1  0.94755864  0.88028698  0.92980985  1.0
  N  N147  1  0.71872753  0.39784892  0.51161689  1.0
  N  N148  1  0.87655371  0.26599967  0.56256333  1.0
  N  N149  1  0.54673085  0.59940424  0.58821632  1.0
  N  N150  1  0.59841214  0.73820369  0.62509538  1.0
  N  N151  1  0.28126976  0.60215068  0.48838660  1.0
  N  N152  1  0.12344026  0.73399755  0.43743890  1.0
  N  N153  1  0.45326723  0.40059615  0.41178646  1.0
  N  N154  1  0.40158538  0.26179906  0.37490480  1.0
  O  O155  1  0.46200997  0.35207686  0.60192324  1.0
  O  O156  1  0.31386997  0.39902688  0.71289059  1.0
  O  O157  1  0.22562924  0.33824511  0.60500161  1.0
  O  O158  1  0.77955670  0.04715808  0.75715234  1.0
  O  O159  1  0.71481941  0.89119559  0.79098640  1.0
  O  O160  1  0.23077881  0.87801377  0.81040497  1.0
  O  O161  1  0.08356138  0.02223779  0.75785079  1.0
  O  O162  1  0.53797990  0.64792113  0.39807676  1.0
  O  O163  1  0.68611369  0.60096871  0.28710541  1.0
  O  O164  1  0.77436717  0.66174258  0.39499724  1.0
  O  O165  1  0.22044217  0.95283915  0.24285084  1.0
  O  O166  1  0.28518007  0.10880321  0.20901482  1.0
  O  O167  1  0.76922068  0.12198107  0.18959622  1.0
  O  O168  1  0.91643951  0.97775942  0.24214887  1.0
