# generated using pymatgen
data_AlH8C14O9
_symmetry_space_group_name_H-M   'P 1'
_cell_length_a   6.64245577
_cell_length_b   11.04500447
_cell_length_c   17.77002242
_cell_angle_alpha   82.48324827
_cell_angle_beta   79.27300515
_cell_angle_gamma   72.65206202
_symmetry_Int_Tables_number   1
_chemical_formula_structural   AlH8C14O9
_chemical_formula_sum   'Al2 H16 C28 O18'
_cell_volume   1218.71573513
_cell_formula_units_Z   2
loop_
 _symmetry_equiv_pos_site_id
 _symmetry_equiv_pos_as_xyz
  1  'x, y, z'
loop_
 _atom_site_type_symbol
 _atom_site_label
 _atom_site_symmetry_multiplicity
 _atom_site_fract_x
 _atom_site_fract_y
 _atom_site_fract_z
 _atom_site_occupancy
  Al  Al0  1  0.50792882  0.48623004  0.51581576  1.0
  Al  Al1  1  0.00645285  0.48875930  0.51423200  1.0
  H  H2  1  0.26988825  0.37299145  0.59671536  1.0
  H  H3  1  0.72124951  0.62259065  0.44371631  1.0
  H  H4  1  0.71366708  0.43248059  0.28445192  1.0
  H  H5  1  0.78478571  0.43820195  0.14169390  1.0
  H  H6  1  0.10485945  0.58525414  0.13677723  1.0
  H  H7  1  0.90221087  0.49464144  0.88701889  1.0
  H  H8  1  0.30511063  0.51621358  0.74884593  1.0
  H  H9  1  0.23583406  0.52670393  0.88994533  1.0
  H  H10  1  0.99641200  0.56476859  0.33890912  1.0
  H  H11  1  0.00360070  0.48176028  0.68523641  1.0
  H  H12  1  0.77855415  0.77550602  0.54379275  1.0
  H  H13  1  0.57314453  0.20348181  0.53382164  1.0
  H  H14  1  0.43292213  0.69924830  0.42162793  1.0
  H  H15  1  0.72072957  0.79204052  0.29141792  1.0
  H  H16  1  0.46682533  0.23412172  0.27724855  1.0
  H  H17  1  0.13726507  0.30531269  0.40178870  1.0
  C  C18  1  0.88354564  0.26022318  0.49379828  1.0
  C  C19  1  0.67659150  0.49032463  0.65418119  1.0
  C  C20  1  0.13640977  0.72235708  0.50355754  1.0
  C  C21  1  0.33705895  0.49510530  0.37512996  1.0
  C  C22  1  0.37180678  0.50222491  0.29126408  1.0
  C  C23  1  0.58229391  0.46511711  0.25131103  1.0
  C  C24  1  0.62226873  0.46888529  0.17211841  1.0
  C  C25  1  0.44933747  0.51209505  0.12980963  1.0
  C  C26  1  0.23910636  0.55116460  0.16852304  1.0
  C  C27  1  0.19847496  0.54598869  0.24868996  1.0
  C  C28  1  0.48890717  0.51408653  0.04874421  1.0
  C  C29  1  0.52595420  0.51336055  0.97885775  1.0
  C  C30  1  0.56486672  0.51053862  0.89806584  1.0
  C  C31  1  0.77080430  0.49942391  0.85713054  1.0
  C  C32  1  0.80998808  0.49388530  0.77745164  1.0
  C  C33  1  0.64094591  0.49905728  0.73728676  1.0
  C  C34  1  0.43469980  0.51201258  0.77930991  1.0
  C  C35  1  0.39549447  0.51767526  0.85795155  1.0
  C  C36  1  0.93949253  0.12967586  0.47180603  1.0
  C  C37  1  0.13986792  0.06625370  0.42594325  1.0
  C  C38  1  0.79250035  0.06003294  0.50284162  1.0
  C  C39  1  0.25649403  0.13468995  0.37116979  1.0
  C  C40  1  0.44476889  0.07507141  0.32431810  1.0
  C  C41  1  0.07239894  0.85787182  0.47797968  1.0
  C  C42  1  0.85903733  0.92383824  0.50563021  1.0
  C  C43  1  0.21169579  0.92819342  0.43021870  1.0
  C  C44  1  0.40178003  0.87153674  0.38078263  1.0
  C  C45  1  0.51936695  0.94231144  0.32969949  1.0
  O  O46  1  0.68583301  0.31491245  0.52065113  1.0
  O  O47  1  0.87230516  0.47077207  0.61824441  1.0
  O  O48  1  0.99127986  0.66365247  0.52860284  1.0
  O  O49  1  0.49535065  0.46876315  0.41104661  1.0
  O  O50  1  0.33561190  0.66149186  0.50321449  1.0
  O  O51  1  0.14044950  0.51773080  0.41053050  1.0
  O  O52  1  0.02798605  0.31780401  0.49136674  1.0
  O  O53  1  0.51911148  0.50061188  0.62007311  1.0
  O  O54  1  0.26884994  0.42600255  0.54871003  1.0
  O  O55  1  0.74370902  0.54917907  0.48124631  1.0
  O  O56  1  0.99218943  0.58372578  0.28274500  1.0
  O  O57  1  0.01076911  0.48393647  0.74070387  1.0
  O  O58  1  0.70917464  0.86957558  0.54270528  1.0
  O  O59  1  0.59294844  0.10949422  0.53776134  1.0
  O  O60  1  0.48485399  0.74298904  0.37249917  1.0
  O  O61  1  0.69919593  0.88431337  0.28274087  1.0
  O  O62  1  0.55008477  0.14487049  0.27194352  1.0
  O  O63  1  0.19025100  0.26405246  0.35288039  1.0
