# generated using pymatgen
data_CoH32C49(N3O2)2
_symmetry_space_group_name_H-M   'P 1'
_cell_length_a   17.48075913
_cell_length_b   18.92905480
_cell_length_c   18.92906880
_cell_angle_alpha   60.19797185
_cell_angle_beta   78.81247315
_cell_angle_gamma   78.81224849
_symmetry_Int_Tables_number   1
_chemical_formula_structural   CoH32C49(N3O2)2
_chemical_formula_sum   'Co4 H128 C196 N24 O16'
_cell_volume   5296.71639606
_cell_formula_units_Z   4
loop_
 _symmetry_equiv_pos_site_id
 _symmetry_equiv_pos_as_xyz
  1  'x, y, z'
loop_
 _atom_site_type_symbol
 _atom_site_label
 _atom_site_symmetry_multiplicity
 _atom_site_fract_x
 _atom_site_fract_y
 _atom_site_fract_z
 _atom_site_occupancy
  Co  Co0  1  0.95779192  0.45323665  0.74437844  1.0
  Co  Co1  1  0.54221015  0.25562450  0.54675698  1.0
  Co  Co2  1  0.04221003  0.54676055  0.25562453  1.0
  Co  Co3  1  0.45779028  0.74437577  0.45323946  1.0
  H  H4  1  0.15835134  0.47040685  0.74471052  1.0
  H  H5  1  0.26825917  0.50684958  0.78009192  1.0
  H  H6  1  0.40710555  0.46242589  0.74142587  1.0
  H  H7  1  0.06451672  0.33232909  0.61815167  1.0
  H  H8  1  0.89593200  0.59287874  0.82862559  1.0
  H  H9  1  0.76625671  0.64304878  0.87481241  1.0
  H  H10  1  0.73697871  0.62447900  0.01826106  1.0
  H  H11  1  0.16185175  0.44490466  0.88705780  1.0
  H  H12  1  0.77942746  0.53477504  0.76430168  1.0
  H  H13  1  0.73979935  0.70362147  0.69136613  1.0
  H  H14  1  0.98584097  0.64820983  0.64624225  1.0
  H  H15  1  0.76959578  0.81949367  0.67819913  1.0
  H  H16  1  0.77436576  0.96862165  0.59111807  1.0
  H  H17  1  0.97691081  0.92406098  0.44251246  1.0
  H  H18  1  0.97124599  0.77498794  0.52726215  1.0
  H  H19  1  0.86263860  0.06876522  0.56164230  1.0
  H  H20  1  0.88995584  0.27987144  0.32225706  1.0
  H  H21  1  0.89025650  0.04174040  0.34632154  1.0
  H  H22  1  0.82032756  0.10687293  0.24727651  1.0
  H  H23  1  0.80489941  0.16976202  0.10127082  1.0
  H  H24  1  0.90851601  0.38016086  0.05518140  1.0
  H  H25  1  0.92850760  0.31658466  0.19891253  1.0
  H  H26  1  0.74492725  0.27272808  0.97977886  1.0
  H  H27  1  0.78516571  0.36474100  0.81162153  1.0
  H  H28  1  0.95288434  0.38111215  0.93319858  1.0
  H  H29  1  0.85364801  0.34933081  0.37460395  1.0
  H  H30  1  0.85752217  0.43533469  0.43335403  1.0
  H  H31  1  0.89422549  0.22170100  0.66759460  1.0
  H  H32  1  0.89618977  0.13413329  0.60636517  1.0
  H  H33  1  0.82201655  0.50201638  0.49514628  1.0
  H  H34  1  0.85203530  0.56165234  0.59183874  1.0
  H  H35  1  0.93547421  0.31037378  0.69704826  1.0
  H  H36  1  0.34165313  0.25529205  0.52959284  1.0
  H  H37  1  0.23174554  0.21990781  0.49315113  1.0
  H  H38  1  0.09289793  0.25857093  0.53757575  1.0
  H  H39  1  0.43548605  0.38185237  0.66766634  1.0
  H  H40  1  0.60406818  0.17137416  0.40712057  1.0
  H  H41  1  0.73374295  0.12518644  0.35695381  1.0
  H  H42  1  0.76302167  0.98173991  0.37552090  1.0
  H  H43  1  0.33815101  0.11294323  0.55509730  1.0
  H  H44  1  0.72057352  0.23569986  0.46522486  1.0
  H  H45  1  0.76020114  0.30863518  0.29637839  1.0
  H  H46  1  0.51415955  0.35375660  0.35178873  1.0
  H  H47  1  0.73040403  0.32180014  0.18050610  1.0
  H  H48  1  0.72563526  0.40888050  0.03137850  1.0
  H  H49  1  0.52309016  0.55748907  0.07593778  1.0
  H  H50  1  0.52875466  0.47273765  0.22501120  1.0
  H  H51  1  0.63736011  0.43835894  0.93123413  1.0
  H  H52  1  0.61004156  0.67774513  0.72012791  1.0
  H  H53  1  0.60974329  0.65367963  0.95825880  1.0
  H  H54  1  0.67967019  0.75272444  0.89312771  1.0
  H  H55  1  0.69509910  0.89872947  0.83023924  1.0
  H  H56  1  0.59148550  0.94482184  0.61983686  1.0
  H  H57  1  0.57149189  0.80109070  0.68341389  1.0
  H  H58  1  0.75507179  0.02022000  0.72727601  1.0
  H  H59  1  0.71483520  0.18837932  0.63526212  1.0
  H  H60  1  0.54711804  0.06680361  0.61888547  1.0
  H  H61  1  0.64635132  0.62539565  0.65066893  1.0
  H  H62  1  0.64247983  0.56664462  0.56466501  1.0
  H  H63  1  0.60577249  0.33240723  0.77829863  1.0
  H  H64  1  0.60380564  0.39363637  0.86586653  1.0
  H  H65  1  0.67798395  0.50485339  0.49798437  1.0
  H  H66  1  0.64796684  0.40816156  0.43834698  1.0
  H  H67  1  0.56452736  0.30295084  0.68962415  1.0
  H  H68  1  0.84165034  0.52959280  0.25528917  1.0
  H  H69  1  0.73174373  0.49314947  0.21990679  1.0
  H  H70  1  0.59289618  0.53757315  0.25857252  1.0
  H  H71  1  0.93548492  0.66766566  0.38185204  1.0
  H  H72  1  0.10406953  0.40712215  0.17137246  1.0
  H  H73  1  0.23374328  0.35695026  0.12518683  1.0
  H  H74  1  0.26302063  0.37552065  0.98173959  1.0
  H  H75  1  0.83814914  0.55509684  0.11294112  1.0
  H  H76  1  0.22057489  0.46522399  0.23570401  1.0
  H  H77  1  0.26020072  0.29637696  0.30863658  1.0
  H  H78  1  0.01415932  0.35179168  0.35375308  1.0
  H  H79  1  0.23040135  0.18050477  0.32179882  1.0
  H  H80  1  0.22563248  0.03137740  0.40887991  1.0
  H  H81  1  0.02308866  0.07593745  0.55748823  1.0
  H  H82  1  0.02875290  0.22501049  0.47273707  1.0
  H  H83  1  0.13735862  0.93123259  0.43835911  1.0
  H  H84  1  0.11004008  0.72012760  0.67774557  1.0
  H  H85  1  0.10974233  0.95825864  0.65367950  1.0
  H  H86  1  0.17966881  0.89312734  0.75272543  1.0
  H  H87  1  0.19509806  0.83023885  0.89873062  1.0
  H  H88  1  0.09148522  0.61983757  0.94482109  1.0
  H  H89  1  0.07149188  0.68341377  0.80108975  1.0
  H  H90  1  0.25507060  0.72727463  0.02022212  1.0
  H  H91  1  0.21483337  0.63526110  0.18838006  1.0
  H  H92  1  0.04711559  0.61888750  0.06680301  1.0
  H  H93  1  0.14634797  0.65066762  0.62539844  1.0
  H  H94  1  0.14247368  0.56466496  0.56664672  1.0
  H  H95  1  0.10577327  0.77829865  0.33240721  1.0
  H  H96  1  0.10380732  0.86586575  0.39363777  1.0
  H  H97  1  0.17798221  0.49798327  0.50485447  1.0
  H  H98  1  0.14796624  0.43834854  0.40816037  1.0
  H  H99  1  0.06452520  0.68962526  0.30295162  1.0
  H  H100  1  0.65834885  0.74471006  0.47040452  1.0
  H  H101  1  0.76825665  0.78009246  0.50684816  1.0
  H  H102  1  0.90710415  0.74142504  0.46242727  1.0
  H  H103  1  0.56451517  0.61814606  0.33233245  1.0
  H  H104  1  0.39593206  0.82862794  0.59287869  1.0
  H  H105  1  0.26625854  0.87481504  0.64304976  1.0
  H  H106  1  0.23698149  0.01826219  0.62447995  1.0
  H  H107  1  0.66185091  0.88705949  0.44490030  1.0
  H  H108  1  0.27942647  0.76429918  0.53477438  1.0
  H  H109  1  0.23979957  0.69136264  0.70362133  1.0
  H  H110  1  0.48584089  0.64624367  0.64820982  1.0
  H  H111  1  0.26959596  0.67819891  0.81949209  1.0
  H  H112  1  0.27436758  0.59111916  0.96862045  1.0
  H  H113  1  0.47691255  0.44251181  0.92406217  1.0
  H  H114  1  0.47124663  0.52726017  0.77498894  1.0
  H  H115  1  0.36264085  0.56164194  0.06876509  1.0
  H  H116  1  0.38995823  0.32225575  0.27986993  1.0
  H  H117  1  0.39025752  0.34632248  0.04173824  1.0
  H  H118  1  0.32033096  0.24727461  0.10686973  1.0
  H  H119  1  0.30490205  0.10126958  0.16975926  1.0
  H  H120  1  0.40851473  0.05518027  0.38016135  1.0
  H  H121  1  0.42850770  0.19891202  0.31658360  1.0
  H  H122  1  0.24492924  0.97978026  0.27272455  1.0
  H  H123  1  0.28516693  0.81162156  0.36473741  1.0
  H  H124  1  0.45288350  0.93319727  0.38111310  1.0
  H  H125  1  0.35364984  0.37460339  0.34933221  1.0
  H  H126  1  0.35752133  0.43335442  0.43533561  1.0
  H  H127  1  0.39422490  0.66759426  0.22170145  1.0
  H  H128  1  0.39619066  0.60636450  0.13413459  1.0
  H  H129  1  0.32201461  0.49514809  0.50201762  1.0
  H  H130  1  0.35203268  0.59184177  0.56165233  1.0
  H  H131  1  0.43547322  0.69704820  0.31037605  1.0
  C  C132  1  0.08797565  0.40443205  0.69268116  1.0
  C  C133  1  0.17108403  0.37998216  0.66684994  1.0
  C  C134  1  0.23300041  0.40290725  0.68647580  1.0
  C  C135  1  0.21880789  0.45023258  0.72859696  1.0
  C  C136  1  0.28012817  0.47092378  0.74774019  1.0
  C  C137  1  0.35901173  0.44569239  0.72584359  1.0
  C  C138  1  0.12497883  0.31488129  0.59949460  1.0
  C  C139  1  0.18672072  0.33593366  0.62256954  1.0
  C  C140  1  0.03390146  0.52451831  0.83057728  1.0
  C  C141  1  0.01698648  0.51200292  0.91785138  1.0
  C  C142  1  0.94316813  0.54252352  0.94408886  1.0
  C  C143  1  0.88337145  0.58442962  0.89074312  1.0
  C  C144  1  0.81108477  0.61269175  0.91668648  1.0
  C  C145  1  0.79453854  0.60189798  0.99779079  1.0
  C  C146  1  0.14941980  0.43744489  0.94893796  1.0
  C  C147  1  0.07397249  0.46922245  0.97297114  1.0
  C  C148  1  0.81616869  0.58376741  0.72832330  1.0
  C  C149  1  0.79577744  0.66666667  0.69375692  1.0
  C  C150  1  0.92431335  0.63985633  0.66636756  1.0
  C  C151  1  0.86996710  0.78763299  0.60783841  1.0
  C  C152  1  0.81505398  0.84214997  0.62651757  1.0
  C  C153  1  0.81845793  0.92603816  0.57808024  1.0
  C  C154  1  0.87621413  0.95696844  0.51094218  1.0
  C  C155  1  0.93094438  0.90122181  0.49371074  1.0
  C  C156  1  0.92822603  0.81726658  0.54164582  1.0
  C  C157  1  0.87897662  0.04605746  0.45925695  1.0
  C  C158  1  0.87176116  0.09661839  0.49504142  1.0
  C  C159  1  0.87749214  0.18094323  0.44686971  1.0
  C  C160  1  0.88537284  0.21456247  0.36115611  1.0
  C  C161  1  0.88572555  0.16621662  0.32386083  1.0
  C  C162  1  0.88671881  0.08120108  0.37380622  1.0
  C  C163  1  0.87850902  0.20447077  0.23518173  1.0
  C  C164  1  0.84216296  0.16581740  0.20539437  1.0
  C  C165  1  0.83177611  0.20178929  0.12290914  1.0
  C  C166  1  0.85691488  0.27855703  0.06823761  1.0
  C  C167  1  0.89125950  0.31905961  0.09683789  1.0
  C  C168  1  0.90240667  0.28223220  0.17908396  1.0
  C  C169  1  0.79364266  0.30813550  0.94510192  1.0
  C  C170  1  0.81422664  0.35412929  0.86228095  1.0
  C  C171  1  0.90124249  0.36533559  0.92293537  1.0
  C  C172  1  0.87452311  0.23339829  0.48514558  1.0
  C  C173  1  0.86214238  0.31930678  0.43918415  1.0
  C  C174  1  0.86214376  0.36941533  0.47326940  1.0
  C  C175  1  0.87399266  0.33523941  0.55545077  1.0
  C  C176  1  0.88526125  0.24987650  0.60326035  1.0
  C  C177  1  0.88567903  0.20028619  0.56806559  1.0
  C  C178  1  0.84843065  0.47112145  0.55171998  1.0
  C  C179  1  0.86408529  0.49982807  0.60030755  1.0
  C  C180  1  0.90697669  0.36996126  0.65706158  1.0
  C  C181  1  0.41202653  0.30732136  0.59556590  1.0
  C  C182  1  0.32891856  0.33315064  0.62001609  1.0
  C  C183  1  0.26700354  0.31352555  0.59709308  1.0
  C  C184  1  0.28119613  0.27140423  0.54976619  1.0
  C  C185  1  0.21987686  0.25225872  0.52907647  1.0
  C  C186  1  0.14099309  0.27415392  0.55431068  1.0
  C  C187  1  0.37502314  0.40050837  0.68511566  1.0
  C  C188  1  0.31328255  0.37743232  0.66406565  1.0
  C  C189  1  0.46609980  0.16942447  0.47548079  1.0
  C  C190  1  0.48301432  0.08214978  0.48799707  1.0
  C  C191  1  0.55683217  0.05591064  0.45747613  1.0
  C  C192  1  0.61662871  0.10925574  0.41557328  1.0
  C  C193  1  0.68891527  0.08331367  0.38730999  1.0
  C  C194  1  0.70546167  0.00220960  0.39810184  1.0
  C  C195  1  0.35058110  0.05106329  0.56255687  1.0
  C  C196  1  0.42602996  0.02702949  0.53077899  1.0
  C  C197  1  0.68383161  0.27167889  0.41623394  1.0
  C  C198  1  0.70422248  0.30624506  0.33327749  1.0
  C  C199  1  0.57568710  0.33363309  0.36014210  1.0
  C  C200  1  0.63003593  0.39216051  0.21236576  1.0
  C  C201  1  0.68494692  0.37348201  0.15784988  1.0
  C  C202  1  0.68154191  0.42192053  0.07396153  1.0
  C  C203  1  0.62378677  0.48905915  0.04302903  1.0
  C  C204  1  0.56905647  0.50628829  0.09877823  1.0
  C  C205  1  0.57177528  0.45835370  0.18273370  1.0
  C  C206  1  0.62102424  0.54074572  0.95394194  1.0
  C  C207  1  0.62823809  0.50496051  0.90338145  1.0
  C  C208  1  0.62250396  0.55313173  0.81905624  1.0
  C  C209  1  0.61462390  0.63884603  0.78543709  1.0
  C  C210  1  0.61427260  0.67614078  0.83378396  1.0
  C  C211  1  0.61328135  0.62619538  0.91879874  1.0
  C  C212  1  0.62148943  0.76481971  0.79553085  1.0
  C  C213  1  0.65783623  0.79460643  0.83418372  1.0
  C  C214  1  0.66822358  0.87709062  0.79821168  1.0
  C  C215  1  0.64308685  0.93176415  0.72144273  1.0
  C  C216  1  0.60874203  0.90316498  0.68093875  1.0
  C  C217  1  0.59759375  0.82091780  0.71776827  1.0
  C  C218  1  0.70635801  0.05489783  0.69186658  1.0
  C  C219  1  0.68577429  0.13771967  0.64587198  1.0
  C  C220  1  0.59875841  0.07706628  0.63466408  1.0
  C  C221  1  0.62547238  0.51485596  0.76660086  1.0
  C  C222  1  0.63785543  0.56081767  0.68069259  1.0
  C  C223  1  0.63785511  0.52672985  0.63058515  1.0
  C  C224  1  0.62600645  0.44454886  0.66476084  1.0
  C  C225  1  0.61473682  0.39674072  0.75012315  1.0
  C  C226  1  0.61431704  0.43193575  0.79971481  1.0
  C  C227  1  0.65156963  0.44827892  0.52887969  1.0
  C  C228  1  0.63591527  0.39969197  0.50017041  1.0
  C  C229  1  0.59302457  0.34293683  0.63003783  1.0
  C  C230  1  0.91202534  0.59556331  0.30732236  1.0
  C  C231  1  0.82891668  0.62001566  0.33315030  1.0
  C  C232  1  0.76700082  0.59709118  0.31352510  1.0
  C  C233  1  0.78119443  0.54976646  0.27140238  1.0
  C  C234  1  0.71987474  0.52907526  0.25225799  1.0
  C  C235  1  0.64099059  0.55430666  0.27415522  1.0
  C  C236  1  0.87502239  0.68511714  0.40050577  1.0
  C  C237  1  0.81328089  0.66406661  0.37742932  1.0
  C  C238  1  0.96609832  0.47548258  0.16942108  1.0
  C  C239  1  0.98301506  0.48799796  0.08214773  1.0
  C  C240  1  0.05683334  0.45747798  0.05590890  1.0
  C  C241  1  0.11662872  0.41557310  0.10925533  1.0
  C  C242  1  0.18891444  0.38730913  0.08331358  1.0
  C  C243  1  0.20546241  0.39810290  0.00220737  1.0
  C  C244  1  0.85058064  0.56255538  0.05106059  1.0
  C  C245  1  0.92602840  0.53077905  0.02702778  1.0
  C  C246  1  0.18383280  0.41623407  0.27168133  1.0
  C  C247  1  0.20422243  0.33327625  0.30624649  1.0
  C  C248  1  0.07568644  0.36014456  0.33363028  1.0
  C  C249  1  0.13003282  0.21236667  0.39215949  1.0
  C  C250  1  0.18494367  0.15784908  0.37348104  1.0
  C  C251  1  0.18154031  0.07396088  0.42191932  1.0
  C  C252  1  0.12378555  0.04302815  0.48905780  1.0
  C  C253  1  0.06905510  0.09877662  0.50628943  1.0
  C  C254  1  0.07177265  0.18273370  0.45835146  1.0
  C  C255  1  0.12102338  0.95394158  0.54074493  1.0
  C  C256  1  0.12823657  0.90338004  0.50496065  1.0
  C  C257  1  0.12250261  0.81905580  0.55313313  1.0
  C  C258  1  0.11462256  0.78543595  0.63884745  1.0
  C  C259  1  0.11427322  0.83378303  0.67614098  1.0
  C  C260  1  0.11328112  0.91879857  0.62619484  1.0
  C  C261  1  0.12148813  0.79552765  0.76482150  1.0
  C  C262  1  0.15783398  0.83418286  0.79460693  1.0
  C  C263  1  0.16822193  0.79821158  0.87709271  1.0
  C  C264  1  0.14308382  0.72144323  0.93176443  1.0
  C  C265  1  0.10873991  0.68093942  0.90316410  1.0
  C  C266  1  0.09759172  0.71776561  0.82091935  1.0
  C  C267  1  0.20635525  0.69186660  0.05489936  1.0
  C  C268  1  0.18577200  0.64587158  0.13772080  1.0
  C  C269  1  0.09875549  0.63466590  0.07706567  1.0
  C  C270  1  0.12546989  0.76660074  0.51485757  1.0
  C  C271  1  0.13785354  0.68069225  0.56081954  1.0
  C  C272  1  0.13785093  0.63058432  0.52673367  1.0
  C  C273  1  0.12600312  0.66476085  0.44455127  1.0
  C  C274  1  0.11473635  0.75012315  0.39674114  1.0
  C  C275  1  0.11431513  0.79971284  0.43193683  1.0
  C  C276  1  0.15156811  0.52887821  0.44828077  1.0
  C  C277  1  0.13591535  0.50017036  0.39969346  1.0
  C  C278  1  0.09302316  0.63003901  0.34293655  1.0
  C  C279  1  0.58797261  0.69268014  0.40443386  1.0
  C  C280  1  0.67108325  0.66684779  0.37998312  1.0
  C  C281  1  0.73299676  0.68647595  0.40290595  1.0
  C  C282  1  0.71880527  0.72859788  0.45023127  1.0
  C  C283  1  0.78012474  0.74774155  0.47092187  1.0
  C  C284  1  0.85900931  0.72584451  0.44568949  1.0
  C  C285  1  0.62497692  0.59949006  0.31488440  1.0
  C  C286  1  0.68671679  0.62256734  0.33593500  1.0
  C  C287  1  0.53390160  0.83057763  0.52451826  1.0
  C  C288  1  0.51698527  0.91785294  0.51200096  1.0
  C  C289  1  0.44316865  0.94409147  0.54252197  1.0
  C  C290  1  0.38337218  0.89074575  0.58442829  1.0
  C  C291  1  0.31108795  0.91668783  0.61269010  1.0
  C  C292  1  0.29454012  0.99779434  0.60189835  1.0
  C  C293  1  0.64941901  0.94894004  0.43744234  1.0
  C  C294  1  0.57397079  0.97297323  0.46921988  1.0
  C  C295  1  0.31616839  0.72832015  0.58376583  1.0
  C  C296  1  0.29577655  0.69375214  0.66666667  1.0
  C  C297  1  0.42431282  0.66636656  0.63985632  1.0
  C  C298  1  0.36996639  0.60783854  0.78763200  1.0
  C  C299  1  0.31505534  0.62651765  0.84214864  1.0
  C  C300  1  0.31846028  0.57807974  0.92603776  1.0
  C  C301  1  0.37621645  0.51094235  0.95696894  1.0
  C  C302  1  0.43094593  0.49371014  0.90122194  1.0
  C  C303  1  0.42822704  0.54164535  0.81726617  1.0
  C  C304  1  0.37897782  0.45925577  0.04605730  1.0
  C  C305  1  0.37176280  0.49504098  0.09661747  1.0
  C  C306  1  0.37749531  0.44686853  0.18094253  1.0
  C  C307  1  0.38537530  0.36115485  0.21456086  1.0
  C  C308  1  0.38572718  0.32386010  0.16621388  1.0
  C  C309  1  0.38672005  0.37380673  0.08119820  1.0
  C  C310  1  0.37851101  0.23518056  0.20446876  1.0
  C  C311  1  0.34216602  0.20539323  0.16581533  1.0
  C  C312  1  0.33177699  0.12290843  0.20178745  1.0
  C  C313  1  0.35691528  0.06823673  0.27855627  1.0
  C  C314  1  0.39125821  0.09683713  0.31905999  1.0
  C  C315  1  0.40240669  0.17908247  0.28223081  1.0
  C  C316  1  0.29364483  0.94510183  0.30813237  1.0
  C  C317  1  0.31422789  0.86228060  0.35412679  1.0
  C  C318  1  0.40124255  0.92293460  0.36533566  1.0
  C  C319  1  0.37452631  0.48514430  0.23339959  1.0
  C  C320  1  0.36214450  0.43918198  0.31930847  1.0
  C  C321  1  0.36214379  0.47326858  0.36941671  1.0
  C  C322  1  0.37399238  0.55545018  0.33524073  1.0
  C  C323  1  0.38526129  0.60325955  0.24987794  1.0
  C  C324  1  0.38568159  0.56806513  0.20028694  1.0
  C  C325  1  0.34842725  0.55172195  0.47112291  1.0
  C  C326  1  0.36408322  0.60031014  0.49982970  1.0
  C  C327  1  0.40697478  0.65706282  0.36996281  1.0
  N  N328  1  0.89619117  0.56780041  0.71097726  1.0
  N  N329  1  0.86480039  0.70208146  0.65442940  1.0
  N  N330  1  0.84962763  0.31579550  0.98322283  1.0
  N  N331  1  0.88145144  0.38932076  0.84940631  1.0
  N  N332  1  0.87552214  0.38812121  0.58808658  1.0
  N  N333  1  0.90080386  0.43643696  0.66570306  1.0
  N  N334  1  0.60381018  0.28902467  0.43219807  1.0
  N  N335  1  0.63519970  0.34557186  0.29791786  1.0
  N  N336  1  0.65037487  0.01677826  0.68420341  1.0
  N  N337  1  0.61855034  0.15059530  0.61067698  1.0
  N  N338  1  0.62447881  0.41191310  0.61187651  1.0
  N  N339  1  0.59919774  0.33429749  0.56356213  1.0
  N  N340  1  0.10381109  0.43219924  0.28902444  1.0
  N  N341  1  0.13520019  0.29791758  0.34556974  1.0
  N  N342  1  0.15037172  0.68420415  0.01677939  1.0
  N  N343  1  0.11854784  0.61067950  0.15059404  1.0
  N  N344  1  0.12447662  0.61187844  0.41191364  1.0
  N  N345  1  0.09919768  0.56356392  0.33429657  1.0
  N  N346  1  0.39619012  0.71097683  0.56779937  1.0
  N  N347  1  0.36479964  0.65442780  0.70207961  1.0
  N  N348  1  0.34962848  0.98322202  0.31579514  1.0
  N  N349  1  0.38145171  0.84940620  0.38931961  1.0
  N  N350  1  0.37551988  0.58808717  0.38812289  1.0
  N  N351  1  0.40080140  0.66570400  0.43643923  1.0
  O  O352  1  0.06118945  0.48036927  0.65764844  1.0
  O  O353  1  0.04602133  0.35105856  0.74959952  1.0
  O  O354  1  0.01840238  0.46551196  0.82250994  1.0
  O  O355  1  0.06060321  0.58901272  0.77442258  1.0
  O  O356  1  0.43881199  0.34235357  0.51962862  1.0
  O  O357  1  0.45398168  0.25040040  0.64893911  1.0
  O  O358  1  0.48160157  0.17749326  0.53448457  1.0
  O  O359  1  0.43939584  0.22557856  0.41098753  1.0
  O  O360  1  0.93881037  0.51962609  0.34235477  1.0
  O  O361  1  0.95398076  0.64893742  0.25040351  1.0
  O  O362  1  0.98159820  0.53448708  0.17749078  1.0
  O  O363  1  0.93939579  0.41099001  0.22557344  1.0
  O  O364  1  0.56118839  0.65764731  0.48037123  1.0
  O  O365  1  0.54601875  0.74959987  0.35105997  1.0
  O  O366  1  0.51839976  0.82250946  0.46551313  1.0
  O  O367  1  0.56060580  0.77442662  0.58900838  1.0
