# generated using pymatgen
data_Al6H20(C9O4)7
_symmetry_space_group_name_H-M   'P 1'
_cell_length_a   12.47856496
_cell_length_b   12.57594255
_cell_length_c   27.02293422
_cell_angle_alpha   82.05354235
_cell_angle_beta   82.21751145
_cell_angle_gamma   60.27295556
_symmetry_Int_Tables_number   1
_chemical_formula_structural   Al6H20(C9O4)7
_chemical_formula_sum   'Al6 H20 C63 O28'
_cell_volume   3636.21560997
_cell_formula_units_Z   1
loop_
 _symmetry_equiv_pos_site_id
 _symmetry_equiv_pos_as_xyz
  1  'x, y, z'
loop_
 _atom_site_type_symbol
 _atom_site_label
 _atom_site_symmetry_multiplicity
 _atom_site_fract_x
 _atom_site_fract_y
 _atom_site_fract_z
 _atom_site_occupancy
  Al  Al0  1  0.40156126  0.41107324  0.51170291  1.0
  Al  Al1  1  0.40984001  0.66432036  0.49819525  1.0
  Al  Al2  1  0.65249562  0.42838359  0.49703175  1.0
  Al  Al3  1  0.91856340  0.92105429  0.97928254  1.0
  Al  Al4  1  0.66257987  0.91365741  0.99630218  1.0
  Al  Al5  1  0.90031958  0.67283111  0.99787044  1.0
  H  H6  1  0.58896925  0.86504455  0.68386345  1.0
  H  H7  1  0.08970271  0.86819089  0.19444749  1.0
  H  H8  1  0.10849687  0.51415999  0.22749868  1.0
  H  H9  1  0.14399941  0.51379822  0.31644451  1.0
  H  H10  1  0.60304682  0.87936490  0.77339595  1.0
  H  H11  1  0.72758872  0.49099398  0.80377639  1.0
  H  H12  1  0.66775626  0.01241344  0.31688159  1.0
  H  H13  1  0.67244080  0.97235089  0.22876921  1.0
  H  H14  1  0.68280412  0.30734559  0.17638266  1.0
  H  H15  1  0.67804349  0.34743087  0.26453433  1.0
  H  H16  1  0.71342899  0.47670318  0.71425304  1.0
  H  H17  1  0.08487551  0.05192744  0.36306039  1.0
  H  H18  1  0.02915837  0.14582408  0.30687567  1.0
  H  H19  1  0.92326321  0.14841067  0.35843909  1.0
  H  H20  1  0.92695645  0.02201845  0.29317341  1.0
  H  H21  1  0.98355347  0.92963549  0.34898991  1.0
  H  H22  1  0.20165366  0.86514791  0.31203545  1.0
  H  H23  1  0.14240566  0.95269490  0.25523464  1.0
  H  H24  1  0.30849997  0.29864233  0.55392467  1.0
  H  H25  1  0.00793668  0.03744501  0.99449214  1.0
  C  C26  1  0.28138627  0.61445532  0.58232756  1.0
  C  C27  1  0.69734641  0.57239591  0.77738250  1.0
  C  C28  1  0.68954556  0.56444984  0.72743238  1.0
  C  C29  1  0.65026198  0.66996800  0.69313158  1.0
  C  C30  1  0.66604800  0.68615132  0.79454631  1.0
  C  C31  1  0.67559723  0.69504134  0.84526444  1.0
  C  C32  1  0.64010857  0.66094528  0.64251028  1.0
  C  C33  1  0.68503157  0.70451081  0.88859855  1.0
  C  C34  1  0.67411307  0.10085665  0.86377403  1.0
  C  C35  1  0.66385411  0.12864145  0.81865870  1.0
  C  C36  1  0.65672121  0.15603182  0.76911406  1.0
  C  C37  1  0.60512881  0.62448226  0.55366437  1.0
  C  C38  1  0.65450054  0.17839421  0.72322144  1.0
  C  C39  1  0.65041494  0.20540551  0.67356628  1.0
  C  C40  1  0.64556383  0.23223733  0.62820634  1.0
  C  C41  1  0.10526756  0.66835459  0.86890993  1.0
  C  C42  1  0.13376103  0.65934118  0.82380912  1.0
  C  C43  1  0.16154490  0.65242341  0.77431067  1.0
  C  C44  1  0.18336952  0.64939407  0.72846337  1.0
  C  C45  1  0.20874736  0.64430274  0.67879450  1.0
  C  C46  1  0.23384314  0.63799490  0.63343005  1.0
  C  C47  1  0.67620729  0.69254931  0.12558329  1.0
  C  C48  1  0.61920680  0.28424244  0.57763143  1.0
  C  C49  1  0.66387515  0.68159540  0.17155839  1.0
  C  C50  1  0.65226045  0.67101324  0.22183315  1.0
  C  C51  1  0.64352597  0.66273781  0.26812248  1.0
  C  C52  1  0.63281367  0.65235778  0.31840726  1.0
  C  C53  1  0.62205628  0.64181985  0.36440268  1.0
  C  C54  1  0.65219551  0.23602006  0.38928340  1.0
  C  C55  1  0.67082189  0.07661243  0.28596789  1.0
  C  C56  1  0.67339516  0.05436838  0.23686568  1.0
  C  C57  1  0.67952272  0.24327649  0.20731223  1.0
  C  C58  1  0.67691681  0.26552783  0.25642526  1.0
  C  C59  1  0.26058496  0.63442528  0.44188360  1.0
  C  C60  1  0.67163749  0.18298245  0.29649227  1.0
  C  C61  1  0.67678582  0.13787518  0.19680233  1.0
  C  C62  1  0.67820082  0.11565651  0.14676116  1.0
  C  C63  1  0.66362124  0.20922813  0.34651739  1.0
  C  C64  1  0.67992851  0.09564732  0.10371940  1.0
  C  C65  1  0.19896651  0.66957891  0.39665083  1.0
  C  C66  1  0.12117860  0.79273720  0.27093334  1.0
  C  C67  1  0.10136779  0.79123531  0.22162369  1.0
  C  C68  1  0.11177195  0.59104710  0.24005867  1.0
  C  C69  1  0.13109446  0.59104603  0.28931505  1.0
  C  C70  1  0.59847782  0.61790788  0.41724999  1.0
  C  C71  1  0.13731638  0.69018854  0.30511264  1.0
  C  C72  1  0.09795134  0.69106910  0.20540144  1.0
  C  C73  1  0.08138072  0.69183175  0.15461634  1.0
  C  C74  1  0.16688187  0.68224221  0.35460042  1.0
  C  C75  1  0.06661929  0.69555652  0.11059968  1.0
  C  C76  1  0.70672442  0.04814389  0.91380275  1.0
  C  C77  1  0.70718138  0.72780742  0.93553649  1.0
  C  C78  1  0.04995696  0.69910723  0.91865814  1.0
  C  C79  1  0.70034207  0.05104890  0.05527901  1.0
  C  C80  1  0.70531901  0.71708185  0.07338021  1.0
  C  C81  1  0.61821046  0.28854737  0.43670542  1.0
  C  C82  1  0.02892972  0.71880378  0.06066504  1.0
  C  C83  1  0.63005757  0.65056551  0.59936646  1.0
  C  C84  1  0.61913650  0.78367441  0.71027405  1.0
  C  C85  1  0.62687406  0.79162285  0.76023092  1.0
  C  C86  1  0.12448169  0.89964194  0.28802146  1.0
  C  C87  1  0.00360217  0.98465822  0.31761254  1.0
  C  C88  1  0.01043254  0.08862128  0.33760176  1.0
  O  O89  1  0.51917977  0.30178871  0.56326899  1.0
  O  O90  1  0.49501504  0.69501432  0.43770200  1.0
  O  O91  1  0.68053313  0.51836209  0.43837999  1.0
  O  O92  1  0.69855074  0.30726566  0.45406705  1.0
  O  O93  1  0.48946498  0.50221433  0.50254732  1.0
  O  O94  1  0.02885918  0.80100990  0.93119101  1.0
  O  O95  1  0.81671132  0.01244173  0.92255250  1.0
  O  O96  1  0.62293002  0.03799196  0.94444907  1.0
  O  O97  1  0.62907383  0.83164039  0.95248422  1.0
  O  O98  1  0.80552847  0.64691756  0.95603766  1.0
  O  O99  1  0.02169013  0.62168695  0.94532113  1.0
  O  O100  1  0.30366819  0.51307826  0.56850161  1.0
  O  O101  1  0.00779311  0.82134419  0.03785137  1.0
  O  O102  1  0.79657007  0.03742988  0.02839794  1.0
  O  O103  1  0.62020931  0.02311479  0.04418630  1.0
  O  O104  1  0.62804769  0.81808710  0.05150421  1.0
  O  O105  1  0.80995572  0.63803237  0.05419273  1.0
  O  O106  1  0.01511295  0.63548594  0.04365691  1.0
  O  O107  1  0.82569379  0.83478967  0.99168626  1.0
  O  O108  1  0.30127452  0.69724161  0.55579650  1.0
  O  O109  1  0.50299029  0.70228715  0.53471623  1.0
  O  O110  1  0.68386320  0.52170574  0.53623255  1.0
  O  O111  1  0.69774128  0.31294809  0.55223966  1.0
  O  O112  1  0.51116687  0.31616850  0.45646336  1.0
  O  O113  1  0.29286703  0.52696584  0.46170991  1.0
  O  O114  1  0.28260602  0.71387296  0.45776095  1.0
  O  O115  1  0.32222467  0.32738355  0.51987204  1.0
  O  O116  1  0.00251031  0.00015007  0.96664843  1.0
