# generated using pymatgen
data_AlH6C13NO7F
_symmetry_space_group_name_H-M   'P 1'
_cell_length_a   6.83753544
_cell_length_b   11.09717334
_cell_length_c   15.23206469
_cell_angle_alpha   83.98872634
_cell_angle_beta   78.47659983
_cell_angle_gamma   72.23460665
_symmetry_Int_Tables_number   1
_chemical_formula_structural   AlH6C13NO7F
_chemical_formula_sum   'Al2 H12 C26 N2 O14 F2'
_cell_volume   1077.28122515
_cell_formula_units_Z   2
loop_
 _symmetry_equiv_pos_site_id
 _symmetry_equiv_pos_as_xyz
  1  'x, y, z'
loop_
 _atom_site_type_symbol
 _atom_site_label
 _atom_site_symmetry_multiplicity
 _atom_site_fract_x
 _atom_site_fract_y
 _atom_site_fract_z
 _atom_site_occupancy
  Al  Al0  1  0.49404959  0.50938836  0.49433600  1.0
  Al  Al1  1  0.99158679  0.51321039  0.49590765  1.0
  H  H2  1  0.24552592  0.60352402  0.39343226  1.0
  H  H3  1  0.73187758  0.43621923  0.60185733  1.0
  H  H4  1  0.26808566  0.52043932  0.06353615  1.0
  H  H5  1  0.70866828  0.53792796  0.93079941  1.0
  H  H6  1  0.43884160  0.45241428  0.76952509  1.0
  H  H7  1  0.37006303  0.42850634  0.93552496  1.0
  H  H8  1  0.61899759  0.42811728  0.22260581  1.0
  H  H9  1  0.70440992  0.42508048  0.05622169  1.0
  H  H10  1  0.85141298  0.76455582  0.61490351  1.0
  H  H11  1  0.62073273  0.23575270  0.61924851  1.0
  H  H12  1  0.18030021  0.13533477  0.44468871  1.0
  H  H13  1  0.29857711  0.89811944  0.44160259  1.0
  C  C14  1  0.62281361  0.73758376  0.49927417  1.0
  C  C15  1  0.82925282  0.48547563  0.33623936  1.0
  C  C16  1  0.35052723  0.28410704  0.50713426  1.0
  C  C17  1  0.16538153  0.52000185  0.65620037  1.0
  C  C18  1  0.88992347  0.47473338  0.23667499  1.0
  C  C19  1  0.11941039  0.50561493  0.75631142  1.0
  C  C20  1  0.07647812  0.49342572  0.18917261  1.0
  C  C21  1  0.12451105  0.49943190  0.09630290  1.0
  C  C22  1  0.91698022  0.52280296  0.80467624  1.0
  C  C23  1  0.87100006  0.51792080  0.89755270  1.0
  C  C24  1  0.27995804  0.47224641  0.80638472  1.0
  C  C25  1  0.23932156  0.46080166  0.89943110  1.0
  C  C26  1  0.75855360  0.44999529  0.18600191  1.0
  C  C27  1  0.80677945  0.45011846  0.09301631  1.0
  C  C28  1  0.98708945  0.47921550  0.04601483  1.0
  C  C29  1  0.03364469  0.48666987  0.94713076  1.0
  C  C30  1  0.54550047  0.87640151  0.51399885  1.0
  C  C31  1  0.64387569  0.93705309  0.56325103  1.0
  C  C32  1  0.37592950  0.94720455  0.47555919  1.0
  C  C33  1  0.79785392  0.86730099  0.61436452  1.0
  C  C34  1  0.87931595  0.92882235  0.66463423  1.0
  C  C35  1  0.41324210  0.14292155  0.51713149  1.0
  C  C36  1  0.30993917  0.07988226  0.47718445  1.0
  C  C37  1  0.57655091  0.07322605  0.56476129  1.0
  C  C38  1  0.66699883  0.13320875  0.61712621  1.0
  C  C39  1  0.81394795  0.06222213  0.66599462  1.0
  N  N40  1  0.23910250  0.49894392  0.23747509  1.0
  N  N41  1  0.74304763  0.53429814  0.75810457  1.0
  O  O42  1  0.48606472  0.68313276  0.49411750  1.0
  O  O43  1  0.97200260  0.49125783  0.37639644  1.0
  O  O44  1  0.15701339  0.34031752  0.50885018  1.0
  O  O45  1  0.35256105  0.51032096  0.61935960  1.0
  O  O46  1  0.49600877  0.33659142  0.49698424  1.0
  O  O47  1  0.01074972  0.54075375  0.61610419  1.0
  O  O48  1  0.81951608  0.68553713  0.48944929  1.0
  O  O49  1  0.64232069  0.49187879  0.37156415  1.0
  O  O50  1  0.23621872  0.56291264  0.45326727  1.0
  O  O51  1  0.74876761  0.46110733  0.53807170  1.0
  O  O52  1  0.34946764  0.39471338  0.26136814  1.0
  O  O53  1  0.26064655  0.60343727  0.24678908  1.0
  O  O54  1  0.74177285  0.43220814  0.73137127  1.0
  O  O55  1  0.60921536  0.63692193  0.75336936  1.0
  F  F56  1  0.02307282  0.86216217  0.71520416  1.0
  F  F57  1  0.89764325  0.11887830  0.71757850  1.0
