# generated using pymatgen
data_Zr3H21C44SCl5O19
_symmetry_space_group_name_H-M   'P 1'
_cell_length_a   19.01324888
_cell_length_b   19.05437650
_cell_length_c   19.05570238
_cell_angle_alpha   90.18019370
_cell_angle_beta   119.84556631
_cell_angle_gamma   119.83983641
_symmetry_Int_Tables_number   1
_chemical_formula_structural   Zr3H21C44SCl5O19
_chemical_formula_sum   'Zr6 H42 C88 S2 Cl10 O38'
_cell_volume   4897.08652729
_cell_formula_units_Z   2
loop_
 _symmetry_equiv_pos_site_id
 _symmetry_equiv_pos_as_xyz
  1  'x, y, z'
loop_
 _atom_site_type_symbol
 _atom_site_label
 _atom_site_symmetry_multiplicity
 _atom_site_fract_x
 _atom_site_fract_y
 _atom_site_fract_z
 _atom_site_occupancy
  Zr  Zr0  1  0.49732068  0.90345201  0.90775441  1.0
  Zr  Zr1  1  0.50366646  0.09234542  0.09670283  1.0
  Zr  Zr2  1  0.68593273  0.08927230  0.09284598  1.0
  Zr  Zr3  1  0.31503278  0.90736224  0.91079629  1.0
  Zr  Zr4  1  0.50040964  0.90534225  0.09466270  1.0
  Zr  Zr5  1  0.50056495  0.09079266  0.90939214  1.0
  H  H6  1  0.64435393  0.92255434  0.07250603  1.0
  H  H7  1  0.35646973  0.92758743  0.07740328  1.0
  H  H8  1  0.64882581  0.21688139  0.07496781  1.0
  H  H9  1  0.35213666  0.92527475  0.78323363  1.0
  H  H10  1  0.56020089  0.34924142  0.13533670  1.0
  H  H11  1  0.55950612  0.70686893  0.92921860  1.0
  H  H12  1  0.41772808  0.63494908  0.06086722  1.0
  H  H13  1  0.41758961  0.50415369  0.05872056  1.0
  H  H14  1  0.42416072  0.28039059  0.86330787  1.0
  H  H15  1  0.42185643  0.41000111  0.86336932  1.0
  H  H16  1  0.43971625  0.06975969  0.29206211  1.0
  H  H17  1  0.43894850  0.86393336  0.65032532  1.0
  H  H18  1  0.57513149  0.13602801  0.71844155  1.0
  H  H19  1  0.57597406  0.13519007  0.58809576  1.0
  H  H20  1  0.58128410  0.93792563  0.36459298  1.0
  H  H21  1  0.58015158  0.93948299  0.49474117  1.0
  H  H22  1  0.72034827  0.34926256  0.93189342  1.0
  H  H23  1  0.28130604  0.70555047  0.13379545  1.0
  H  H24  1  0.07800073  0.63876286  0.86197260  1.0
  H  H25  1  0.94937593  0.50581533  0.86139263  1.0
  H  H26  1  0.92199921  0.27588087  0.05644062  1.0
  H  H27  1  0.04943713  0.40468783  0.05328050  1.0
  H  H28  1  0.71945168  0.86668384  0.29543526  1.0
  H  H29  1  0.28062120  0.06902404  0.65112902  1.0
  H  H30  1  0.07953570  0.94456239  0.72502917  1.0
  H  H31  1  0.95198319  0.94790616  0.59654019  1.0
  H  H32  1  0.92261616  0.13833610  0.36127154  1.0
  H  H33  1  0.05133187  0.13935324  0.49451596  1.0
  H  H34  1  0.29268076  0.12346951  0.11023737  1.0
  H  H35  1  0.24141435  0.19017681  0.16946901  1.0
  H  H36  1  0.07632527  0.90618872  0.88024505  1.0
  H  H37  1  0.70833877  0.89007417  0.87660002  1.0
  H  H38  1  0.75962548  0.83097193  0.80984095  1.0
  H  H39  1  0.92471020  0.11979177  0.09420637  1.0
  H  H40  1  0.92827831  0.35134500  0.29275913  1.0
  H  H41  1  0.07264927  0.70735130  0.64870241  1.0
  H  H42  1  0.27706782  0.63823989  0.72098932  1.0
  H  H43  1  0.14744776  0.50792628  0.59015465  1.0
  H  H44  1  0.72415806  0.27919058  0.36218264  1.0
  H  H45  1  0.85392133  0.41005477  0.49247424  1.0
  H  H46  1  0.02828659  0.16164564  0.23299918  1.0
  H  H47  1  0.97251088  0.76722919  0.83808409  1.0
  C  C48  1  0.49059179  0.75779272  0.99615780  1.0
  C  C49  1  0.50974187  0.00349764  0.24203712  1.0
  C  C50  1  0.49580996  0.23081418  0.00114467  1.0
  C  C51  1  0.50476929  0.99877861  0.76907750  1.0
  C  C52  1  0.73254704  0.99880505  0.99283646  1.0
  C  C53  1  0.26045129  0.75953590  0.77003730  1.0
  C  C54  1  0.26845917  0.00739829  0.00136220  1.0
  C  C55  1  0.74053549  0.23008769  0.24068260  1.0
  C  C56  1  0.73562067  0.99986860  0.23929561  1.0
  C  C57  1  0.73502679  0.22794248  0.99572775  1.0
  C  C58  1  0.26617765  0.00477465  0.77231151  1.0
  C  C59  1  0.26513607  0.76090011  0.00020472  1.0
  C  C60  1  0.49222054  0.30711048  0.99937789  1.0
  C  C61  1  0.48847120  0.67862134  0.99495629  1.0
  C  C62  1  0.53045734  0.36301933  0.07587651  1.0
  C  C63  1  0.53304528  0.43737691  0.07612543  1.0
  C  C64  1  0.52914317  0.66264550  0.95820190  1.0
  C  C65  1  0.53330419  0.59168042  0.96106795  1.0
  C  C66  1  0.44910345  0.62190776  0.03220919  1.0
  C  C67  1  0.45005299  0.54953309  0.03153006  1.0
  C  C68  1  0.45375045  0.32437382  0.92257813  1.0
  C  C69  1  0.45341588  0.39706271  0.92315524  1.0
  C  C70  1  0.49387033  0.45580439  0.99951990  1.0
  C  C71  1  0.49304999  0.53300230  0.99723944  1.0
  C  C72  1  0.51081148  0.00404937  0.32069947  1.0
  C  C73  1  0.50719583  0.99999723  0.69217963  1.0
  C  C74  1  0.46972696  0.04057221  0.33627188  1.0
  C  C75  1  0.46478261  0.03732229  0.40681085  1.0
  C  C76  1  0.46840669  0.92325021  0.63624051  1.0
  C  C77  1  0.46500817  0.92260003  0.56150563  1.0
  C  C78  1  0.54518713  0.07657522  0.67445820  1.0
  C  C79  1  0.54467467  0.07557514  0.60135884  1.0
  C  C80  1  0.54962704  0.96645081  0.37733305  1.0
  C  C81  1  0.54795159  0.96679698  0.44933223  1.0
  C  C82  1  0.50471307  0.00102322  0.46552667  1.0
  C  C83  1  0.50391373  0.99899017  0.54271659  1.0
  C  C84  1  0.81282677  0.30430079  0.99378359  1.0
  C  C85  1  0.18737916  0.68037434  0.99801103  1.0
  C  C86  1  0.79275474  0.36176903  0.95881041  1.0
  C  C87  1  0.86655232  0.43622894  0.96115496  1.0
  C  C88  1  0.20827005  0.66196227  0.07414562  1.0
  C  C89  1  0.13470527  0.58925332  0.07394975  1.0
  C  C90  1  0.09349140  0.62424770  0.92113808  1.0
  C  C91  1  0.02192514  0.55042762  0.92127100  1.0
  C  C92  1  0.90599063  0.32026200  0.02867821  1.0
  C  C93  1  0.97760016  0.39306890  0.02750438  1.0
  C  C94  1  0.96058263  0.45331625  0.99502114  1.0
  C  C95  1  0.03986750  0.53144867  0.99731133  1.0
  C  C96  1  0.81333953  0.00234475  0.32008173  1.0
  C  C97  1  0.18838440  0.00702886  0.69626059  1.0
  C  C98  1  0.79247926  0.92637988  0.33886025  1.0
  C  C99  1  0.86608688  0.92681221  0.41177101  1.0
  C  C100  1  0.20828904  0.04210266  0.63877729  1.0
  C  C101  1  0.13442816  0.03988551  0.56446657  1.0
  C  C102  1  0.09538452  0.97231542  0.68057696  1.0
  C  C103  1  0.02369277  0.97357675  0.60792554  1.0
  C  C104  1  0.90717375  0.07929781  0.37606973  1.0
  C  C105  1  0.97879685  0.07940410  0.45006410  1.0
  C  C106  1  0.96096221  0.00350129  0.46936458  1.0
  C  C107  1  0.04043459  0.00597924  0.54751824  1.0
  C  C108  1  0.21498487  0.07539315  0.05893944  1.0
  C  C109  1  0.14026329  0.07655994  0.05562511  1.0
  C  C110  1  0.16392667  0.14067808  0.11876777  1.0
  C  C111  1  0.09100573  0.95098083  0.92937419  1.0
  C  C112  1  0.01376411  0.94831140  0.92459472  1.0
  C  C113  1  0.91005289  0.88375053  0.85947835  1.0
  C  C114  1  0.78602295  0.94134267  0.92472913  1.0
  C  C115  1  0.86079051  0.94468327  0.92358471  1.0
  C  C116  1  0.83712660  0.88163558  0.85938578  1.0
  C  C117  1  0.91002451  0.07072249  0.04932482  1.0
  C  C118  1  0.98726944  0.07552139  0.05200459  1.0
  C  C119  1  0.09099931  0.14057938  0.11667688  1.0
  C  C120  1  0.19007431  0.01220898  0.99663110  1.0
  C  C121  1  0.03836866  0.01191963  0.98914322  1.0
  C  C122  1  0.81092171  0.00354780  0.98800374  1.0
  C  C123  1  0.96269212  0.01107697  0.98832863  1.0
  C  C124  1  0.81846375  0.30724418  0.31978245  1.0
  C  C125  1  0.18257862  0.68043488  0.69291841  1.0
  C  C126  1  0.91187481  0.36442765  0.33641439  1.0
  C  C127  1  0.98262330  0.43941954  0.40738175  1.0
  C  C128  1  0.08913525  0.66373949  0.63568568  1.0
  C  C129  1  0.01846963  0.59276462  0.56069139  1.0
  C  C130  1  0.20395252  0.62451191  0.67605591  1.0
  C  C131  1  0.13172057  0.55240830  0.60270028  1.0
  C  C132  1  0.79721945  0.32412470  0.37580814  1.0
  C  C133  1  0.86953922  0.39749311  0.44790268  1.0
  C  C134  1  0.96336715  0.45742255  0.46521192  1.0
  C  C135  1  0.03784188  0.53500360  0.54274573  1.0
  S  S136  1  0.13017439  0.22497130  0.19788881  1.0
  S  S137  1  0.87087573  0.80263764  0.77499811  1.0
  Cl  Cl138  1  0.59003459  0.50796535  0.17456812  1.0
  Cl  Cl139  1  0.59358422  0.58043222  0.92186503  1.0
  Cl  Cl140  1  0.40412640  0.07634452  0.41758528  1.0
  Cl  Cl141  1  0.40750726  0.82395310  0.49092724  1.0
  Cl  Cl142  1  0.84010003  0.50906543  0.92464391  1.0
  Cl  Cl143  1  0.16272272  0.57450538  0.17188240  1.0
  Cl  Cl144  1  0.83805074  0.82904331  0.42701684  1.0
  Cl  Cl145  1  0.16082348  0.07659290  0.49165779  1.0
  Cl  Cl146  1  0.09368105  0.51161418  0.41996960  1.0
  Cl  Cl147  1  0.90734769  0.58005140  0.48841843  1.0
  O  O148  1  0.49555245  0.79052466  0.93891838  1.0
  O  O149  1  0.50528185  0.06101190  0.20957700  1.0
  O  O150  1  0.50286681  0.20396642  0.06424290  1.0
  O  O151  1  0.49812086  0.93586409  0.79614286  1.0
  O  O152  1  0.76281309  0.05565172  0.05596240  1.0
  O  O153  1  0.23193959  0.79359756  0.79802712  1.0
  O  O154  1  0.23817279  0.94431639  0.94443728  1.0
  O  O155  1  0.76903116  0.20208639  0.20661691  1.0
  O  O156  1  0.64554324  0.93770784  0.20609237  1.0
  O  O157  1  0.64495730  0.20125292  0.94019981  1.0
  O  O158  1  0.35622078  0.06015852  0.79886729  1.0
  O  O159  1  0.35522612  0.79396179  0.06224568  1.0
  O  O160  1  0.76410266  0.19592672  0.05375920  1.0
  O  O161  1  0.23707538  0.94660610  0.80419692  1.0
  O  O162  1  0.23573638  0.79161055  0.94082186  1.0
  O  O163  1  0.76506750  0.05917891  0.20853418  1.0
  O  O164  1  0.64265772  0.93795489  0.93528467  1.0
  O  O165  1  0.65060356  0.19885447  0.21202821  1.0
  O  O166  1  0.35834312  0.06488664  0.06225032  1.0
  O  O167  1  0.35037844  0.78819632  0.80124575  1.0
  O  O168  1  0.50750080  0.05980343  0.80102572  1.0
  O  O169  1  0.48953782  0.78792990  0.05530055  1.0
  O  O170  1  0.51108925  0.94452247  0.21200115  1.0
  O  O171  1  0.49353988  0.19912004  0.94033175  1.0
  O  O172  1  0.39426307  0.94580675  0.84543472  1.0
  O  O173  1  0.60678409  0.15467773  0.05441978  1.0
  O  O174  1  0.39734347  0.94782811  0.05593069  1.0
  O  O175  1  0.60354439  0.94409777  0.05225546  1.0
  O  O176  1  0.57880383  0.03649474  0.11741805  1.0
  O  O177  1  0.42209928  0.88272440  0.96354268  1.0
  O  O178  1  0.42474167  0.03806862  0.96521491  1.0
  O  O179  1  0.57630578  0.03491804  0.96212903  1.0
  O  O180  1  0.09323141  0.17416294  0.25355954  1.0
  O  O181  1  0.23623785  0.27677573  0.25390847  1.0
  O  O182  1  0.07586238  0.26202482  0.15877088  1.0
  O  O183  1  0.90762797  0.74678904  0.82563327  1.0
  O  O184  1  0.76480370  0.74671774  0.72310156  1.0
  O  O185  1  0.92530424  0.84185617  0.73806309  1.0
