# generated using pymatgen
data_Zr3H14C28S5O21
_symmetry_space_group_name_H-M   'P 1'
_cell_length_a   16.44784655
_cell_length_b   16.44923887
_cell_length_c   16.44994152
_cell_angle_alpha   60.25985219
_cell_angle_beta   88.50363498
_cell_angle_gamma   60.26006447
_symmetry_Int_Tables_number   1
_chemical_formula_structural   Zr3H14C28S5O21
_chemical_formula_sum   'Zr6 H28 C56 S10 O42'
_cell_volume   3209.40283133
_cell_formula_units_Z   2
loop_
 _symmetry_equiv_pos_site_id
 _symmetry_equiv_pos_as_xyz
  1  'x, y, z'
loop_
 _atom_site_type_symbol
 _atom_site_label
 _atom_site_symmetry_multiplicity
 _atom_site_fract_x
 _atom_site_fract_y
 _atom_site_fract_z
 _atom_site_occupancy
  Zr  Zr0  1  0.90351752  0.48750304  0.39997284  1.0
  Zr  Zr1  1  0.10614300  0.50655904  0.60204663  1.0
  Zr  Zr2  1  0.89779285  0.70786161  0.39394555  1.0
  Zr  Zr3  1  0.11218528  0.28627378  0.60769117  1.0
  Zr  Zr4  1  0.89572391  0.49679421  0.61062351  1.0
  Zr  Zr5  1  0.11405710  0.49739133  0.39119482  1.0
  H  H6  1  0.75563568  0.65359997  0.42480718  1.0
  H  H7  1  0.08191726  0.34007167  0.75010421  1.0
  H  H8  1  0.08655733  0.67055526  0.41001156  1.0
  H  H9  1  0.09543883  0.32409584  0.41868807  1.0
  H  H10  1  0.67806411  0.70010795  0.13326126  1.0
  H  H11  1  0.37470876  0.29310095  0.82612842  1.0
  H  H12  1  0.46163238  0.47550400  0.32840395  1.0
  H  H13  1  0.56831320  0.47684612  0.69500448  1.0
  H  H14  1  0.81096127  0.51760598  0.93665885  1.0
  H  H15  1  0.17711206  0.51904597  0.04441969  1.0
  H  H16  1  0.81117903  0.10635352  0.05779618  1.0
  H  H17  1  0.17877385  0.88652088  0.92367370  1.0
  H  H18  1  0.58318987  0.10677726  0.32756490  1.0
  H  H19  1  0.44763794  0.88904120  0.69462081  1.0
  H  H20  1  0.16690690  0.75693433  0.68684788  1.0
  H  H21  1  0.82151309  0.23676792  0.33711416  1.0
  H  H22  1  0.49649309  0.21723204  0.02833254  1.0
  H  H23  1  0.60162806  0.13908287  0.00233265  1.0
  H  H24  1  0.50005454  0.27175742  0.90552140  1.0
  H  H25  1  0.53151110  0.06742615  0.15305479  1.0
  H  H26  1  0.62065494  0.92795948  0.25115760  1.0
  H  H27  1  0.65920857  0.00689433  0.16484981  1.0
  H  H28  1  0.47499185  0.77714491  0.01134345  1.0
  H  H29  1  0.50302416  0.85241390  0.90651738  1.0
  H  H30  1  0.59837901  0.71994865  0.00951090  1.0
  H  H31  1  0.35127685  0.92799856  0.97393414  1.0
  H  H32  1  0.25414149  0.06747608  0.88365879  1.0
  H  H33  1  0.34096044  0.98686364  0.84666033  1.0
  C  C34  1  0.74258437  0.47581111  0.51800122  1.0
  C  C35  1  0.98884462  0.51774585  0.76342947  1.0
  C  C36  1  0.27792253  0.49607087  0.49553320  1.0
  C  C37  1  0.00926372  0.49904336  0.22740696  1.0
  C  C38  1  0.73986064  0.74878715  0.23719660  1.0
  C  C39  1  0.00377244  0.22110613  0.50962181  1.0
  C  C40  1  0.26942881  0.24525009  0.76505757  1.0
  C  C41  1  0.99640208  0.77274959  0.50243080  1.0
  C  C42  1  0.73565869  0.76868802  0.50534760  1.0
  C  C43  1  0.99866964  0.76859767  0.22172474  1.0
  C  C44  1  0.28400970  0.22639199  0.50618841  1.0
  C  C45  1  0.00145106  0.22487034  0.77052792  1.0
  C  C46  1  0.43121366  0.47850617  0.43989972  1.0
  C  C47  1  0.59895522  0.47268001  0.58397405  1.0
  C  C48  1  0.37164357  0.48506332  0.50133475  1.0
  C  C49  1  0.65647788  0.47045449  0.52037808  1.0
  C  C50  1  0.51734415  0.47420682  0.55510357  1.0
  C  C51  1  0.51483749  0.47258585  0.47096307  1.0
  C  C52  1  0.92211066  0.52168249  0.90644665  1.0
  C  C53  1  0.06526209  0.51662461  0.07429629  1.0
  C  C54  1  0.98608322  0.52355350  0.84929502  1.0
  C  C55  1  0.00358739  0.51015120  0.13363047  1.0
  C  C56  1  0.03463703  0.52213097  0.99078461  1.0
  C  C57  1  0.95052360  0.52048416  0.98800995  1.0
  C  C58  1  0.92595524  0.97457630  0.07780249  1.0
  C  C59  1  0.06420409  0.01817400  0.90411840  1.0
  C  C60  1  0.99379532  0.85813158  0.12964179  1.0
  C  C61  1  0.99861426  0.13478782  0.85467947  1.0
  C  C62  1  0.03703325  0.95989138  0.98501429  1.0
  C  C63  1  0.95140384  0.03276049  0.99508041  1.0
  C  C64  1  0.60237629  0.97546501  0.44223147  1.0
  C  C65  1  0.42802714  0.02038251  0.57963936  1.0
  C  C66  1  0.65158531  0.85890873  0.50810465  1.0
  C  C67  1  0.37633222  0.13675375  0.51144273  1.0
  C  C68  1  0.51094646  0.96172934  0.55462847  1.0
  C  C69  1  0.52132074  0.03418845  0.46900597  1.0
  C  C70  1  0.59269992  0.94631195  0.11431848  1.0
  C  C71  1  0.62740390  0.78897519  0.10546044  1.0
  C  C72  1  0.54340389  0.85452360  0.02997969  1.0
  C  C73  1  0.48248464  0.97362958  0.98905485  1.0
  C  C74  1  0.39151488  0.04778750  0.91270090  1.0
  C  C75  1  0.40175090  0.20454718  0.87725275  1.0
  C  C76  1  0.47705690  0.13895914  0.96139429  1.0
  C  C77  1  0.51689182  0.02018711  0.02300977  1.0
  C  C78  1  0.65050779  0.83148489  0.15126565  1.0
  C  C79  1  0.35532680  0.16239587  0.85445242  1.0
  C  C80  1  0.05758726  0.84576462  0.57579803  1.0
  C  C81  1  0.93100737  0.14801187  0.44796077  1.0
  C  C82  1  0.99367537  0.85937477  0.50895086  1.0
  C  C83  1  0.99734291  0.13444815  0.51236108  1.0
  C  C84  1  0.95248618  0.04245981  0.47201039  1.0
  C  C85  1  0.03384360  0.95134105  0.55401645  1.0
  C  C86  1  0.52135938  0.19403576  0.97592812  1.0
  C  C87  1  0.60147015  0.99038647  0.17291878  1.0
  C  C88  1  0.52839244  0.79873089  0.98683399  1.0
  C  C89  1  0.33234741  0.00434010  0.90379182  1.0
  S  S90  1  0.41826893  0.48259220  0.59739607  1.0
  S  S91  1  0.61192470  0.46852756  0.42651439  1.0
  S  S92  1  0.07966773  0.52572423  0.89406893  1.0
  S  S93  1  0.90774149  0.51248752  0.08675776  1.0
  S  S94  1  0.08721787  0.82005375  0.07599527  1.0
  S  S95  1  0.90318268  0.17273612  0.90619433  1.0
  S  S96  1  0.59970992  0.82158484  0.60331978  1.0
  S  S97  1  0.43041727  0.17418557  0.41828872  1.0
  S  S98  1  0.90385196  0.00073632  0.42085015  1.0
  S  S99  1  0.08467869  0.99311234  0.60295328  1.0
  O  O100  1  0.77849030  0.47529208  0.44807783  1.0
  O  O101  1  0.05885653  0.51806195  0.72763081  1.0
  O  O102  1  0.23923155  0.50230596  0.56264418  1.0
  O  O103  1  0.94224039  0.49264266  0.26618381  1.0
  O  O104  1  0.77555746  0.78544541  0.26779235  1.0
  O  O105  1  0.07296343  0.18863422  0.57536720  1.0
  O  O106  1  0.23869606  0.20869286  0.72937032  1.0
  O  O107  1  0.93056894  0.80535503  0.43322387  1.0
  O  O108  1  0.76649025  0.66713041  0.57389164  1.0
  O  O109  1  0.07050842  0.66730102  0.25576784  1.0
  O  O110  1  0.24978626  0.32766854  0.43424002  1.0
  O  O111  1  0.93287774  0.32642652  0.73977444  1.0
  O  O112  1  0.93157324  0.79972666  0.26131438  1.0
  O  O113  1  0.24440964  0.19517915  0.57323129  1.0
  O  O114  1  0.07338502  0.19407419  0.73588219  1.0
  O  O115  1  0.77014498  0.79956308  0.43327825  1.0
  O  O116  1  0.77655848  0.64409749  0.27447033  1.0
  O  O117  1  0.06635469  0.67104266  0.56626353  1.0
  O  O118  1  0.23222924  0.34988614  0.72844328  1.0
  O  O119  1  0.93978890  0.32279991  0.43975351  1.0
  O  O120  1  0.08004891  0.49518551  0.26334833  1.0
  O  O121  1  0.77330587  0.48314918  0.58315790  1.0
  O  O122  1  0.92375317  0.51020808  0.73287094  1.0
  O  O123  1  0.24195264  0.49992545  0.42477579  1.0
  O  O124  1  0.06999712  0.37299348  0.44227015  1.0
  O  O125  1  0.06314067  0.62149736  0.43554188  1.0
  O  O126  1  0.05966898  0.38469173  0.67923224  1.0
  O  O127  1  0.82652275  0.60908705  0.44684202  1.0
  O  O128  1  0.95699008  0.58867005  0.54367826  1.0
  O  O129  1  0.96240126  0.40526844  0.54899829  1.0
  O  O130  1  0.13650448  0.41400338  0.54128644  1.0
  O  O131  1  0.96398761  0.58040279  0.36931872  1.0
  O  O132  1  0.41021736  0.47917061  0.36018741  1.0
  O  O133  1  0.61900232  0.47447474  0.66241452  1.0
  O  O134  1  0.84376992  0.51985523  0.88614288  1.0
  O  O135  1  0.14478837  0.51624995  0.09535387  1.0
  O  O136  1  0.84631538  0.02502147  0.10442203  1.0
  O  O137  1  0.14419156  0.96790514  0.87787775  1.0
  O  O138  1  0.62882668  0.02535585  0.36227191  1.0
  O  O139  1  0.40114794  0.97041362  0.65923990  1.0
  O  O140  1  0.13332874  0.74406108  0.65119813  1.0
  O  O141  1  0.85641242  0.24968451  0.37140734  1.0
