# generated using pymatgen
data_Zn2H18C39O11
_symmetry_space_group_name_H-M   'P 1'
_cell_length_a   16.04170977
_cell_length_b   16.13511421
_cell_length_c   30.15843278
_cell_angle_alpha   90.69724782
_cell_angle_beta   90.64283560
_cell_angle_gamma   90.02562991
_symmetry_Int_Tables_number   1
_chemical_formula_structural   Zn2H18C39O11
_chemical_formula_sum   'Zn4 H36 C78 O22'
_cell_volume   7804.98190176
_cell_formula_units_Z   2
loop_
 _symmetry_equiv_pos_site_id
 _symmetry_equiv_pos_as_xyz
  1  'x, y, z'
loop_
 _atom_site_type_symbol
 _atom_site_label
 _atom_site_symmetry_multiplicity
 _atom_site_fract_x
 _atom_site_fract_y
 _atom_site_fract_z
 _atom_site_occupancy
  Zn  Zn0  1  0.50386959  0.07986765  0.50164226  1.0
  Zn  Zn1  1  0.49608465  0.92014055  0.49834480  1.0
  Zn  Zn2  1  0.08041189  0.49660348  0.00091387  1.0
  Zn  Zn3  1  0.91958176  0.50340113  0.99912377  1.0
  H  H4  1  0.23830235  0.12261716  0.31118293  1.0
  H  H5  1  0.76161456  0.87755034  0.68881547  1.0
  H  H6  1  0.86194172  0.89094472  0.25399176  1.0
  H  H7  1  0.13811462  0.10904727  0.74594964  1.0
  H  H8  1  0.11193151  0.05113182  0.18899728  1.0
  H  H9  1  0.88805018  0.94902512  0.81098250  1.0
  H  H10  1  0.87442202  0.95990967  0.18712509  1.0
  H  H11  1  0.12569038  0.03991376  0.81281893  1.0
  H  H12  1  0.12144973  0.89426773  0.23160832  1.0
  H  H13  1  0.87866437  0.10585908  0.76846149  1.0
  H  H14  1  0.86828135  0.12331709  0.23379862  1.0
  H  H15  1  0.13165807  0.87659705  0.76625247  1.0
  H  H16  1  0.74611940  0.88795503  0.30708199  1.0
  H  H17  1  0.25396626  0.11190996  0.69288004  1.0
  H  H18  1  0.11149352  0.16683794  0.13634283  1.0
  H  H19  1  0.88828110  0.83327983  0.86360614  1.0
  H  H20  1  0.87950985  0.84936179  0.12985031  1.0
  H  H21  1  0.12081079  0.15049889  0.87009700  1.0
  H  H22  1  0.12894782  0.78758332  0.17238534  1.0
  H  H23  1  0.87138820  0.21256336  0.82767778  1.0
  H  H24  1  0.86569981  0.23615930  0.17936065  1.0
  H  H25  1  0.13404249  0.76369829  0.82065030  1.0
  H  H26  1  0.14173615  0.90431627  0.37310117  1.0
  H  H27  1  0.85829121  0.09583833  0.62693288  1.0
  H  H28  1  0.83325159  0.11745687  0.36520156  1.0
  H  H29  1  0.16670707  0.88240638  0.63482115  1.0
  H  H30  1  0.12301005  0.11721539  0.25732472  1.0
  H  H31  1  0.87695227  0.88284359  0.74264709  1.0
  H  H32  1  0.96481965  0.77880537  0.30497624  1.0
  H  H33  1  0.03524561  0.22124937  0.69502526  1.0
  H  H34  1  0.96784368  0.16313517  0.37767103  1.0
  H  H35  1  0.90687574  0.23100688  0.34312263  1.0
  H  H36  1  0.01840957  0.23046588  0.33937614  1.0
  H  H37  1  0.09305113  0.76896357  0.65689092  1.0
  H  H38  1  0.03211060  0.83684332  0.62233542  1.0
  H  H39  1  0.98151229  0.76952996  0.66062793  1.0
  C  C40  1  0.61795282  0.99222739  0.55928983  1.0
  C  C41  1  0.38196911  0.00931254  0.44078158  1.0
  C  C42  1  0.93222742  0.85915124  0.15240040  1.0
  C  C43  1  0.06805962  0.14074357  0.84756584  1.0
  C  C44  1  0.06810749  0.88493462  0.20944528  1.0
  C  C45  1  0.93206262  0.11515247  0.79059476  1.0
  C  C46  1  0.07259609  0.82451921  0.17625327  1.0
  C  C47  1  0.92770620  0.17558898  0.82378824  1.0
  C  C48  1  0.92241590  0.13296559  0.21300243  1.0
  C  C49  1  0.07747922  0.86698692  0.78702943  1.0
  C  C50  1  0.92050557  0.19665162  0.18229668  1.0
  C  C51  1  0.07926169  0.80324441  0.81771661  1.0
  C  C52  1  0.07429111  0.94569564  0.31550917  1.0
  C  C53  1  0.92575298  0.05437152  0.68450390  1.0
  C  C54  1  0.13940666  0.94970466  0.34666916  1.0
  C  C55  1  0.86062378  0.05042760  0.65335351  1.0
  C  C56  1  0.90547254  0.06950092  0.31047949  1.0
  C  C57  1  0.09449294  0.93045339  0.68951925  1.0
  C  C58  1  0.84002728  0.06844794  0.34045735  1.0
  C  C59  1  0.15995130  0.93143264  0.65955562  1.0
  C  C60  1  0.99263362  0.00568897  0.24852051  1.0
  C  C61  1  0.00738173  0.99431864  0.75147316  1.0
  C  C62  1  0.60731759  0.00308419  0.43643987  1.0
  C  C63  1  0.39264794  0.99537135  0.56352660  1.0
  C  C64  1  0.06810992  0.00489772  0.28129702  1.0
  C  C65  1  0.93189799  0.99514896  0.71870712  1.0
  C  C66  1  0.20048264  0.01192569  0.34538268  1.0
  C  C67  1  0.79948048  0.98827164  0.65463968  1.0
  C  C68  1  0.91497105  0.00514398  0.27827558  1.0
  C  C69  1  0.08503804  0.99483324  0.72171191  1.0
  C  C70  1  0.78224746  0.00270962  0.33974186  1.0
  C  C71  1  0.21781025  0.99710713  0.66026385  1.0
  C  C72  1  0.99194722  0.08113021  0.21719096  1.0
  C  C73  1  0.00801204  0.91888855  0.78280746  1.0
  C  C74  1  0.98925504  0.21103099  0.15485637  1.0
  C  C75  1  0.01042167  0.78888225  0.84510085  1.0
  C  C76  1  0.99619743  0.93293167  0.21490536  1.0
  C  C77  1  0.00390397  0.06706853  0.78509402  1.0
  C  C78  1  0.00419185  0.80975563  0.14759760  1.0
  C  C79  1  0.99619379  0.19027623  0.85239084  1.0
  C  C80  1  0.71887897  0.00131501  0.37206813  1.0
  C  C81  1  0.28123606  0.99816092  0.62796308  1.0
  C  C82  1  0.66655662  0.00195535  0.40104220  1.0
  C  C83  1  0.33350512  0.99684243  0.59895926  1.0
  C  C84  1  0.12856257  0.06779076  0.28133201  1.0
  C  C85  1  0.87141038  0.93229119  0.71865259  1.0
  C  C86  1  0.26485570  0.01392526  0.37789058  1.0
  C  C87  1  0.73504465  0.98656902  0.62216502  1.0
  C  C88  1  0.31875976  0.01305059  0.40664893  1.0
  C  C89  1  0.68116076  0.98812424  0.59341040  1.0
  C  C90  1  0.98907448  0.27687155  0.12428454  1.0
  C  C91  1  0.01006029  0.72293791  0.87561322  1.0
  C  C92  1  0.99067549  0.33333333  0.09787936  1.0
  C  C93  1  0.00726609  0.66647238  0.90201218  1.0
  C  C94  1  0.00686946  0.74650623  0.11473582  1.0
  C  C95  1  0.99398617  0.25359260  0.88522196  1.0
  C  C96  1  0.00745750  0.69138746  0.08677060  1.0
  C  C97  1  0.99444795  0.30872587  0.91318971  1.0
  C  C98  1  0.00594294  0.62466719  0.05484041  1.0
  C  C99  1  0.99659725  0.37532060  0.94517518  1.0
  C  C100  1  0.99361207  0.39682339  0.06494781  1.0
  C  C101  1  0.00374863  0.60310475  0.93498423  1.0
  C  C102  1  0.19348643  0.07194766  0.31214370  1.0
  C  C103  1  0.80645665  0.92819877  0.68785206  1.0
  C  C104  1  0.85554922  0.94168012  0.27779107  1.0
  C  C105  1  0.14448409  0.05828154  0.72216463  1.0
  C  C106  1  0.79023139  0.93925252  0.30779706  1.0
  C  C107  1  0.20983745  0.06062612  0.69216961  1.0
  C  C108  1  0.05893695  0.09338474  0.18827540  1.0
  C  C109  1  0.94099175  0.90670775  0.81171069  1.0
  C  C110  1  0.05866049  0.15767125  0.15814564  1.0
  C  C111  1  0.94113535  0.84240070  0.84181710  1.0
  C  C112  1  0.92931667  0.92032623  0.18505989  1.0
  C  C113  1  0.07085069  0.07956669  0.81491003  1.0
  C  C114  1  0.01275255  0.87851447  0.32582609  1.0
  C  C115  1  0.98730525  0.12153596  0.67418629  1.0
  C  C116  1  0.96320700  0.19212894  0.34488019  1.0
  C  C117  1  0.03672359  0.80784521  0.65512578  1.0
  O  O118  1  0.59672549  0.06487511  0.54688931  1.0
  O  O119  1  0.40331319  0.93673501  0.45323684  1.0
  O  O120  1  0.57981129  0.93282339  0.44915534  1.0
  O  O121  1  0.42022444  0.06554274  0.55073537  1.0
  O  O122  1  0.58768392  0.07435696  0.45225405  1.0
  O  O123  1  0.41216011  0.92401621  0.54774778  1.0
  O  O124  1  0.58887653  0.92331215  0.54445935  1.0
  O  O125  1  0.41096051  0.07831195  0.45556768  1.0
  O  O126  1  0.07638373  0.59481980  0.04304089  1.0
  O  O127  1  0.92632258  0.40534612  0.95706015  1.0
  O  O128  1  0.92366996  0.42515658  0.05098538  1.0
  O  O129  1  0.07355306  0.57458262  0.94900453  1.0
  O  O130  1  0.06619724  0.41868833  0.05226797  1.0
  O  O131  1  0.93105264  0.58159434  0.94768016  1.0
  O  O132  1  0.93382731  0.60089497  0.04119085  1.0
  O  O133  1  0.06886911  0.39880267  0.95877213  1.0
  O  O134  1  0.97843379  0.87340844  0.36158450  1.0
  O  O135  1  0.00401508  0.81968261  0.29337227  1.0
  O  O136  1  0.02162650  0.12664012  0.63842556  1.0
  O  O137  1  0.99606017  0.18036843  0.70663457  1.0
  O  O138  1  0.96360852  0.13101112  0.31019335  1.0
  O  O139  1  0.03632144  0.86897294  0.68981003  1.0
