# generated using pymatgen
data_Zn4H18C42O13F6
_symmetry_space_group_name_H-M   'P 1'
_cell_length_a   24.42030964
_cell_length_b   24.49258144
_cell_length_c   24.55784148
_cell_angle_alpha   60.35351621
_cell_angle_beta   60.36510180
_cell_angle_gamma   60.27117743
_symmetry_Int_Tables_number   1
_chemical_formula_structural   Zn4H18C42O13F6
_chemical_formula_sum   'Zn8 H36 C84 O26 F12'
_cell_volume   10463.81505825
_cell_formula_units_Z   2
loop_
 _symmetry_equiv_pos_site_id
 _symmetry_equiv_pos_as_xyz
  1  'x, y, z'
loop_
 _atom_site_type_symbol
 _atom_site_label
 _atom_site_symmetry_multiplicity
 _atom_site_fract_x
 _atom_site_fract_y
 _atom_site_fract_z
 _atom_site_occupancy
  Zn  Zn0  1  0.03917475  0.03426989  0.89207495  1.0
  Zn  Zn1  1  0.04081576  0.03917955  0.01865930  1.0
  Zn  Zn2  1  0.04304831  0.90544972  0.02187762  1.0
  Zn  Zn3  1  0.90937427  0.03484144  0.02226145  1.0
  Zn  Zn4  1  0.47427279  0.47041685  0.58637287  1.0
  Zn  Zn5  1  0.47568271  0.47346668  0.45249838  1.0
  Zn  Zn6  1  0.60564670  0.46880216  0.45706887  1.0
  Zn  Zn7  1  0.47801984  0.60113168  0.45807196  1.0
  H  H8  1  0.18817772  0.12754222  0.91288497  1.0
  H  H9  1  0.26250899  0.19674204  0.84182559  1.0
  H  H10  1  0.19354114  0.26361504  0.68038127  1.0
  H  H11  1  0.25678972  0.31112605  0.78882125  1.0
  H  H12  1  0.33128224  0.38014092  0.71500019  1.0
  H  H13  1  0.31060013  0.25143325  0.62530958  1.0
  H  H14  1  0.13097594  0.76892174  0.92279201  1.0
  H  H15  1  0.19747120  0.69491223  0.85372704  1.0
  H  H16  1  0.26257012  0.85635864  0.68699034  1.0
  H  H17  1  0.31287678  0.63907316  0.79759500  1.0
  H  H18  1  0.38250631  0.57026591  0.72323078  1.0
  H  H19  1  0.24621340  0.80512003  0.63664385  1.0
  H  H20  1  0.77440628  0.18016027  0.92061136  1.0
  H  H21  1  0.70096584  0.25614495  0.85044842  1.0
  H  H22  1  0.86137471  0.19074154  0.68658143  1.0
  H  H23  1  0.64437655  0.25094925  0.79487158  1.0
  H  H24  1  0.57513352  0.32687024  0.72061159  1.0
  H  H25  1  0.81229087  0.31030702  0.63515181  1.0
  H  H26  1  0.18777715  0.77814352  0.11144377  1.0
  H  H27  1  0.26138191  0.70518990  0.18147802  1.0
  H  H28  1  0.19460078  0.86680413  0.25024659  1.0
  H  H29  1  0.25391322  0.64987452  0.29708596  1.0
  H  H30  1  0.33014602  0.57931883  0.36438913  1.0
  H  H31  1  0.31418740  0.81602570  0.23579566  1.0
  H  H32  1  0.77607638  0.12635984  0.16497612  1.0
  H  H33  1  0.70168535  0.19356305  0.24080395  1.0
  H  H34  1  0.86211418  0.26265600  0.17961519  1.0
  H  H35  1  0.64384142  0.30816646  0.23922457  1.0
  H  H36  1  0.57485599  0.37632395  0.31418156  1.0
  H  H37  1  0.81270581  0.24652449  0.29633903  1.0
  H  H38  1  0.77911349  0.92875229  0.11247464  1.0
  H  H39  1  0.70631467  0.85790992  0.18171620  1.0
  H  H40  1  0.86870431  0.69596421  0.25020715  1.0
  H  H41  1  0.65063940  0.80510880  0.29620559  1.0
  H  H42  1  0.58111732  0.73105410  0.36510705  1.0
  H  H43  1  0.81893791  0.64087912  0.23695791  1.0
  C  C44  1  0.10912735  0.11024324  0.88172917  1.0
  C  C45  1  0.15066070  0.15467198  0.83740438  1.0
  C  C46  1  0.19016886  0.15777740  0.86166608  1.0
  C  C47  1  0.23110940  0.19683826  0.82207510  1.0
  C  C48  1  0.23407095  0.23498111  0.75571155  1.0
  C  C49  1  0.19448313  0.23315887  0.73082327  1.0
  C  C50  1  0.15379817  0.19381198  0.77123839  1.0
  C  C51  1  0.27775759  0.27635753  0.71269700  1.0
  C  C52  1  0.28493933  0.31255206  0.73744771  1.0
  C  C53  1  0.32593449  0.35149929  0.69634899  1.0
  C  C54  1  0.36141705  0.35644545  0.62920463  1.0
  C  C55  1  0.40401327  0.39993413  0.58749194  1.0
  C  C56  1  0.35385680  0.31952075  0.60569246  1.0
  C  C57  1  0.31308911  0.28024080  0.64601254  1.0
  C  C58  1  0.11473317  0.89657410  0.88759494  1.0
  C  C59  1  0.15760385  0.85366468  0.84466864  1.0
  C  C60  1  0.16029318  0.78704896  0.87089240  1.0
  C  C61  1  0.19784607  0.74580609  0.83229761  1.0
  C  C62  1  0.23466145  0.77002570  0.76505668  1.0
  C  C63  1  0.23310603  0.83613579  0.73823347  1.0
  C  C64  1  0.19533412  0.87654974  0.77764059  1.0
  C  C65  1  0.27493955  0.72749246  0.72268539  1.0
  C  C66  1  0.31284235  0.66038537  0.74672519  1.0
  C  C67  1  0.35220808  0.62197751  0.70525365  1.0
  C  C68  1  0.35582789  0.64828639  0.63851643  1.0
  C  C69  1  0.40125837  0.60576702  0.59522681  1.0
  C  C70  1  0.31641100  0.71492611  0.61603969  1.0
  C  C71  1  0.27671588  0.75413881  0.65668522  1.0
  C  C72  1  0.90121711  0.10145070  0.88741840  1.0
  C  C73  1  0.85857284  0.14382218  0.84401549  1.0
  C  C74  1  0.79238616  0.18308099  0.86917447  1.0
  C  C75  1  0.75150080  0.22501041  0.83008900  1.0
  C  C76  1  0.77569942  0.22951364  0.76331272  1.0
  C  C77  1  0.84130624  0.19027191  0.73747744  1.0
  C  C78  1  0.88130560  0.14837164  0.77745580  1.0
  C  C79  1  0.73345792  0.27459399  0.72056956  1.0
  C  C80  1  0.66582988  0.28074721  0.74431126  1.0
  C  C81  1  0.62725583  0.32261098  0.70296636  1.0
  C  C82  1  0.65374004  0.36012891  0.63676881  1.0
  C  C83  1  0.61052436  0.40250087  0.59394080  1.0
  C  C84  1  0.72113816  0.35391326  0.61447681  1.0
  C  C85  1  0.76065613  0.31206501  0.65493984  1.0
  C  C86  1  0.11055137  0.90479995  0.09435017  1.0
  C  C87  1  0.15147045  0.86311669  0.13943107  1.0
  C  C88  1  0.19013758  0.79660542  0.14223254  1.0
  C  C89  1  0.23061892  0.75596857  0.18173075  1.0
  C  C90  1  0.23404869  0.78057640  0.22057638  1.0
  C  C91  1  0.19512445  0.84644265  0.21924971  1.0
  C  C92  1  0.15481304  0.88630293  0.17947450  1.0
  C  C93  1  0.27804815  0.73818912  0.26168719  1.0
  C  C94  1  0.28381281  0.67075380  0.29785708  1.0
  C  C95  1  0.32580633  0.63143515  0.33582964  1.0
  C  C96  1  0.36367853  0.65699858  0.33972367  1.0
  C  C97  1  0.40704940  0.61238102  0.38237322  1.0
  C  C98  1  0.35740350  0.72434017  0.30292841  1.0
  C  C99  1  0.31560316  0.76457722  0.26467692  1.0
  C  C100  1  0.90301749  0.11161882  0.08841544  1.0
  C  C101  1  0.86025198  0.15504637  0.13089167  1.0
  C  C102  1  0.79380374  0.15684096  0.16889034  1.0
  C  C103  1  0.75237337  0.19473860  0.21078263  1.0
  C  C104  1  0.77622230  0.23283017  0.21649368  1.0
  C  C105  1  0.84209100  0.23230080  0.17844476  1.0
  C  C106  1  0.88264809  0.19425950  0.13665716  1.0
  C  C107  1  0.73362757  0.27265038  0.26151917  1.0
  C  C108  1  0.66572613  0.30882162  0.26820633  1.0
  C  C109  1  0.62716808  0.34723021  0.30961907  1.0
  C  C110  1  0.65381939  0.35129772  0.34633013  1.0
  C  C111  1  0.61066478  0.39539813  0.38806531  1.0
  C  C112  1  0.72142327  0.31368329  0.33986963  1.0
  C  C113  1  0.76090216  0.27533509  0.29835376  1.0
  C  C114  1  0.90636610  0.89699754  0.09578482  1.0
  C  C115  1  0.86440617  0.85294937  0.14034717  1.0
  C  C116  1  0.79776547  0.87747605  0.14305107  1.0
  C  C117  1  0.75719152  0.83802632  0.18213679  1.0
  C  C118  1  0.78208413  0.77155824  0.22066334  1.0
  C  C119  1  0.84810589  0.74646084  0.21940402  1.0
  C  C120  1  0.88783721  0.78675955  0.17997971  1.0
  C  C121  1  0.73997167  0.72860638  0.26170142  1.0
  C  C122  1  0.67219181  0.75355472  0.29763704  1.0
  C  C123  1  0.63343669  0.71237108  0.33642921  1.0
  C  C124  1  0.65978136  0.64505912  0.34106414  1.0
  C  C125  1  0.61559531  0.60327085  0.38452363  1.0
  C  C126  1  0.72742737  0.62140567  0.30412336  1.0
  C  C127  1  0.76712328  0.66177414  0.26539195  1.0
  O  O128  1  0.00738136  0.00312416  0.98965807  1.0
  O  O129  1  0.10000642  0.08920762  0.94371466  1.0
  O  O130  1  0.08712652  0.09623270  0.85445457  1.0
  O  O131  1  0.42213723  0.41658361  0.52472360  1.0
  O  O132  1  0.41785293  0.41736999  0.61919010  1.0
  O  O133  1  0.09617306  0.86631690  0.95022290  1.0
  O  O134  1  0.09940413  0.95928769  0.85858020  1.0
  O  O135  1  0.41961508  0.63542219  0.53282586  1.0
  O  O136  1  0.41881420  0.54281543  0.62506318  1.0
  O  O137  1  0.87094548  0.09135299  0.94973905  1.0
  O  O138  1  0.96393980  0.07970446  0.85902809  1.0
  O  O139  1  0.63957552  0.42271824  0.53155562  1.0
  O  O140  1  0.54763411  0.41402018  0.62399673  1.0
  O  O141  1  0.10078525  0.87311312  0.07319634  1.0
  O  O142  1  0.08982249  0.96776675  0.07984306  1.0
  O  O143  1  0.42688561  0.63977687  0.39858005  1.0
  O  O144  1  0.41970251  0.54991408  0.39960517  1.0
  O  O145  1  0.87265129  0.08852930  0.07902785  1.0
  O  O146  1  0.96567031  0.10042622  0.06592369  1.0
  O  O147  1  0.63878459  0.40463251  0.41329579  1.0
  O  O148  1  0.54855152  0.42112270  0.39439891  1.0
  O  O149  1  0.87476893  0.95948205  0.07649157  1.0
  O  O150  1  0.96948376  0.86889583  0.07998108  1.0
  O  O151  1  0.64212333  0.54117681  0.39275249  1.0
  O  O152  1  0.55402481  0.63381515  0.41059659  1.0
  O  O153  1  0.50735330  0.50340631  0.48918395  1.0
  F  F154  1  0.11540906  0.19623877  0.74438836  1.0
  F  F155  1  0.38796597  0.31927133  0.54230680  1.0
  F  F156  1  0.19799886  0.93912129  0.74890720  1.0
  F  F157  1  0.31419656  0.74334198  0.55343334  1.0
  F  F158  1  0.94337812  0.11042986  0.74966814  1.0
  F  F159  1  0.75024846  0.39018398  0.55238896  1.0
  F  F160  1  0.11704289  0.94878772  0.18218022  1.0
  F  F161  1  0.39396257  0.75256678  0.30160110  1.0
  F  F162  1  0.94503038  0.19780956  0.10016607  1.0
  F  F163  1  0.75112034  0.31227296  0.37496335  1.0
  F  F164  1  0.95050275  0.75979212  0.18274815  1.0
  F  F165  1  0.75692321  0.55789739  0.30379041  1.0
