# generated using pymatgen
data_Ag2H15C16(NO2)3
_symmetry_space_group_name_H-M   'P 1'
_cell_length_a   12.35341828
_cell_length_b   16.49965631
_cell_length_c   16.49971044
_cell_angle_alpha   119.99980563
_cell_angle_beta   89.99999640
_cell_angle_gamma   89.99992809
_symmetry_Int_Tables_number   1
_chemical_formula_structural   Ag2H15C16(NO2)3
_chemical_formula_sum   'Ag12 H90 C96 N18 O36'
_cell_volume   2912.52625851
_cell_formula_units_Z   6
loop_
 _symmetry_equiv_pos_site_id
 _symmetry_equiv_pos_as_xyz
  1  'x, y, z'
loop_
 _atom_site_type_symbol
 _atom_site_label
 _atom_site_symmetry_multiplicity
 _atom_site_fract_x
 _atom_site_fract_y
 _atom_site_fract_z
 _atom_site_occupancy
  Ag  Ag0  1  0.58334110  0.34846657  0.65153328  1.0
  Ag  Ag1  1  0.41667682  0.65153816  0.30306476  1.0
  Ag  Ag2  1  0.25000668  0.30306462  0.65152854  1.0
  Ag  Ag3  1  0.08333508  0.65153228  0.34846702  1.0
  Ag  Ag4  1  0.91666989  0.34846971  0.69693603  1.0
  Ag  Ag5  1  0.75000558  0.69693609  0.34847096  1.0
  Ag  Ag6  1  0.58333356  0.60655852  0.39344285  1.0
  Ag  Ag7  1  0.41666654  0.39344295  0.78688458  1.0
  Ag  Ag8  1  0.24999653  0.78688187  0.39343930  1.0
  Ag  Ag9  1  0.08333371  0.39344623  0.60655956  1.0
  Ag  Ag10  1  0.91666479  0.60656319  0.21311760  1.0
  Ag  Ag11  1  0.75000116  0.21311406  0.60655669  1.0
  H  H12  1  0.66666667  0.49718799  0.00000074  1.0
  H  H13  1  0.50000083  0.99998677  0.50280772  1.0
  H  H14  1  0.33333333  0.50281231  0.50280541  1.0
  H  H15  1  0.16666357  0.50281113  0.00000511  1.0
  H  H16  1  0.99999531  0.00000383  0.49719020  1.0
  H  H17  1  0.83332923  0.49719344  0.49718281  1.0
  H  H18  1  0.64976318  0.34578274  0.14978894  1.0
  H  H19  1  0.48307589  0.14979624  0.80400539  1.0
  H  H20  1  0.31643560  0.80400511  0.65421332  1.0
  H  H21  1  0.14975882  0.65420733  0.85020363  1.0
  H  H22  1  0.98309964  0.85022885  0.19599603  1.0
  H  H23  1  0.81642410  0.19599631  0.34578893  1.0
  H  H24  1  0.35023856  0.65421482  0.80400080  1.0
  H  H25  1  0.68356935  0.19599396  0.85021224  1.0
  H  H26  1  0.01690454  0.14980407  0.34579835  1.0
  H  H27  1  0.51688777  0.85021978  0.65423001  1.0
  H  H28  1  0.85023724  0.34577786  0.19599372  1.0
  H  H29  1  0.18356471  0.80400247  0.14978100  1.0
  H  H30  1  0.43678565  0.38181329  0.32390311  1.0
  H  H31  1  0.27012092  0.32390400  0.94208802  1.0
  H  H32  1  0.10345071  0.94208678  0.61818324  1.0
  H  H33  1  0.93678798  0.61818188  0.67609415  1.0
  H  H34  1  0.77011745  0.67609235  0.05791006  1.0
  H  H35  1  0.60345077  0.05791205  0.38181706  1.0
  H  H36  1  0.56321445  0.61818133  0.94208767  1.0
  H  H37  1  0.89654858  0.05791004  0.67609256  1.0
  H  H38  1  0.22987945  0.32390463  0.38181625  1.0
  H  H39  1  0.72988079  0.67609176  0.61818185  1.0
  H  H40  1  0.06321457  0.38181790  0.05791336  1.0
  H  H41  1  0.39654774  0.94208762  0.32390474  1.0
  H  H42  1  0.55625467  0.31302837  0.29258645  1.0
  H  H43  1  0.38958990  0.29258640  0.97955689  1.0
  H  H44  1  0.22292045  0.97955464  0.68696873  1.0
  H  H45  1  0.05625593  0.68696886  0.70741177  1.0
  H  H46  1  0.88958396  0.70741213  0.02043971  1.0
  H  H47  1  0.72292057  0.02044438  0.31303218  1.0
  H  H48  1  0.44374624  0.68696739  0.97955583  1.0
  H  H49  1  0.77707965  0.02044425  0.70741281  1.0
  H  H50  1  0.11041052  0.29258660  0.31303076  1.0
  H  H51  1  0.61041261  0.70740753  0.68696743  1.0
  H  H52  1  0.94374662  0.31303221  0.02044423  1.0
  H  H53  1  0.27707875  0.97955557  0.29258737  1.0
  H  H54  1  0.55652576  0.42404033  0.29856710  1.0
  H  H55  1  0.38986270  0.29856787  0.87452574  1.0
  H  H56  1  0.22319172  0.87452414  0.57595693  1.0
  H  H57  1  0.05652964  0.57595620  0.70142973  1.0
  H  H58  1  0.88985918  0.70143317  0.12547225  1.0
  H  H59  1  0.72319166  0.12547488  0.42404398  1.0
  H  H60  1  0.44347435  0.57595496  0.87452478  1.0
  H  H61  1  0.77680838  0.12547478  0.70143058  1.0
  H  H62  1  0.11014014  0.29856850  0.42404404  1.0
  H  H63  1  0.61013901  0.70142910  0.57595624  1.0
  H  H64  1  0.94347453  0.42404343  0.12547528  1.0
  H  H65  1  0.27680847  0.87452399  0.29856750  1.0
  H  H66  1  0.59651408  0.23920047  0.38865074  1.0
  H  H67  1  0.42984750  0.38864875  0.14944745  1.0
  H  H68  1  0.26318210  0.14944444  0.76079518  1.0
  H  H69  1  0.09651594  0.76079671  0.61134746  1.0
  H  H70  1  0.92985063  0.61134739  0.85055052  1.0
  H  H71  1  0.76318318  0.85055236  0.23920500  1.0
  H  H72  1  0.40348039  0.76079627  0.14944574  1.0
  H  H73  1  0.73681071  0.85055426  0.61135276  1.0
  H  H74  1  0.07014786  0.38864441  0.23920284  1.0
  H  H75  1  0.57014615  0.61134916  0.76079537  1.0
  H  H76  1  0.90347848  0.23920383  0.85055645  1.0
  H  H77  1  0.23681209  0.14944188  0.38864604  1.0
  H  H78  1  0.45701420  0.26546285  0.38998884  1.0
  H  H79  1  0.29034765  0.38998954  0.12452586  1.0
  H  H80  1  0.12368227  0.12452441  0.73453484  1.0
  H  H81  1  0.95701625  0.73453447  0.61000911  1.0
  H  H82  1  0.79035078  0.61000895  0.87547290  1.0
  H  H83  1  0.62368250  0.87547308  0.26546403  1.0
  H  H84  1  0.54298108  0.73453484  0.12452478  1.0
  H  H85  1  0.87631135  0.87547386  0.61001042  1.0
  H  H86  1  0.20964771  0.38999021  0.26546600  1.0
  H  H87  1  0.70964681  0.61000596  0.73453282  1.0
  H  H88  1  0.04297979  0.26546415  0.87547695  1.0
  H  H89  1  0.37631277  0.12452210  0.38998829  1.0
  H  H90  1  0.51512363  0.25895024  0.48576122  1.0
  H  H91  1  0.34846022  0.48576062  0.22680938  1.0
  H  H92  1  0.18179404  0.22680719  0.74104665  1.0
  H  H93  1  0.01512553  0.74104739  0.51423773  1.0
  H  H94  1  0.84846191  0.51423572  0.77319005  1.0
  H  H95  1  0.68179525  0.77318971  0.25895359  1.0
  H  H96  1  0.48486922  0.74104746  0.22680771  1.0
  H  H97  1  0.81819716  0.77319171  0.51424093  1.0
  H  H98  1  0.15153173  0.48575820  0.25895052  1.0
  H  H99  1  0.65153180  0.51423709  0.74104764  1.0
  H  H100  1  0.98486728  0.25895157  0.77319372  1.0
  H  H101  1  0.31820002  0.22680579  0.48575712  1.0
  C  C102  1  0.66666667  0.43118084  0.00000010  1.0
  C  C103  1  0.49999759  0.99998803  0.56881776  1.0
  C  C104  1  0.33333333  0.56881950  0.56881609  1.0
  C  C105  1  0.16666595  0.56882010  0.00000575  1.0
  C  C106  1  0.99999693  0.00000397  0.43118296  1.0
  C  C107  1  0.83333172  0.43118375  0.43117563  1.0
  C  C108  1  0.66020233  0.43133609  0.08488944  1.0
  C  C109  1  0.49352650  0.08489195  0.65355256  1.0
  C  C110  1  0.32687171  0.65355125  0.56865786  1.0
  C  C111  1  0.16019891  0.56865727  0.91510731  1.0
  C  C112  1  0.99353556  0.91512136  0.34644957  1.0
  C  C113  1  0.82686480  0.34644908  0.43133738  1.0
  C  C114  1  0.33980023  0.56866224  0.65354799  1.0
  C  C115  1  0.67313243  0.34644593  0.91511012  1.0
  C  C116  1  0.00646133  0.08489989  0.43134488  1.0
  C  C117  1  0.50645822  0.91511263  0.56866807  1.0
  C  C118  1  0.83979795  0.43133747  0.34644725  1.0
  C  C119  1  0.17312886  0.65354828  0.08488592  1.0
  C  C120  1  0.65754160  0.34631235  0.08447942  1.0
  C  C121  1  0.49085760  0.08447112  0.73816127  1.0
  C  C122  1  0.32421326  0.73816928  0.65368500  1.0
  C  C123  1  0.15753804  0.65368513  0.91552434  1.0
  C  C124  1  0.99087395  0.91553282  0.26183666  1.0
  C  C125  1  0.82420407  0.26183947  0.34631374  1.0
  C  C126  1  0.34246419  0.65368637  0.73815943  1.0
  C  C127  1  0.67579492  0.26183419  0.91552170  1.0
  C  C128  1  0.00912537  0.08449251  0.34631977  1.0
  C  C129  1  0.50911254  0.91551413  0.65369598  1.0
  C  C130  1  0.84245964  0.34631121  0.26182670  1.0
  C  C131  1  0.17578959  0.73816923  0.08448065  1.0
  C  C132  1  0.66666667  0.26315221  0.99999954  1.0
  C  C133  1  0.49997984  0.00002134  0.73686036  1.0
  C  C134  1  0.33333333  0.73684367  0.73684296  1.0
  C  C135  1  0.16666257  0.73683597  0.99998321  1.0
  C  C136  1  0.00000165  0.00001879  0.26316188  1.0
  C  C137  1  0.83333268  0.26314761  0.26315996  1.0
  C  C138  1  0.65508868  0.51984278  0.17887090  1.0
  C  C139  1  0.48841934  0.17886998  0.65902724  1.0
  C  C140  1  0.32175733  0.65902920  0.48015460  1.0
  C  C141  1  0.15508786  0.48015148  0.82113005  1.0
  C  C142  1  0.98842774  0.82113126  0.34096649  1.0
  C  C143  1  0.82175609  0.34097646  0.51984765  1.0
  C  C144  1  0.34490739  0.48015892  0.65903123  1.0
  C  C145  1  0.67823953  0.34096767  0.82112509  1.0
  C  C146  1  0.01157643  0.17888076  0.51984527  1.0
  C  C147  1  0.51157511  0.82112569  0.48016768  1.0
  C  C148  1  0.84490901  0.51984155  0.34096190  1.0
  C  C149  1  0.17824080  0.65903530  0.17887515  1.0
  C  C150  1  0.52560803  0.38506037  0.33134647  1.0
  C  C151  1  0.35894410  0.33134673  0.94628486  1.0
  C  C152  1  0.19227390  0.94628489  0.61493809  1.0
  C  C153  1  0.02561104  0.61493655  0.66865108  1.0
  C  C154  1  0.85894065  0.66865254  0.05371316  1.0
  C  C155  1  0.69227396  0.05371573  0.38506354  1.0
  C  C156  1  0.47439207  0.61493547  0.94628458  1.0
  C  C157  1  0.80772539  0.05371490  0.66865130  1.0
  C  C158  1  0.14105707  0.33134736  0.38506139  1.0
  C  C159  1  0.64105842  0.66864845  0.61493538  1.0
  C  C160  1  0.97439233  0.38506288  0.05371546  1.0
  C  C161  1  0.30772536  0.94628452  0.33134815  1.0
  C  C162  1  0.52924926  0.28115300  0.43408227  1.0
  C  C163  1  0.36258510  0.43408158  0.15292699  1.0
  C  C164  1  0.19591813  0.15292538  0.71884321  1.0
  C  C165  1  0.02925201  0.71884365  0.56591597  1.0
  C  C166  1  0.86258670  0.56591525  0.84707102  1.0
  C  C167  1  0.69591840  0.84707176  0.28115632  1.0
  C  C168  1  0.47074440  0.71884359  0.15292531  1.0
  C  C169  1  0.80407388  0.84707298  0.56591910  1.0
  C  C170  1  0.13740856  0.43408022  0.28115477  1.0
  C  C171  1  0.63740935  0.56591534  0.71884270  1.0
  C  C172  1  0.97074323  0.28115572  0.84707544  1.0
  C  C173  1  0.30407606  0.15292368  0.43407966  1.0
  C  C174  1  0.55649264  0.38284821  0.48161741  1.0
  C  C175  1  0.38982935  0.48161716  0.09876712  1.0
  C  C176  1  0.22316084  0.09876539  0.61714749  1.0
  C  C177  1  0.05649475  0.61714902  0.51838082  1.0
  C  C178  1  0.88982859  0.51838164  0.90123368  1.0
  C  C179  1  0.72315939  0.90123389  0.38285272  1.0
  C  C180  1  0.44350264  0.61714863  0.09876628  1.0
  C  C181  1  0.77683279  0.90123524  0.51838453  1.0
  C  C182  1  0.11016666  0.48161610  0.38284980  1.0
  C  C183  1  0.61016673  0.51837915  0.61714699  1.0
  C  C184  1  0.94350210  0.38285106  0.90123518  1.0
  C  C185  1  0.27683425  0.09876493  0.48161635  1.0
  C  C186  1  0.55640275  0.43232589  0.43250052  1.0
  C  C187  1  0.38973873  0.43250080  0.00017305  1.0
  C  C188  1  0.22306864  0.00017100  0.56766961  1.0
  C  C189  1  0.05640494  0.56767064  0.56749631  1.0
  C  C190  1  0.88973788  0.56749695  0.99982564  1.0
  C  C191  1  0.72306784  0.99982515  0.43232920  1.0
  C  C192  1  0.44359658  0.56766837  0.00017291  1.0
  C  C193  1  0.77692742  0.99982541  0.56749639  1.0
  C  C194  1  0.11026060  0.43250211  0.43232920  1.0
  C  C195  1  0.61026221  0.56749314  0.56766759  1.0
  C  C196  1  0.94359677  0.43233097  0.99982785  1.0
  C  C197  1  0.27692824  0.00017068  0.43250239  1.0
  N  N198  1  0.58332890  0.42697582  0.57302072  1.0
  N  N199  1  0.41666476  0.57302053  0.14604263  1.0
  N  N200  1  0.24999629  0.14604147  0.57302037  1.0
  N  N201  1  0.08332947  0.57302041  0.42697678  1.0
  N  N202  1  0.91666415  0.42697754  0.85395675  1.0
  N  N203  1  0.74999573  0.85395595  0.42697981  1.0
  N  N204  1  0.58333282  0.52362411  0.47637204  1.0
  N  N205  1  0.41666727  0.47637220  0.95274694  1.0
  N  N206  1  0.24999881  0.95274459  0.47637178  1.0
  N  N207  1  0.08333283  0.47637309  0.52362617  1.0
  N  N208  1  0.91666730  0.52362778  0.04725384  1.0
  N  N209  1  0.74999806  0.04725335  0.52362702  1.0
  N  N210  1  0.66666667  0.17366384  0.00000592  1.0
  N  N211  1  0.49999603  0.00000097  0.82633918  1.0
  N  N212  1  0.33333333  0.82633877  0.82633081  1.0
  N  N213  1  0.16667221  0.82633502  0.00000062  1.0
  N  N214  1  0.00000247  0.00000435  0.17366556  1.0
  N  N215  1  0.83334247  0.17366423  0.17366161  1.0
  O  O216  1  0.68876351  0.59607264  0.18696645  1.0
  O  O217  1  0.52210313  0.18696020  0.59088830  1.0
  O  O218  1  0.35542824  0.59089180  0.40392219  1.0
  O  O219  1  0.18876119  0.40392330  0.81303308  1.0
  O  O220  1  0.02210088  0.81303765  0.40910505  1.0
  O  O221  1  0.85543254  0.40910770  0.59607023  1.0
  O  O222  1  0.31123014  0.40392859  0.59089099  1.0
  O  O223  1  0.64456620  0.40910406  0.81303361  1.0
  O  O224  1  0.97790247  0.18696921  0.59608019  1.0
  O  O225  1  0.47790670  0.81303282  0.40392965  1.0
  O  O226  1  0.81123972  0.59607559  0.40910707  1.0
  O  O227  1  0.14456515  0.59089238  0.18696805  1.0
  O  O228  1  0.61705792  0.50761901  0.24392710  1.0
  O  O229  1  0.45039175  0.24392947  0.73630519  1.0
  O  O230  1  0.28373217  0.73630955  0.49237777  1.0
  O  O231  1  0.11706032  0.49237875  0.75607109  1.0
  O  O232  1  0.95040594  0.75607979  0.26368996  1.0
  O  O233  1  0.78372863  0.26369415  0.50762171  1.0
  O  O234  1  0.38292195  0.49237972  0.73630921  1.0
  O  O235  1  0.71626227  0.26368719  0.75606898  1.0
  O  O236  1  0.04959743  0.24393511  0.50762618  1.0
  O  O237  1  0.54959379  0.75606967  0.49238956  1.0
  O  O238  1  0.88292361  0.50761959  0.26368530  1.0
  O  O239  1  0.21626178  0.73630964  0.24392633  1.0
  O  O240  1  0.63192130  0.17467307  0.07090708  1.0
  O  O241  1  0.46523717  0.07093408  0.89625002  1.0
  O  O242  1  0.29858459  0.89622831  0.82532510  1.0
  O  O243  1  0.13191746  0.82531819  0.92907570  1.0
  O  O244  1  0.96525837  0.92911629  0.10378011  1.0
  O  O245  1  0.79858863  0.10375765  0.17468135  1.0
  O  O246  1  0.36809258  0.82532244  0.89623401  1.0
  O  O247  1  0.70142035  0.10376308  0.92908942  1.0
  O  O248  1  0.03477011  0.07093029  0.17468304  1.0
  O  O249  1  0.53474591  0.92911551  0.82534320  1.0
  O  O250  1  0.86808751  0.17466803  0.10377311  1.0
  O  O251  1  0.20142123  0.89622479  0.07089400  1.0
