# generated using pymatgen
data_Zn4H16C40O13
_symmetry_space_group_name_H-M   'P 1'
_cell_length_a   25.70133921
_cell_length_b   25.70130114
_cell_length_c   26.96483768
_cell_angle_alpha   118.45424140
_cell_angle_beta   118.45967651
_cell_angle_gamma   90.00907728
_symmetry_Int_Tables_number   1
_chemical_formula_structural   Zn4H16C40O13
_chemical_formula_sum   'Zn8 H32 C80 O26'
_cell_volume   13159.39658101
_cell_formula_units_Z   2
loop_
 _symmetry_equiv_pos_site_id
 _symmetry_equiv_pos_as_xyz
  1  'x, y, z'
loop_
 _atom_site_type_symbol
 _atom_site_label
 _atom_site_symmetry_multiplicity
 _atom_site_fract_x
 _atom_site_fract_y
 _atom_site_fract_z
 _atom_site_occupancy
  Zn  Zn0  1  0.72118375  0.15903230  0.44234720  1.0
  Zn  Zn1  1  0.27881536  0.84096836  0.55765269  1.0
  Zn  Zn2  1  0.28331523  0.72116333  0.44234764  1.0
  Zn  Zn3  1  0.71668480  0.27883672  0.55765239  1.0
  Zn  Zn4  1  0.72115905  0.28331059  0.44232746  1.0
  Zn  Zn5  1  0.27884098  0.71668946  0.55767258  1.0
  Zn  Zn6  1  0.15901684  0.72116786  0.44232706  1.0
  Zn  Zn7  1  0.84098320  0.27883218  0.55767298  1.0
  H  H8  1  0.38226573  0.79870610  0.76450288  1.0
  H  H9  1  0.61773431  0.20129395  0.23549679  1.0
  H  H10  1  0.96579807  0.38223836  0.76450354  1.0
  H  H11  1  0.03420196  0.61776169  0.23549649  1.0
  H  H12  1  0.38224321  0.96579338  0.76449796  1.0
  H  H13  1  0.61775681  0.03420667  0.23550207  1.0
  H  H14  1  0.79870494  0.38225509  0.76449722  1.0
  H  H15  1  0.20129509  0.61774496  0.23550282  1.0
  H  H16  1  0.04584838  0.11448075  0.57756370  1.0
  H  H17  1  0.95415119  0.88551961  0.42243664  1.0
  H  H18  1  0.46313920  0.04583824  0.57760872  1.0
  H  H19  1  0.53686036  0.95416167  0.42239104  1.0
  H  H20  1  0.53174001  0.46310302  0.57758986  1.0
  H  H21  1  0.46826002  0.53689702  0.42241018  1.0
  H  H22  1  0.11447420  0.53177457  0.57761425  1.0
  H  H23  1  0.88552584  0.46822592  0.42238599  1.0
  H  H24  1  0.46822934  0.88553036  0.42239104  1.0
  H  H25  1  0.53177069  0.11446969  0.57760899  1.0
  H  H26  1  0.88551294  0.95414777  0.42243228  1.0
  H  H27  1  0.11448709  0.04585183  0.57756867  1.0
  H  H28  1  0.95416057  0.53686098  0.42238641  1.0
  H  H29  1  0.04583947  0.46313907  0.57761363  1.0
  H  H30  1  0.53689318  0.46826250  0.42241490  1.0
  H  H31  1  0.46310685  0.53173755  0.57758550  1.0
  H  H32  1  0.44497871  0.86102680  0.88994318  1.0
  H  H33  1  0.55502086  0.13897311  0.11005658  1.0
  H  H34  1  0.02891712  0.44496468  0.88994419  1.0
  H  H35  1  0.97108292  0.55503537  0.11005585  1.0
  H  H36  1  0.44496225  0.02892068  0.88994210  1.0
  H  H37  1  0.55503732  0.97107923  0.11005767  1.0
  H  H38  1  0.86102107  0.44497890  0.88994102  1.0
  H  H39  1  0.13897897  0.55502115  0.11005902  1.0
  C  C40  1  0.07763158  0.92236771  0.49999718  1.0
  C  C41  1  0.42234373  0.92234360  0.49999990  1.0
  C  C42  1  0.01531749  0.51534700  0.03066114  1.0
  C  C43  1  0.48468597  0.98465643  0.96933894  1.0
  C  C44  1  0.51531407  0.01534362  0.03066110  1.0
  C  C45  1  0.98468255  0.48465305  0.96933890  1.0
  C  C46  1  0.84118207  0.34118066  0.68238182  1.0
  C  C47  1  0.15881797  0.65881938  0.31761822  1.0
  C  C48  1  0.34120263  0.84119615  0.68238068  1.0
  C  C49  1  0.65879741  0.15880389  0.31761899  1.0
  C  C50  1  0.65076186  0.15076298  0.50000132  1.0
  C  C51  1  0.34923771  0.84923694  0.49999808  1.0
  C  C52  1  0.34926845  0.65073685  0.50001228  1.0
  C  C53  1  0.65073158  0.34926320  0.49998776  1.0
  C  C54  1  0.84924771  0.34924901  0.49999817  1.0
  C  C55  1  0.15075279  0.65075117  0.50000214  1.0
  C  C56  1  0.15072436  0.84925637  0.49998760  1.0
  C  C57  1  0.92236752  0.07763206  0.50000268  1.0
  C  C58  1  0.84927520  0.15074399  0.50001236  1.0
  C  C59  1  0.06436805  0.02623086  0.54383401  1.0
  C  C60  1  0.92234864  0.42234887  0.49999941  1.0
  C  C61  1  0.93563105  0.97376848  0.45616602  1.0
  C  C62  1  0.51761968  0.06435581  0.54383169  1.0
  C  C63  1  0.48238034  0.93564424  0.45616834  1.0
  C  C64  1  0.47947919  0.51761626  0.54384012  1.0
  C  C65  1  0.52052130  0.48238392  0.45616019  1.0
  C  C66  1  0.02620904  0.47948056  0.54384064  1.0
  C  C67  1  0.97379100  0.52051948  0.45615977  1.0
  C  C68  1  0.52052402  0.97378807  0.45616829  1.0
  C  C69  1  0.47947601  0.02621153  0.54383117  1.0
  C  C70  1  0.97377463  0.93563621  0.45617157  1.0
  C  C71  1  0.07765094  0.57765104  0.50000073  1.0
  C  C72  1  0.02622402  0.06436343  0.54382839  1.0
  C  C73  1  0.93563991  0.48236861  0.45615881  1.0
  C  C74  1  0.06436012  0.51763144  0.54384122  1.0
  C  C75  1  0.48238236  0.52052064  0.45615283  1.0
  C  C76  1  0.51761813  0.47947954  0.54384710  1.0
  C  C77  1  0.42237002  0.57763428  0.50000326  1.0
  C  C78  1  0.57762955  0.42236563  0.49999651  1.0
  C  C79  1  0.03871489  0.96128713  0.49999834  1.0
  C  C80  1  0.96128423  0.03871265  0.50000190  1.0
  C  C81  1  0.53872829  0.03872812  0.49999979  1.0
  C  C82  1  0.46127175  0.96127149  0.50000005  1.0
  C  C83  1  0.46128904  0.53871732  0.50000204  1.0
  C  C84  1  0.53871099  0.46128273  0.49999799  1.0
  C  C85  1  0.96127618  0.46127573  0.49999962  1.0
  C  C86  1  0.03872384  0.53872431  0.50000041  1.0
  C  C87  1  0.57765631  0.07765644  0.50000014  1.0
  C  C88  1  0.43115061  0.88378632  0.86230191  1.0
  C  C89  1  0.56884943  0.11621373  0.13769813  1.0
  C  C90  1  0.97851679  0.43115150  0.86230229  1.0
  C  C91  1  0.02148324  0.56884811  0.13769755  1.0
  C  C92  1  0.43116204  0.97851820  0.86230054  1.0
  C  C93  1  0.56883753  0.02148171  0.13769959  1.0
  C  C94  1  0.88378298  0.43113830  0.86230040  1.0
  C  C95  1  0.11621705  0.56886174  0.13769963  1.0
  C  C96  1  0.88884514  0.11115044  0.49999099  1.0
  C  C97  1  0.11115351  0.88884875  0.50000840  1.0
  C  C98  1  0.38881857  0.88881863  0.49999972  1.0
  C  C99  1  0.61118100  0.11118128  0.49999967  1.0
  C  C100  1  0.61115935  0.38885429  0.50000846  1.0
  C  C101  1  0.38884069  0.61114575  0.49999158  1.0
  C  C102  1  0.11117517  0.61117574  0.50000073  1.0
  C  C103  1  0.88882486  0.38882387  0.49999947  1.0
  C  C104  1  0.37862378  0.87860095  0.75720040  1.0
  C  C105  1  0.62137626  0.12139910  0.24279927  1.0
  C  C106  1  0.87860137  0.37857828  0.75720077  1.0
  C  C107  1  0.12139867  0.62142177  0.24279927  1.0
  C  C108  1  0.39633176  0.84910455  0.79263927  1.0
  C  C109  1  0.60366826  0.15089550  0.20736039  1.0
  C  C110  1  0.94353451  0.39630886  0.79263961  1.0
  C  C111  1  0.05646552  0.60369119  0.20736043  1.0
  C  C112  1  0.39633254  0.94353281  0.79263760  1.0
  C  C113  1  0.60366703  0.05646755  0.20736199  1.0
  C  C114  1  0.84910488  0.39630537  0.79263712  1.0
  C  C115  1  0.15089515  0.60369423  0.20736271  1.0
  C  C116  1  0.44919050  0.94918236  0.89836395  1.0
  C  C117  1  0.55080953  0.05081769  0.10163608  1.0
  C  C118  1  0.94918152  0.44917336  0.89836366  1.0
  C  C119  1  0.05081852  0.55082668  0.10163638  1.0
  O  O120  1  0.75000664  0.25000654  0.49999972  1.0
  O  O121  1  0.21769663  0.67336537  0.34673118  1.0
  O  O122  1  0.32664980  0.78231682  0.65327053  1.0
  O  O123  1  0.67335069  0.21768337  0.34672940  1.0
  O  O124  1  0.87095595  0.32662338  0.65327038  1.0
  O  O125  1  0.12904409  0.67337667  0.34672966  1.0
  O  O126  1  0.32663585  0.87096698  0.65326807  1.0
  O  O127  1  0.67336417  0.12903307  0.34673196  1.0
  O  O128  1  0.78230293  0.32663410  0.65326875  1.0
  O  O129  1  0.24999294  0.74999382  0.50000025  1.0
  O  O130  1  0.66462491  0.20889897  0.54093134  1.0
  O  O131  1  0.33537512  0.79110108  0.45906832  1.0
  O  O132  1  0.33204605  0.66459853  0.54093299  1.0
  O  O133  1  0.66795352  0.33540138  0.45906677  1.0
  O  O134  1  0.87632419  0.33202517  0.54092079  1.0
  O  O135  1  0.12367585  0.66797532  0.45907982  1.0
  O  O136  1  0.20887472  0.87632247  0.54090580  1.0
  O  O137  1  0.79112438  0.12367775  0.45909389  1.0
  O  O138  1  0.12366542  0.79111296  0.45906667  1.0
  O  O139  1  0.87633414  0.20888695  0.54093309  1.0
  O  O140  1  0.79110558  0.33540390  0.45908026  1.0
  O  O141  1  0.20889446  0.66459615  0.54092015  1.0
  O  O142  1  0.33541610  0.66796932  0.45909431  1.0
  O  O143  1  0.66458393  0.33203073  0.54090610  1.0
  O  O144  1  0.66796816  0.12369171  0.45906708  1.0
  O  O145  1  0.33203141  0.87630820  0.54093231  1.0
