# generated using pymatgen
data_Zn4H34C39O16
_symmetry_space_group_name_H-M   'P 1'
_cell_length_a   18.16714319
_cell_length_b   18.23583111
_cell_length_c   18.29299787
_cell_angle_alpha   60.77908286
_cell_angle_beta   61.17333446
_cell_angle_gamma   60.94780404
_symmetry_Int_Tables_number   1
_chemical_formula_structural   Zn4H34C39O16
_chemical_formula_sum   'Zn8 H68 C78 O32'
_cell_volume   4378.54359345
_cell_formula_units_Z   2
loop_
 _symmetry_equiv_pos_site_id
 _symmetry_equiv_pos_as_xyz
  1  'x, y, z'
loop_
 _atom_site_type_symbol
 _atom_site_label
 _atom_site_symmetry_multiplicity
 _atom_site_fract_x
 _atom_site_fract_y
 _atom_site_fract_z
 _atom_site_occupancy
  Zn  Zn0  1  0.88128197  0.20980528  0.70562436  1.0
  Zn  Zn1  1  0.11774539  0.79683433  0.29178584  1.0
  Zn  Zn2  1  0.70723108  0.20649843  0.70622273  1.0
  Zn  Zn3  1  0.29259163  0.79915751  0.29324604  1.0
  Zn  Zn4  1  0.70635799  0.38007483  0.71033199  1.0
  Zn  Zn5  1  0.29461551  0.62616904  0.28896058  1.0
  Zn  Zn6  1  0.70963810  0.20815127  0.88144616  1.0
  Zn  Zn7  1  0.29239080  0.79215843  0.11871532  1.0
  H  H8  1  0.23272456  0.17433088  0.57242458  1.0
  H  H9  1  0.46861489  0.43933681  0.42920705  1.0
  H  H10  1  0.43838795  0.66666667  0.46978424  1.0
  H  H11  1  0.56123165  0.33947931  0.53066214  1.0
  H  H12  1  0.06762961  0.05586888  0.54699942  1.0
  H  H13  1  0.93233157  0.94872493  0.45344901  1.0
  H  H14  1  0.16483280  0.95500986  0.45476650  1.0
  H  H15  1  0.83526962  0.04850722  0.54662374  1.0
  H  H16  1  0.16844461  0.06357389  0.60610113  1.0
  H  H17  1  0.75480913  0.91542606  0.37098218  1.0
  H  H18  1  0.07787588  0.99962166  0.75938144  1.0
  H  H19  1  0.79838007  0.75093588  0.41299765  1.0
  H  H20  1  0.83136223  0.00264882  0.22156478  1.0
  H  H21  1  0.11282588  0.15792058  0.84630999  1.0
  H  H22  1  0.99864839  0.76217068  0.15705731  1.0
  H  H23  1  0.20493518  0.22062208  0.69382492  1.0
  H  H24  1  0.92102141  0.67493767  0.30583925  1.0
  H  H25  1  0.93894572  0.66599376  0.45258963  1.0
  H  H26  1  0.06296993  0.33849613  0.56156402  1.0
  H  H27  1  0.30682072  0.89486716  0.88318665  1.0
  H  H28  1  0.24822157  0.96620123  0.80486498  1.0
  H  H29  1  0.22044600  0.79321091  0.95274601  1.0
  H  H30  1  0.40347275  0.65517015  0.94416622  1.0
  H  H31  1  0.15249290  0.86690316  0.88462631  1.0
  H  H32  1  0.28390895  0.84808783  0.74870411  1.0
  H  H33  1  0.26716664  0.74509299  0.82426593  1.0
  H  H34  1  0.35392489  0.77129661  0.81513249  1.0
  H  H35  1  0.86753125  0.86943679  0.06175277  1.0
  H  H36  1  0.82740763  0.95729490  0.97295672  1.0
  H  H37  1  0.71549042  0.90417117  0.16894386  1.0
  H  H38  1  0.67485673  0.99334334  0.08217826  1.0
  H  H39  1  0.71789804  0.88539845  0.00844394  1.0
  H  H40  1  0.64412433  0.85643874  0.11742951  1.0
  H  H41  1  0.58941537  0.34444030  0.05678202  1.0
  H  H42  1  0.75957576  0.79565360  0.09460192  1.0
  H  H43  1  0.80934078  0.64104318  0.64268876  1.0
  H  H44  1  0.79372829  0.53513849  0.69249846  1.0
  H  H45  1  0.66677234  0.70753125  0.60484982  1.0
  H  H46  1  0.65010845  0.60282891  0.66732751  1.0
  H  H47  1  0.64926195  0.60930435  0.80321386  1.0
  H  H48  1  0.56389334  0.69913487  0.76184145  1.0
  H  H49  1  0.66173307  0.71631289  0.74084182  1.0
  H  H50  1  0.27880451  0.30871366  0.50719044  1.0
  H  H51  1  0.17492060  0.34227256  0.58753354  1.0
  H  H52  1  0.56044145  0.03518552  0.83563752  1.0
  H  H53  1  0.30926878  0.44363551  0.47079437  1.0
  H  H54  1  0.20405054  0.48318904  0.54374197  1.0
  H  H55  1  0.24498659  0.35317986  0.67379493  1.0
  H  H56  1  0.32554158  0.40811915  0.61364045  1.0
  H  H57  1  0.34962890  0.30700646  0.60239371  1.0
  H  H58  1  0.40356700  0.62054222  0.76140611  1.0
  H  H59  1  0.35197607  0.58656204  0.87845283  1.0
  H  H60  1  0.48951114  0.46191411  0.77036693  1.0
  H  H61  1  0.43735161  0.42668497  0.88652510  1.0
  H  H62  1  0.28749318  0.49517927  0.86459202  1.0
  H  H63  1  0.43294012  0.97460566  0.16067579  1.0
  H  H64  1  0.36155618  0.41590793  0.80938448  1.0
  H  H65  1  0.33951721  0.53104771  0.74808337  1.0
  H  H66  1  0.51367624  0.32422881  0.28243088  1.0
  H  H67  1  0.51733618  0.30056152  0.19694194  1.0
  H  H68  1  0.35214807  0.41091803  0.30880915  1.0
  H  H69  1  0.35500674  0.39752455  0.21849309  1.0
  H  H70  1  0.38998312  0.23225588  0.29568537  1.0
  H  H71  1  0.29204639  0.29027011  0.36402788  1.0
  H  H72  1  0.39426346  0.24173696  0.38549536  1.0
  H  H73  1  0.45918687  0.94269546  0.93075902  1.0
  H  H74  1  0.53334026  0.06777738  0.06554185  1.0
  H  H75  1  0.53209066  0.56695345  0.57025642  1.0
  C  C76  1  0.61432046  0.11012491  0.88834014  1.0
  C  C77  1  0.91218998  0.99497270  0.03079449  1.0
  C  C78  1  0.05384385  0.93231471  0.05454785  1.0
  C  C79  1  0.94920861  0.04274200  0.94158103  1.0
  C  C80  1  0.96322855  0.94038965  0.08806952  1.0
  C  C81  1  0.04086958  0.03168124  0.90694183  1.0
  C  C82  1  0.90809680  0.54523227  0.53422770  1.0
  C  C83  1  0.09427918  0.45992741  0.48146493  1.0
  C  C84  1  0.96629949  0.59381286  0.47671103  1.0
  C  C85  1  0.03603937  0.41087236  0.53839084  1.0
  C  C86  1  0.05882337  0.55370755  0.44870806  1.0
  C  C87  1  0.38178731  0.89671044  0.10866473  1.0
  C  C88  1  0.94354500  0.45093917  0.56512011  1.0
  C  C89  1  0.49224357  0.53468548  0.91443147  1.0
  C  C90  1  0.49634792  0.46374007  0.08924603  1.0
  C  C91  1  0.88790721  0.39122044  0.62051072  1.0
  C  C92  1  0.11418087  0.61341493  0.38773070  1.0
  C  C93  1  0.44379810  0.58653551  0.96921233  1.0
  C  C94  1  0.54669028  0.41233827  0.03358720  1.0
  C  C95  1  0.44483441  0.55290022  0.05593776  1.0
  C  C96  1  0.54659223  0.44660584  0.94650979  1.0
  C  C97  1  0.53192387  0.02155500  0.90686566  1.0
  C  C98  1  0.12413701  0.13804692  0.79344149  1.0
  C  C99  1  0.46107833  0.98858658  0.08940572  1.0
  C  C100  1  0.47583479  0.97044607  0.95950119  1.0
  C  C101  1  0.51690357  0.03991051  0.03674430  1.0
  C  C102  1  0.44045332  0.95335972  0.05116551  1.0
  C  C103  1  0.55310627  0.05617603  0.94522395  1.0
  C  C104  1  0.51713985  0.53987071  0.53941875  1.0
  C  C105  1  0.48258704  0.46631110  0.46093905  1.0
  C  C106  1  0.46552635  0.59500546  0.48374006  1.0
  C  C107  1  0.53387405  0.41113039  0.51689015  1.0
  C  C108  1  0.44814327  0.55845085  0.44411754  1.0
  C  C109  1  0.94507809  0.79577334  0.20410148  1.0
  C  C110  1  0.55162399  0.44773331  0.55615168  1.0
  C  C111  1  0.03896620  0.03169846  0.52623870  1.0
  C  C112  1  0.96108832  0.97230982  0.47468672  1.0
  C  C113  1  0.09261913  0.97611628  0.47527358  1.0
  C  C114  1  0.90747363  0.02754968  0.52599870  1.0
  C  C115  1  0.88840445  0.11777106  0.60624478  1.0
  C  C116  1  0.11164182  0.88846304  0.39231307  1.0
  C  C117  1  0.05394583  0.94650104  0.44890955  1.0
  C  C118  1  0.94610167  0.05780670  0.55171768  1.0
  C  C119  1  0.60801536  0.38870575  0.89023639  1.0
  C  C120  1  0.17610969  0.17318248  0.70749646  1.0
  C  C121  1  0.38888104  0.61301784  0.11021822  1.0
  C  C122  1  0.60833398  0.38909624  0.61476456  1.0
  C  C123  1  0.39282891  0.61714143  0.38405907  1.0
  C  C124  1  0.88940519  0.10662601  0.88600319  1.0
  C  C125  1  0.10955299  0.87745687  0.11464202  1.0
  C  C126  1  0.15621952  0.08463482  0.65859187  1.0
  C  C127  1  0.80810017  0.88161378  0.32403728  1.0
  C  C128  1  0.10508484  0.04872967  0.74468046  1.0
  C  C129  1  0.85118157  0.93074983  0.24034406  1.0
  C  C130  1  0.08804240  0.07538873  0.81311269  1.0
  C  C131  1  0.90119869  0.74681845  0.28755211  1.0
  C  C132  1  0.92026261  0.88826388  0.17946567  1.0
  C  C133  1  0.24300227  0.91902458  0.87278403  1.0
  C  C134  1  0.22040237  0.84209243  0.88652347  1.0
  C  C135  1  0.28504668  0.79933686  0.81480014  1.0
  C  C136  1  0.81613272  0.93453677  0.04462763  1.0
  C  C137  1  0.72406869  0.92683086  0.09831079  1.0
  C  C138  1  0.71071243  0.86248938  0.07870156  1.0
  C  C139  1  0.77899524  0.60141619  0.64220289  1.0
  C  C140  1  0.67938790  0.64674567  0.66139282  1.0
  C  C141  1  0.63632684  0.66935567  0.74637973  1.0
  C  C142  1  0.19216513  0.14687612  0.63969120  1.0
  C  C143  1  0.22399260  0.36669444  0.52458990  1.0
  C  C144  1  0.25863330  0.42214015  0.53340553  1.0
  C  C145  1  0.29667087  0.36978466  0.60995896  1.0
  C  C146  1  0.41241067  0.56824647  0.82405521  1.0
  C  C147  1  0.42776202  0.47849789  0.82382177  1.0
  C  C148  1  0.34974912  0.48027616  0.81084772  1.0
  C  C149  1  0.48347818  0.34958961  0.23147612  1.0
  C  C150  1  0.38389778  0.36451237  0.27211469  1.0
  C  C151  1  0.36406413  0.27732033  0.33253334  1.0
  C  C152  1  0.83235049  0.78954253  0.34780909  1.0
  C  C153  1  0.09244414  0.97600083  0.96441506  1.0
  O  O154  1  0.75049923  0.25023184  0.75139850  1.0
  O  O155  1  0.19791669  0.57806001  0.37117763  1.0
  O  O156  1  0.64419560  0.12592151  0.92782683  1.0
  O  O157  1  0.35431484  0.87758599  0.06969994  1.0
  O  O158  1  0.92872915  0.30780207  0.65010477  1.0
  O  O159  1  0.07222774  0.69625240  0.35790146  1.0
  O  O160  1  0.80483711  0.13127526  0.63532478  1.0
  O  O161  1  0.19551331  0.87168947  0.36696547  1.0
  O  O162  1  0.64341036  0.42674836  0.80857542  1.0
  O  O163  1  0.35341909  0.57799207  0.19261340  1.0
  O  O164  1  0.63532114  0.30549018  0.63051310  1.0
  O  O165  1  0.24872394  0.75595203  0.24837185  1.0
  O  O166  1  0.36564934  0.70078705  0.36830287  1.0
  O  O167  1  0.81250477  0.15344822  0.92274676  1.0
  O  O168  1  0.18842631  0.82805721  0.08542135  1.0
  O  O169  1  0.62507706  0.42804579  0.64429369  1.0
  O  O170  1  0.37727326  0.57816160  0.35359875  1.0
  O  O171  1  0.91992317  0.11032092  0.80558169  1.0
  O  O172  1  0.07305079  0.88418046  0.19168496  1.0
  O  O173  1  0.18050234  0.96727971  0.93510535  1.0
  O  O174  1  0.82532603  0.99768523  0.06319277  1.0
  O  O175  1  0.81878224  0.59262309  0.55541957  1.0
  O  O176  1  0.92736093  0.15060986  0.61922557  1.0
  O  O177  1  0.18391855  0.41518007  0.45528588  1.0
  O  O178  1  0.48702259  0.57172775  0.83029120  1.0
  O  O179  1  0.50261057  0.43162510  0.17183819  1.0
  O  O180  1  0.07232144  0.86080055  0.37394615  1.0
  O  O181  1  0.62176216  0.30515682  0.92959881  1.0
  O  O182  1  0.37899873  0.69579675  0.06870027  1.0
  O  O183  1  0.63179678  0.13557870  0.80488094  1.0
  O  O184  1  0.36464455  0.87219036  0.19192767  1.0
  O  O185  1  0.80472484  0.42728701  0.63278188  1.0
