# generated using pymatgen
data_Cu3H9C15N16
_symmetry_space_group_name_H-M   'P 1'
_cell_length_a   24.24905124
_cell_length_b   26.86915425
_cell_length_c   26.87969009
_cell_angle_alpha   92.64840751
_cell_angle_beta   90.68659608
_cell_angle_gamma   102.19556083
_symmetry_Int_Tables_number   1
_chemical_formula_structural   Cu3H9C15N16
_chemical_formula_sum   'Cu12 H36 C60 N64'
_cell_volume   17095.73707469
_cell_formula_units_Z   4
loop_
 _symmetry_equiv_pos_site_id
 _symmetry_equiv_pos_as_xyz
  1  'x, y, z'
loop_
 _atom_site_type_symbol
 _atom_site_label
 _atom_site_symmetry_multiplicity
 _atom_site_fract_x
 _atom_site_fract_y
 _atom_site_fract_z
 _atom_site_occupancy
  Cu  Cu0  1  0.42412336  0.34595063  0.58426563  1.0
  Cu  Cu1  1  0.40788394  0.45109829  0.62892882  1.0
  Cu  Cu2  1  0.44550818  0.37482343  0.70056756  1.0
  Cu  Cu3  1  0.59756816  0.84660579  0.91614893  1.0
  Cu  Cu4  1  0.68171283  0.94026852  0.87418354  1.0
  Cu  Cu5  1  0.56141346  0.89049932  0.81821103  1.0
  Cu  Cu6  1  0.92313170  0.19239809  0.41210868  1.0
  Cu  Cu7  1  0.85157517  0.08005669  0.38264928  1.0
  Cu  Cu8  1  0.97600671  0.11646297  0.34410621  1.0
  Cu  Cu9  1  0.00821600  0.60469006  0.05949815  1.0
  Cu  Cu10  1  0.08507695  0.54524593  0.10845033  1.0
  Cu  Cu11  1  0.01488911  0.60036054  0.18289606  1.0
  H  H12  1  0.35341127  0.34215362  0.48101754  1.0
  H  H13  1  0.36757966  0.49949674  0.53316306  1.0
  H  H14  1  0.52557182  0.29964896  0.72737159  1.0
  H  H15  1  0.48955472  0.25640012  0.57113702  1.0
  H  H16  1  0.37336883  0.53034329  0.70538880  1.0
  H  H17  1  0.40807966  0.41886662  0.80625610  1.0
  H  H18  1  0.66252653  0.82900101  0.01329100  1.0
  H  H19  1  0.78261444  0.95613923  0.95739267  1.0
  H  H20  1  0.44388907  0.81014291  0.79119184  1.0
  H  H21  1  0.49727395  0.75236217  0.92762000  1.0
  H  H22  1  0.72712228  0.02946150  0.80213918  1.0
  H  H23  1  0.56409899  0.96559420  0.73211693  1.0
  H  H24  1  0.84399439  0.22872455  0.49252578  1.0
  H  H25  1  0.74945234  0.07539434  0.45603720  1.0
  H  H26  1  0.09564501  0.18644862  0.32248622  1.0
  H  H27  1  0.01993291  0.29332590  0.40951327  1.0
  H  H28  1  0.81281670  0.97552186  0.31792611  1.0
  H  H29  1  0.98626786  0.02183082  0.27246878  1.0
  H  H30  1  0.05955899  0.61508987  0.94752334  1.0
  H  H31  1  0.17020238  0.53436090  0.02326634  1.0
  H  H32  1  0.94519375  0.68544256  0.21010321  1.0
  H  H33  1  0.92134012  0.67236329  0.04974076  1.0
  H  H34  1  0.14414221  0.48571028  0.18018794  1.0
  H  H35  1  0.05561391  0.56178083  0.28894284  1.0
  H  H36  1  0.72872928  0.83595115  0.10110560  1.0
  H  H37  1  0.26003248  0.35905642  0.41615472  1.0
  H  H38  1  0.25784526  0.59519318  0.97108964  1.0
  H  H39  1  0.67514703  0.08896766  0.53827778  1.0
  H  H40  1  0.90494036  0.79019469  0.19741672  1.0
  H  H41  1  0.55293491  0.17541349  0.58347404  1.0
  H  H42  1  0.12396176  0.37170029  0.39282674  1.0
  H  H43  1  0.39508259  0.67953017  0.92670223  1.0
  H  H44  1  0.79783070  0.89892840  0.23203804  1.0
  H  H45  1  0.31144431  0.56915247  0.78456359  1.0
  H  H46  1  0.58154199  0.05044588  0.66821862  1.0
  H  H47  1  0.20879522  0.45868494  0.25419270  1.0
  C  C48  1  0.36143423  0.37898408  0.50120586  1.0
  C  C49  1  0.34707142  0.42479060  0.48850763  1.0
  C  C50  1  0.36936948  0.45961986  0.52780559  1.0
  C  C51  1  0.51039634  0.29497514  0.68896238  1.0
  C  C52  1  0.52284766  0.26222500  0.65050002  1.0
  C  C53  1  0.49196785  0.27240248  0.60912723  1.0
  C  C54  1  0.38472668  0.49841358  0.72329150  1.0
  C  C55  1  0.38137881  0.48589720  0.77339229  1.0
  C  C56  1  0.40284689  0.44136793  0.77475060  1.0
  C  C57  1  0.68544125  0.86073278  0.99315755  1.0
  C  C58  1  0.73842053  0.89251379  0.00375621  1.0
  C  C59  1  0.74692443  0.92552607  0.96422990  1.0
  C  C60  1  0.46502040  0.80303602  0.82510698  1.0
  C  C61  1  0.44907579  0.76385149  0.85816686  1.0
  C  C62  1  0.49191873  0.77345888  0.89506119  1.0
  C  C63  1  0.68563074  0.00737182  0.79113707  1.0
  C  C64  1  0.65022782  0.01419202  0.75145094  1.0
  C  C65  1  0.60226751  0.97502634  0.75520327  1.0
  C  C66  1  0.82757088  0.19037407  0.47706949  1.0
  C  C67  1  0.77958102  0.15490482  0.49064140  1.0
  C  C68  1  0.77895235  0.11198025  0.45871019  1.0
  C  C69  1  0.06903385  0.20570726  0.34512152  1.0
  C  C70  1  0.07930345  0.25674295  0.36325152  1.0
  C  C71  1  0.03065404  0.26070096  0.38961230  1.0
  C  C72  1  0.85642584  0.99402959  0.31219209  1.0
  C  C73  1  0.89663077  0.97947388  0.28069969  1.0
  C  C74  1  0.94532006  0.01790262  0.28943404  1.0
  C  C75  1  0.08031986  0.59425975  0.97286412  1.0
  C  C76  1  0.13117425  0.57764238  0.96760735  1.0
  C  C77  1  0.13722683  0.55346315  0.01188526  1.0
  C  C78  1  0.94507312  0.67624683  0.17033820  1.0
  C  C79  1  0.91910107  0.69564773  0.13087441  1.0
  C  C80  1  0.93276843  0.66886584  0.08836426  1.0
  C  C81  1  0.11878737  0.50835586  0.20036347  1.0
  C  C82  1  0.11157008  0.51473465  0.25176615  1.0
  C  C83  1  0.07316069  0.54714621  0.25580007  1.0
  C  C84  1  0.77584561  0.88947345  0.04530540  1.0
  C  C85  1  0.76531098  0.86151304  0.08729953  1.0
  C  C86  1  0.31450972  0.43431890  0.44588545  1.0
  C  C87  1  0.27544764  0.39988796  0.41625842  1.0
  C  C88  1  0.17389049  0.58677124  0.92984083  1.0
  C  C89  1  0.23130943  0.59393931  0.93821102  1.0
  C  C90  1  0.74240070  0.16127601  0.53100114  1.0
  C  C91  1  0.69669394  0.12754721  0.54905984  1.0
  C  C92  1  0.88671405  0.73512526  0.12938405  1.0
  C  C93  1  0.88421336  0.77621547  0.16213516  1.0
  C  C94  1  0.56101053  0.22773374  0.65341873  1.0
  C  C95  1  0.57072220  0.19023285  0.61964186  1.0
  C  C96  1  0.12820461  0.29584068  0.35318153  1.0
  C  C97  1  0.14270005  0.34675493  0.36866321  1.0
  C  C98  1  0.40094446  0.72160118  0.85482302  1.0
  C  C99  1  0.38183700  0.68584424  0.88935286  1.0
  C  C100  1  0.89018688  0.93752161  0.24388630  1.0
  C  C101  1  0.84242786  0.90439832  0.22466134  1.0
  C  C102  1  0.36201212  0.51401011  0.81435248  1.0
  C  C103  1  0.33107042  0.55167748  0.81352925  1.0
  C  C104  1  0.66063865  0.05353060  0.71572638  1.0
  C  C105  1  0.62498346  0.06561265  0.67977135  1.0
  C  C106  1  0.13807168  0.49077414  0.28980151  1.0
  C  C107  1  0.18200898  0.46557264  0.28453013  1.0
  N  N108  1  0.39482372  0.43605441  0.56168023  1.0
  N  N109  1  0.39006316  0.38605862  0.54516273  1.0
  N  N110  1  0.46319140  0.30866782  0.62204989  1.0
  N  N111  1  0.47462111  0.32258171  0.67159917  1.0
  N  N112  1  0.41764494  0.42830392  0.72854953  1.0
  N  N113  1  0.40656508  0.46376337  0.69672617  1.0
  N  N114  1  0.70193970  0.91409237  0.93253118  1.0
  N  N115  1  0.66390770  0.87393001  0.95052791  1.0
  N  N116  1  0.53052703  0.81536259  0.88471400  1.0
  N  N117  1  0.51392289  0.83372719  0.84142280  1.0
  N  N118  1  0.60862046  0.94693685  0.79432789  1.0
  N  N119  1  0.66032422  0.96706231  0.81666950  1.0
  N  N120  1  0.82359636  0.12117886  0.42845497  1.0
  N  N121  1  0.85370832  0.16981477  0.43993419  1.0
  N  N122  1  0.99408759  0.21521323  0.38717936  1.0
  N  N123  1  0.01795080  0.18117515  0.35965416  1.0
  N  N124  1  0.93463317  0.05286726  0.32342645  1.0
  N  N125  1  0.87954696  0.03809964  0.33764587  1.0
  N  N126  1  0.09345729  0.55583538  0.04153437  1.0
  N  N127  1  0.05817680  0.58122863  0.01752675  1.0
  N  N128  1  0.96487061  0.63619649  0.10145492  1.0
  N  N129  1  0.97250982  0.64054192  0.15242149  1.0
  N  N130  1  0.05893642  0.55928555  0.20983590  1.0
  N  N131  1  0.08721208  0.53506062  0.17561569  1.0
  N  N132  1  0.82711697  0.84436759  0.15339422  1.0
  N  N133  1  0.22234005  0.41397857  0.34014697  1.0
  N  N134  1  0.31059512  0.60779226  0.88394023  1.0
  N  N135  1  0.63765145  0.13368981  0.62119164  1.0
  N  N136  1  0.85703972  0.90249346  0.08690537  1.0
  N  N137  1  0.83205593  0.91435468  0.04738884  1.0
  N  N138  1  0.81614957  0.87094448  0.11196839  1.0
  N  N139  1  0.28201966  0.47975247  0.39099568  1.0
  N  N140  1  0.31681165  0.48233371  0.42941504  1.0
  N  N141  1  0.25648765  0.43030104  0.38407177  1.0
  N  N142  1  0.21235699  0.59830143  0.85610069  1.0
  N  N143  1  0.16453236  0.59011742  0.87929531  1.0
  N  N144  1  0.25344521  0.60096982  0.89213322  1.0
  N  N145  1  0.71400859  0.20147038  0.59602761  1.0
  N  N146  1  0.75046817  0.20596144  0.56037793  1.0
  N  N147  1  0.68098788  0.15401266  0.58901568  1.0
  N  N148  1  0.83223287  0.77865850  0.09255570  1.0
  N  N149  1  0.85439918  0.73830058  0.08775446  1.0
  N  N150  1  0.85110482  0.80193728  0.13679358  1.0
  N  N151  1  0.62814730  0.19572524  0.68751981  1.0
  N  N152  1  0.59633542  0.22887268  0.69439230  1.0
  N  N153  1  0.61245017  0.17201689  0.64229072  1.0
  N  N154  1  0.20678866  0.32691901  0.31442837  1.0
  N  N155  1  0.16908752  0.28568590  0.32081261  1.0
  N  N156  1  0.19138775  0.36446540  0.34362506  1.0
  N  N157  1  0.32839774  0.66818379  0.81854727  1.0
  N  N158  1  0.36659236  0.70936067  0.81253226  1.0
  N  N159  1  0.33678047  0.65398093  0.86584273  1.0
  N  N160  1  0.91994239  0.89075232  0.18441513  1.0
  N  N161  1  0.93619846  0.92665858  0.21875191  1.0
  N  N162  1  0.86251185  0.87598126  0.18839415  1.0
  N  N163  1  0.35652695  0.53964946  0.89280052  1.0
  N  N164  1  0.37564345  0.50762973  0.86353741  1.0
  N  N165  1  0.32868103  0.56636505  0.86270028  1.0
  N  N166  1  0.71026346  0.11965612  0.67905402  1.0
  N  N167  1  0.71221475  0.08705234  0.71314799  1.0
  N  N168  1  0.65745053  0.10637823  0.65832512  1.0
  N  N169  1  0.15016349  0.46095919  0.36327628  1.0
  N  N170  1  0.12069159  0.48735099  0.33860252  1.0
  N  N171  1  0.18804932  0.44800111  0.33047511  1.0
