# generated using pymatgen
data_Al2H16C22N2O11
_symmetry_space_group_name_H-M   'P 1'
_cell_length_a   6.68546755
_cell_length_b   11.13833615
_cell_length_c   15.27706835
_cell_angle_alpha   79.15036610
_cell_angle_beta   78.07859538
_cell_angle_gamma   72.89564924
_symmetry_Int_Tables_number   1
_chemical_formula_structural   Al2H16C22N2O11
_chemical_formula_sum   'Al2 H16 C22 N2 O11'
_cell_volume   1053.90967324
_cell_formula_units_Z   1
loop_
 _symmetry_equiv_pos_site_id
 _symmetry_equiv_pos_as_xyz
  1  'x, y, z'
loop_
 _atom_site_type_symbol
 _atom_site_label
 _atom_site_symmetry_multiplicity
 _atom_site_fract_x
 _atom_site_fract_y
 _atom_site_fract_z
 _atom_site_occupancy
  Al  Al0  1  0.50590707  0.49455997  0.49825856  1.0
  Al  Al1  1  0.00256334  0.50132589  0.49937012  1.0
  H  H2  1  0.25659343  0.39421932  0.60257550  1.0
  H  H3  1  0.69825884  0.65133430  0.44397856  1.0
  H  H4  1  0.74179962  0.87747887  0.51623362  1.0
  H  H5  1  0.39464875  0.88400975  0.48432300  1.0
  H  H6  1  0.62840165  0.11163597  0.51392548  1.0
  H  H7  1  0.13636445  0.55055076  0.05215206  1.0
  H  H8  1  0.80687431  0.55088338  0.93995584  1.0
  H  H9  1  0.34983001  0.43081763  0.77339160  1.0
  H  H10  1  0.25491412  0.42550651  0.93953103  1.0
  H  H11  1  0.70843429  0.42274081  0.23844491  1.0
  H  H12  1  0.80190648  0.41778200  0.07260537  1.0
  H  H13  1  0.24114425  0.21801021  0.48161817  1.0
  H  H14  1  0.95588058  0.55028802  0.29136650  1.0
  H  H15  1  0.88633770  0.57347713  0.18385936  1.0
  H  H16  1  0.98720124  0.55989791  0.69984654  1.0
  H  H17  1  0.02928723  0.58860643  0.80270502  1.0
  C  C18  1  0.67462321  0.49136868  0.66318029  1.0
  C  C19  1  0.87135637  0.26889924  0.49798878  1.0
  C  C20  1  0.33428496  0.49658720  0.33716284  1.0
  C  C21  1  0.14214384  0.72670589  0.49914844  1.0
  C  C22  1  0.94521280  0.13038031  0.49858013  1.0
  C  C23  1  0.07519973  0.86675088  0.50005278  1.0
  C  C24  1  0.16426450  0.06546057  0.48999399  1.0
  C  C25  1  0.85813520  0.93092472  0.50888183  1.0
  C  C26  1  0.22671173  0.93350817  0.49097894  1.0
  C  C27  1  0.79552788  0.06099312  0.50814363  1.0
  C  C28  1  0.37374955  0.49106163  0.23957834  1.0
  C  C29  1  0.63002037  0.49242518  0.76155543  1.0
  C  C30  1  0.20645552  0.52374906  0.18706526  1.0
  C  C31  1  0.26366526  0.52142161  0.09267418  1.0
  C  C32  1  0.76436876  0.52589930  0.80915570  1.0
  C  C33  1  0.70649480  0.52299131  0.90381160  1.0
  C  C34  1  0.44732297  0.45871019  0.81078482  1.0
  C  C35  1  0.39319779  0.45684037  0.90334320  1.0
  C  C36  1  0.58517284  0.45324705  0.19601804  1.0
  C  C37  1  0.63712909  0.45127817  0.10380428  1.0
  C  C38  1  0.47371504  0.48758665  0.05044356  1.0
  C  C39  1  0.52504864  0.48940841  0.95138377  1.0
  N  N40  1  0.99782991  0.56037561  0.22306370  1.0
  N  N41  1  0.94028278  0.56340944  0.76696964  1.0
  O  O42  1  0.52315663  0.49289907  0.62335942  1.0
  O  O43  1  0.01450714  0.32851765  0.49105013  1.0
  O  O44  1  0.14155153  0.51452163  0.37829868  1.0
  O  O45  1  0.33983976  0.67064994  0.49130400  1.0
  O  O46  1  0.49109621  0.48557043  0.37657904  1.0
  O  O47  1  0.99426888  0.67271961  0.50599221  1.0
  O  O48  1  0.86550114  0.48747462  0.62265418  1.0
  O  O49  1  0.67454427  0.32268079  0.50501610  1.0
  O  O50  1  0.26221117  0.43792068  0.54132086  1.0
  O  O51  1  0.74279749  0.55960787  0.45747177  1.0
  O  O52  1  0.31672503  0.12598340  0.48029563  1.0
