# generated using pymatgen
data_CaCdH12(C4O3)4
_symmetry_space_group_name_H-M   'P 1'
_cell_length_a   14.07252042
_cell_length_b   15.73169897
_cell_length_c   15.73140585
_cell_angle_alpha   78.45885066
_cell_angle_beta   63.43243534
_cell_angle_gamma   63.42988781
_symmetry_Int_Tables_number   1
_chemical_formula_structural   CaCdH12(C4O3)4
_chemical_formula_sum   'Ca4 Cd4 H48 C64 O48'
_cell_volume   2785.96930946
_cell_formula_units_Z   4
loop_
 _symmetry_equiv_pos_site_id
 _symmetry_equiv_pos_as_xyz
  1  'x, y, z'
loop_
 _atom_site_type_symbol
 _atom_site_label
 _atom_site_symmetry_multiplicity
 _atom_site_fract_x
 _atom_site_fract_y
 _atom_site_fract_z
 _atom_site_occupancy
  Ca  Ca0  1  0.95633590  0.58733628  0.99996563  1.0
  Ca  Ca1  1  0.54358067  0.41277105  0.00002592  1.0
  Ca  Ca2  1  0.45637628  0.99997733  0.58722912  1.0
  Ca  Ca3  1  0.04363680  0.00003467  0.41266265  1.0
  Cd  Cd4  1  0.76720457  0.49997282  0.96556101  1.0
  Cd  Cd5  1  0.23272003  0.50002288  0.03441835  1.0
  Cd  Cd6  1  0.73274026  0.03443674  0.50002572  1.0
  Cd  Cd7  1  0.26715932  0.96558242  0.49997622  1.0
  H  H8  1  0.23189827  0.73374422  0.64571719  1.0
  H  H9  1  0.61130653  0.26627510  0.35437078  1.0
  H  H10  1  0.03431085  0.35415175  0.73380847  1.0
  H  H11  1  0.12254046  0.64561715  0.26596762  1.0
  H  H12  1  0.11135980  0.35428101  0.26625533  1.0
  H  H13  1  0.73195031  0.64562523  0.73372654  1.0
  H  H14  1  0.62226576  0.26619687  0.64584864  1.0
  H  H15  1  0.53412449  0.73403400  0.35438169  1.0
  H  H16  1  0.73140074  0.72849532  0.13495983  1.0
  H  H17  1  0.59484779  0.27160238  0.86499826  1.0
  H  H18  1  0.54032924  0.86498596  0.72839305  1.0
  H  H19  1  0.13387054  0.13487575  0.27150144  1.0
  H  H20  1  0.09485761  0.86504147  0.27150421  1.0
  H  H21  1  0.23144768  0.13500365  0.72839760  1.0
  H  H22  1  0.63370918  0.27160715  0.13501268  1.0
  H  H23  1  0.04024612  0.72849914  0.86512464  1.0
  H  H24  1  0.69673231  0.67870125  0.08325302  1.0
  H  H25  1  0.45866088  0.32134486  0.91673364  1.0
  H  H26  1  0.62477246  0.91671368  0.67851478  1.0
  H  H27  1  0.22020077  0.08316837  0.32133940  1.0
  H  H28  1  0.95868791  0.91674839  0.32129624  1.0
  H  H29  1  0.19673851  0.08326715  0.67865577  1.0
  H  H30  1  0.72000215  0.32148489  0.08328514  1.0
  H  H31  1  0.12470745  0.67866084  0.91683128  1.0
  H  H32  1  0.07935863  0.59007147  0.77558720  1.0
  H  H33  1  0.44481442  0.41007389  0.22466453  1.0
  H  H34  1  0.33052460  0.22440712  0.59015363  1.0
  H  H35  1  0.14502444  0.77546532  0.40975150  1.0
  H  H36  1  0.94501434  0.22441240  0.40992719  1.0
  H  H37  1  0.57955352  0.77533416  0.58992917  1.0
  H  H38  1  0.64508287  0.40984596  0.77559532  1.0
  H  H39  1  0.83024118  0.59024670  0.22453805  1.0
  H  H40  1  0.08481856  0.83010613  0.58813666  1.0
  H  H41  1  0.50329465  0.16971994  0.41168303  1.0
  H  H42  1  0.08497499  0.41179176  0.83022041  1.0
  H  H43  1  0.32731187  0.58807801  0.16962310  1.0
  H  H44  1  0.00305792  0.41186293  0.16989702  1.0
  H  H45  1  0.58469484  0.58831201  0.83027845  1.0
  H  H46  1  0.82698076  0.16978373  0.58820599  1.0
  H  H47  1  0.58501177  0.83037814  0.41192237  1.0
  H  H48  1  0.77629753  0.77383219  0.71885734  1.0
  H  H49  1  0.26909507  0.22614369  0.28102550  1.0
  H  H50  1  0.44974432  0.28096413  0.77408658  1.0
  H  H51  1  0.50475283  0.71904643  0.22610029  1.0
  H  H52  1  0.76898707  0.28114203  0.22616751  1.0
  H  H53  1  0.27626187  0.71897599  0.77385363  1.0
  H  H54  1  0.00479406  0.22591103  0.71903471  1.0
  H  H55  1  0.94989647  0.77390124  0.28095418  1.0
  C  C56  1  0.85712364  0.62021937  0.82446601  1.0
  C  C57  1  0.30184839  0.37977551  0.17550934  1.0
  C  C58  1  0.52255357  0.17544259  0.62041428  1.0
  C  C59  1  0.31826919  0.82456176  0.37968377  1.0
  C  C60  1  0.80180534  0.17553344  0.37978035  1.0
  C  C61  1  0.35713445  0.82448987  0.62022332  1.0
  C  C62  1  0.81840574  0.37958532  0.82456164  1.0
  C  C63  1  0.02251566  0.62031527  0.17544170  1.0
  C  C64  1  0.86909941  0.89201729  0.59541016  1.0
  C  C65  1  0.35657435  0.10791339  0.40446441  1.0
  C  C66  1  0.23888658  0.40452269  0.89212467  1.0
  C  C67  1  0.53570714  0.59550889  0.10787054  1.0
  C  C68  1  0.85652816  0.40458711  0.10798144  1.0
  C  C69  1  0.36894595  0.59553831  0.89208549  1.0
  C  C70  1  0.03552892  0.10787737  0.59547569  1.0
  C  C71  1  0.73908336  0.89213076  0.40449067  1.0
  C  C72  1  0.92006396  0.67686519  0.75555893  1.0
  C  C73  1  0.35252513  0.32314798  0.24442189  1.0
  C  C74  1  0.40294317  0.24432357  0.67708800  1.0
  C  C75  1  0.32429000  0.75565324  0.32298064  1.0
  C  C76  1  0.85248604  0.24443974  0.32313508  1.0
  C  C77  1  0.42009325  0.75557832  0.67685215  1.0
  C  C78  1  0.82435261  0.32291412  0.75567787  1.0
  C  C79  1  0.90292196  0.67701721  0.24434757  1.0
  C  C80  1  0.03470540  0.65258226  0.74137636  1.0
  C  C81  1  0.42858723  0.34748081  0.25871714  1.0
  C  C82  1  0.31263945  0.25853046  0.65273465  1.0
  C  C83  1  0.22389516  0.74138660  0.34720325  1.0
  C  C84  1  0.92866377  0.25862195  0.34741531  1.0
  C  C85  1  0.53478371  0.74128041  0.65252092  1.0
  C  C86  1  0.72389912  0.34726632  0.74147235  1.0
  C  C87  1  0.81248241  0.65279705  0.25861407  1.0
  C  C88  1  0.09459175  0.70798916  0.68213759  1.0
  C  C89  1  0.48469012  0.29203744  0.31790430  1.0
  C  C90  1  0.19734315  0.31777980  0.70809820  1.0
  C  C91  1  0.22337202  0.68210691  0.29174798  1.0
  C  C92  1  0.98471714  0.31786172  0.29201048  1.0
  C  C93  1  0.59463108  0.68209231  0.70796281  1.0
  C  C94  1  0.72321465  0.29190843  0.68221990  1.0
  C  C95  1  0.69722493  0.70825110  0.31789431  1.0
  C  C96  1  0.03913392  0.78691644  0.63528442  1.0
  C  C97  1  0.46143373  0.21301107  0.36463536  1.0
  C  C98  1  0.17385430  0.36460339  0.78706946  1.0
  C  C99  1  0.32574174  0.63530423  0.21281631  1.0
  C  C100  1  0.96133232  0.36471458  0.21308401  1.0
  C  C101  1  0.53907813  0.63536280  0.78698842  1.0
  C  C102  1  0.82551992  0.21293677  0.63539658  1.0
  C  C103  1  0.67386122  0.78718469  0.36469428  1.0
  C  C104  1  0.92494599  0.80990304  0.64860807  1.0
  C  C105  1  0.38359612  0.19001297  0.35127183  1.0
  C  C106  1  0.26503289  0.35126857  0.81009182  1.0
  C  C107  1  0.42652856  0.64870662  0.18991009  1.0
  C  C108  1  0.88345621  0.35139092  0.19009673  1.0
  C  C109  1  0.42487940  0.64872685  0.80998539  1.0
  C  C110  1  0.92639003  0.18991148  0.64872882  1.0
  C  C111  1  0.76514336  0.81009000  0.35129315  1.0
  C  C112  1  0.86477243  0.75538594  0.70895350  1.0
  C  C113  1  0.32918478  0.24459495  0.29097181  1.0
  C  C114  1  0.37972587  0.29089060  0.75562198  1.0
  C  C115  1  0.42624185  0.70907870  0.24447987  1.0
  C  C116  1  0.82910928  0.29104669  0.24461526  1.0
  C  C117  1  0.36474819  0.70903005  0.75540515  1.0
  C  C118  1  0.92623322  0.24437954  0.70911021  1.0
  C  C119  1  0.87980113  0.75551869  0.29092111  1.0
  O  O120  1  0.89328808  0.57516683  0.88992114  1.0
  O  O121  1  0.35840142  0.42485375  0.11009035  1.0
  O  O122  1  0.53148792  0.11005611  0.57524335  1.0
  O  O123  1  0.21661933  0.88990833  0.42485562  1.0
  O  O124  1  0.85837222  0.11007991  0.42483437  1.0
  O  O125  1  0.39334601  0.88990797  0.57514537  1.0
  O  O126  1  0.71678160  0.42475857  0.88994487  1.0
  O  O127  1  0.03138200  0.57514759  0.11009278  1.0
  O  O128  1  0.77100336  0.61585188  0.82164764  1.0
  O  O129  1  0.20864112  0.38399984  0.17823796  1.0
  O  O130  1  0.61303996  0.17822881  0.61612359  1.0
  O  O131  1  0.40721571  0.82186042  0.38396320  1.0
  O  O132  1  0.70849987  0.17835195  0.38414706  1.0
  O  O133  1  0.27087921  0.82176202  0.61599290  1.0
  O  O134  1  0.90738924  0.38387399  0.82177313  1.0
  O  O135  1  0.11303732  0.61603543  0.17814270  1.0
  O  O136  1  0.75952843  0.92339649  0.61754242  1.0
  O  O137  1  0.30040177  0.07665736  0.38233186  1.0
  O  O138  1  0.31720577  0.38236232  0.92338194  1.0
  O  O139  1  0.62308896  0.61769037  0.07661866  1.0
  O  O140  1  0.80046890  0.38245541  0.07660214  1.0
  O  O141  1  0.25938502  0.61766809  0.92334371  1.0
  O  O142  1  0.12294434  0.07661918  0.61763538  1.0
  O  O143  1  0.81739679  0.92338092  0.38231062  1.0
  O  O144  1  0.93192689  0.92861311  0.52783693  1.0
  O  O145  1  0.38832391  0.07127431  0.47208301  1.0
  O  O146  1  0.13954028  0.47217850  0.92872417  1.0
  O  O147  1  0.54065104  0.52784589  0.07123596  1.0
  O  O148  1  0.88837716  0.47216142  0.07138651  1.0
  O  O149  1  0.43167411  0.52792215  0.92872799  1.0
  O  O150  1  0.04043949  0.07127960  0.52781643  1.0
  O  O151  1  0.63973206  0.92876540  0.47215391  1.0
  O  O152  1  0.20367932  0.68165720  0.67415818  1.0
  O  O153  1  0.55940198  0.31838386  0.32596792  1.0
  O  O154  1  0.11462944  0.32577417  0.68171629  1.0
  O  O155  1  0.12236505  0.67395167  0.31810699  1.0
  O  O156  1  0.05949289  0.32584078  0.31834303  1.0
  O  O157  1  0.70375425  0.67402536  0.68161786  1.0
  O  O158  1  0.62211258  0.31828891  0.67422676  1.0
  O  O159  1  0.61442214  0.68189463  0.32604792  1.0
  O  O160  1  0.75713487  0.70017979  0.07460609  1.0
  O  O161  1  0.53190088  0.29989783  0.92535599  1.0
  O  O162  1  0.54290965  0.92531266  0.69997907  1.0
  O  O163  1  0.16841767  0.07453929  0.29987980  1.0
  O  O164  1  0.03192084  0.92539574  0.29981790  1.0
  O  O165  1  0.25715365  0.07464492  0.70010286  1.0
  O  O166  1  0.66820164  0.30002077  0.07468718  1.0
  O  O167  1  0.04283622  0.70012054  0.92546060  1.0
