# generated using pymatgen
data_ZnH21C22BrN9O4
_symmetry_space_group_name_H-M   'P 1'
_cell_length_a   16.47394463
_cell_length_b   17.76387645
_cell_length_c   17.92267489
_cell_angle_alpha   90.76465714
_cell_angle_beta   90.76442470
_cell_angle_gamma   97.55685736
_symmetry_Int_Tables_number   1
_chemical_formula_structural   ZnH21C22BrN9O4
_chemical_formula_sum   'Zn2 H42 C44 Br2 N18 O8'
_cell_volume   5198.29272773
_cell_formula_units_Z   2
loop_
 _symmetry_equiv_pos_site_id
 _symmetry_equiv_pos_as_xyz
  1  'x, y, z'
loop_
 _atom_site_type_symbol
 _atom_site_label
 _atom_site_symmetry_multiplicity
 _atom_site_fract_x
 _atom_site_fract_y
 _atom_site_fract_z
 _atom_site_occupancy
  Zn  Zn0  1  0.40868927  0.49094005  0.50246146  1.0
  Zn  Zn1  1  0.58885207  0.50872407  0.49685238  1.0
  H  H2  1  0.99128710  0.50595267  0.58151848  1.0
  H  H3  1  0.00777250  0.49797884  0.41220528  1.0
  H  H4  1  0.42768533  0.00545480  0.44808674  1.0
  H  H5  1  0.57404964  0.99626239  0.55442331  1.0
  H  H6  1  0.38562439  0.52148480  0.73399413  1.0
  H  H7  1  0.38350140  0.52762028  0.87334896  1.0
  H  H8  1  0.62843848  0.46631316  0.88017241  1.0
  H  H9  1  0.37443137  0.52832102  0.11314955  1.0
  H  H10  1  0.61374927  0.48501413  0.26896682  1.0
  H  H11  1  0.62528973  0.48445875  0.13094130  1.0
  H  H12  1  0.66572369  0.58839492  0.61132787  1.0
  H  H13  1  0.76036215  0.63923999  0.62801853  1.0
  H  H14  1  0.94965478  0.60137823  0.61197768  1.0
  H  H15  1  0.86679552  0.59212946  0.66598354  1.0
  H  H16  1  0.64725135  0.43930329  0.38667949  1.0
  H  H17  1  0.70645187  0.36967891  0.39559691  1.0
  H  H18  1  0.91913413  0.39421373  0.42073601  1.0
  H  H19  1  0.83195902  0.38764728  0.36771750  1.0
  H  H20  1  0.14076856  0.57814787  0.64610363  1.0
  H  H21  1  0.14028399  0.64202857  0.58017212  1.0
  H  H22  1  0.35196995  0.57939421  0.59722396  1.0
  H  H23  1  0.26855586  0.61748252  0.62248772  1.0
  H  H24  1  0.06684196  0.42157888  0.35348691  1.0
  H  H25  1  0.14396849  0.36727261  0.35428616  1.0
  H  H26  1  0.33321571  0.38585766  0.41995085  1.0
  H  H27  1  0.26992163  0.40211278  0.34937181  1.0
  H  H28  1  0.34399520  0.30445180  0.51688380  1.0
  H  H29  1  0.30226481  0.22048964  0.55225081  1.0
  H  H30  1  0.33027623  0.04957393  0.53101347  1.0
  H  H31  1  0.28859468  0.12157669  0.49053923  1.0
  H  H32  1  0.63970664  0.33383815  0.51334981  1.0
  H  H33  1  0.68455575  0.25996402  0.47698728  1.0
  H  H34  1  0.63657140  0.07447474  0.48008460  1.0
  H  H35  1  0.68791668  0.15867773  0.51086493  1.0
  H  H36  1  0.35476495  0.91979226  0.46729853  1.0
  H  H37  1  0.31371463  0.83681789  0.50440832  1.0
  H  H38  1  0.35755804  0.66751252  0.48543903  1.0
  H  H39  1  0.32374303  0.73959206  0.43965567  1.0
  H  H40  1  0.66475520  0.95378808  0.48890232  1.0
  H  H41  1  0.70612516  0.87306597  0.47938579  1.0
  H  H42  1  0.65502178  0.69233884  0.50481272  1.0
  H  H43  1  0.69875542  0.77588836  0.54358379  1.0
  C  C44  1  0.49386153  0.35139201  0.50315162  1.0
  C  C45  1  0.48907557  0.50111987  0.35417016  1.0
  C  C46  1  0.50277595  0.64737683  0.49888672  1.0
  C  C47  1  0.50429987  0.49783779  0.64494298  1.0
  C  C48  1  0.75196946  0.46843959  0.44957654  1.0
  C  C49  1  0.83668448  0.46475422  0.45359324  1.0
  C  C50  1  0.88355681  0.50682248  0.51044416  1.0
  C  C51  1  0.84449958  0.55361308  0.55840498  1.0
  C  C52  1  0.76005803  0.55754355  0.54868544  1.0
  C  C53  1  0.97057819  0.50303252  0.52330472  1.0
  C  C54  1  0.02771261  0.49917474  0.47068862  1.0
  C  C55  1  0.15399866  0.44822575  0.43719018  1.0
  C  C56  1  0.11478156  0.49571590  0.48462094  1.0
  C  C57  1  0.16087099  0.53666013  0.54242268  1.0
  C  C58  1  0.24464266  0.52948794  0.55034263  1.0
  C  C59  1  0.23798062  0.44327132  0.44914242  1.0
  C  C60  1  0.49122100  0.26806611  0.50664071  1.0
  C  C61  1  0.56531414  0.23400095  0.50844109  1.0
  C  C62  1  0.56239909  0.15424450  0.50704951  1.0
  C  C63  1  0.48649115  0.10731024  0.49945331  1.0
  C  C64  1  0.41330320  0.14079186  0.50056048  1.0
  C  C65  1  0.41454959  0.21995977  0.50687887  1.0
  C  C66  1  0.47834657  0.02533723  0.48652734  1.0
  C  C67  1  0.52442561  0.97457511  0.51545873  1.0
  C  C68  1  0.58615938  0.85703553  0.50397846  1.0
  C  C69  1  0.51426725  0.89235675  0.50403379  1.0
  C  C70  1  0.43725538  0.84610854  0.49769464  1.0
  C  C71  1  0.43331238  0.76633128  0.49339589  1.0
  C  C72  1  0.50609588  0.73090717  0.49817654  1.0
  C  C73  1  0.58336046  0.77747804  0.50284890  1.0
  C  C74  1  0.50846316  0.49487699  0.72847890  1.0
  C  C75  1  0.43894297  0.51109376  0.76715188  1.0
  C  C76  1  0.43753414  0.51398277  0.84439188  1.0
  C  C77  1  0.50651178  0.49883381  0.88635119  1.0
  C  C78  1  0.57569080  0.48004670  0.84840899  1.0
  C  C79  1  0.57639659  0.47861783  0.77074642  1.0
  C  C80  1  0.50588598  0.50157849  0.96523539  1.0
  C  C81  1  0.50401242  0.50395410  0.03329822  1.0
  C  C82  1  0.50016884  0.50556317  0.11204231  1.0
  C  C83  1  0.42712880  0.51842930  0.14714603  1.0
  C  C84  1  0.42164904  0.51819832  0.22462392  1.0
  C  C85  1  0.48854227  0.50516094  0.27036651  1.0
  C  C86  1  0.56143518  0.49395651  0.23396785  1.0
  C  C87  1  0.56809335  0.49382895  0.15707963  1.0
  Br  Br88  1  0.67149970  0.44807041  0.72578828  1.0
  Br  Br89  1  0.31754292  0.53738810  0.26123652  1.0
  N  N90  1  0.71501213  0.51380849  0.49649965  1.0
  N  N91  1  0.28205552  0.48383497  0.50404617  1.0
  N  N92  1  0.72245328  0.60779212  0.59117184  1.0
  N  N93  1  0.88785705  0.60120068  0.61317381  1.0
  N  N94  1  0.70587203  0.42690576  0.39332357  1.0
  N  N95  1  0.87244899  0.42094030  0.40099970  1.0
  N  N96  1  0.12379029  0.58597361  0.59204071  1.0
  N  N97  1  0.29064290  0.56892809  0.60694780  1.0
  N  N98  1  0.10977082  0.39965529  0.38453769  1.0
  N  N99  1  0.27463410  0.39299144  0.40522098  1.0
  N  N100  1  0.33843925  0.24684966  0.51213640  1.0
  N  N101  1  0.33806083  0.09325325  0.49463548  1.0
  N  N102  1  0.64292986  0.27672235  0.51310052  1.0
  N  N103  1  0.63542143  0.12208371  0.51191773  1.0
  N  N104  1  0.36328814  0.87725964  0.50244630  1.0
  N  N105  1  0.35413787  0.72448319  0.48600734  1.0
  N  N106  1  0.66430415  0.89992908  0.50733749  1.0
  N  N107  1  0.65887376  0.75003050  0.50438519  1.0
  O  O108  1  0.42791515  0.37960234  0.48533238  1.0
  O  O109  1  0.56150433  0.39436402  0.51685631  1.0
  O  O110  1  0.55572151  0.48688672  0.38498853  1.0
  O  O111  1  0.42492306  0.51115067  0.38891703  1.0
  O  O112  1  0.56647176  0.61755664  0.48053807  1.0
  O  O113  1  0.43590405  0.60678904  0.51869585  1.0
  O  O114  1  0.43525102  0.47513367  0.61458982  1.0
  O  O115  1  0.56860534  0.52519641  0.61095540  1.0
