# generated using pymatgen
data_Zn2H21C41S3N2O17
_symmetry_space_group_name_H-M   'P 1'
_cell_length_a   13.22450394
_cell_length_b   13.78651917
_cell_length_c   28.50570971
_cell_angle_alpha   90.72106909
_cell_angle_beta   89.89933109
_cell_angle_gamma   89.85778490
_symmetry_Int_Tables_number   1
_chemical_formula_structural   Zn2H21C41S3N2O17
_chemical_formula_sum   'Zn4 H42 C82 S6 N4 O34'
_cell_volume   5196.72160647
_cell_formula_units_Z   2
loop_
 _symmetry_equiv_pos_site_id
 _symmetry_equiv_pos_as_xyz
  1  'x, y, z'
loop_
 _atom_site_type_symbol
 _atom_site_label
 _atom_site_symmetry_multiplicity
 _atom_site_fract_x
 _atom_site_fract_y
 _atom_site_fract_z
 _atom_site_occupancy
  Zn  Zn0  1  0.50926925  0.41326997  0.49693481  1.0
  Zn  Zn1  1  0.48962925  0.61106193  0.50141221  1.0
  Zn  Zn2  1  0.50903828  0.58725448  0.03683280  1.0
  Zn  Zn3  1  0.49060740  0.38951013  0.03253910  1.0
  H  H4  1  0.40934905  0.26702755  0.55609791  1.0
  H  H5  1  0.34196230  0.11290383  0.59332286  1.0
  H  H6  1  0.62661658  0.25703209  0.45207995  1.0
  H  H7  1  0.59450613  0.75840982  0.44646531  1.0
  H  H8  1  0.67412696  0.91270208  0.41412630  1.0
  H  H9  1  0.39760469  0.76746653  0.55879892  1.0
  H  H10  1  0.50265215  0.62260889  0.18960770  1.0
  H  H11  1  0.50277714  0.31210888  0.17787128  1.0
  H  H12  1  0.50430904  0.29779718  0.26504417  1.0
  H  H13  1  0.50372940  0.37740897  0.34411090  1.0
  H  H14  1  0.50243857  0.68791895  0.35594320  1.0
  H  H15  1  0.50341709  0.70226901  0.26878163  1.0
  H  H16  1  0.48721949  0.67191363  0.65427462  1.0
  H  H17  1  0.48661637  0.75191147  0.73233895  1.0
  H  H18  1  0.49427933  0.36216859  0.64162117  1.0
  H  H19  1  0.48728304  0.32799991  0.87968094  1.0
  H  H20  1  0.48551782  0.24804643  0.80166850  1.0
  H  H21  1  0.49664779  0.63755124  0.89232913  1.0
  H  H22  1  0.83730602  0.37187093  0.49483279  1.0
  H  H23  1  0.80283180  0.68146294  0.50257569  1.0
  H  H24  1  0.99039493  0.70249912  0.50181467  1.0
  H  H25  1  0.16247856  0.62942239  0.49961625  1.0
  H  H26  1  0.19770736  0.32002518  0.49388320  1.0
  H  H27  1  0.01031275  0.29863260  0.49307155  1.0
  H  H28  1  0.40902074  0.73450637  0.97798976  1.0
  H  H29  1  0.34264505  0.88909584  0.94077016  1.0
  H  H30  1  0.62744970  0.74238489  0.08111523  1.0
  H  H31  1  0.59604881  0.24139800  0.08745972  1.0
  H  H32  1  0.67624422  0.08624415  0.11922030  1.0
  H  H33  1  0.39910369  0.23391606  0.97545456  1.0
  H  H34  1  0.83679733  0.62904150  0.03984750  1.0
  H  H35  1  0.80441888  0.31942291  0.03206729  1.0
  H  H36  1  0.99211964  0.29858134  0.03307691  1.0
  H  H37  1  0.16360483  0.37189610  0.03486196  1.0
  H  H38  1  0.19689496  0.68137798  0.04017260  1.0
  H  H39  1  0.00934965  0.70254045  0.04157602  1.0
  H  H40  1  0.21856057  0.80004900  0.57989803  1.0
  H  H41  1  0.66150491  0.23487103  0.36911066  1.0
  H  H42  1  0.33220569  0.81985157  0.83790868  1.0
  H  H43  1  0.33056135  0.18042645  0.69641685  1.0
  H  H44  1  0.21961273  0.20199191  0.95511354  1.0
  H  H45  1  0.66341662  0.76405850  0.16393338  1.0
  C  C46  1  0.49269408  0.52270240  0.59118838  1.0
  C  C47  1  0.30270128  0.48837193  0.49789739  1.0
  C  C48  1  0.50338287  0.52395281  0.40709570  1.0
  C  C49  1  0.69765305  0.51456947  0.49906776  1.0
  C  C50  1  0.49412257  0.47723989  0.94271416  1.0
  C  C51  1  0.30295571  0.51300728  0.03587225  1.0
  C  C52  1  0.50263226  0.47601327  0.12671616  1.0
  C  C53  1  0.69813655  0.48621165  0.03517669  1.0
  C  C54  1  0.45523802  0.22027473  0.53336251  1.0
  C  C55  1  0.45053754  0.11899731  0.53567168  1.0
  C  C56  1  0.38664513  0.07030972  0.56832500  1.0
  C  C57  1  0.57637321  0.21390998  0.47370381  1.0
  C  C58  1  0.57598395  0.11225921  0.47170255  1.0
  C  C59  1  0.63542624  0.05390295  0.43952742  1.0
  C  C60  1  0.55353482  0.80519193  0.47116932  1.0
  C  C61  1  0.56301827  0.90628618  0.47089348  1.0
  C  C62  1  0.62866805  0.95496503  0.43896655  1.0
  C  C63  1  0.43982110  0.81096397  0.53391895  1.0
  C  C64  1  0.44065155  0.91270577  0.53619183  1.0
  C  C65  1  0.38192917  0.97126245  0.56862911  1.0
  C  C66  1  0.51055775  0.06392845  0.50356437  1.0
  C  C67  1  0.50449860  0.96121320  0.50369550  1.0
  C  C68  1  0.50437998  0.55218110  0.20664229  1.0
  C  C69  1  0.50408658  0.37638776  0.20044916  1.0
  C  C70  1  0.50472222  0.36882632  0.24850452  1.0
  C  C71  1  0.50519863  0.45318389  0.27763478  1.0
  C  C72  1  0.50510943  0.44788344  0.32711989  1.0
  C  C73  1  0.50400640  0.62362681  0.33336865  1.0
  C  C74  1  0.50427052  0.63122221  0.28530911  1.0
  C  C75  1  0.50489638  0.54692129  0.25613343  1.0
  C  C76  1  0.50410057  0.46895434  0.17906289  1.0
  C  C77  1  0.50469032  0.53106575  0.35473722  1.0
  C  C78  1  0.48855779  0.60139108  0.67114908  1.0
  C  C79  1  0.48853191  0.59551761  0.72021829  1.0
  C  C80  1  0.48781032  0.68123190  0.74906469  1.0
  C  C81  1  0.49104044  0.42576670  0.66449413  1.0
  C  C82  1  0.48927934  0.41634325  0.71336808  1.0
  C  C83  1  0.48750626  0.32425272  0.73702858  1.0
  C  C84  1  0.48897403  0.39849089  0.86279693  1.0
  C  C85  1  0.48846821  0.40440793  0.81372819  1.0
  C  C86  1  0.48689109  0.31868979  0.78490572  1.0
  C  C87  1  0.49277227  0.57406085  0.86943535  1.0
  C  C88  1  0.49049082  0.58351827  0.82058206  1.0
  C  C89  1  0.48892389  0.67562537  0.79694828  1.0
  C  C90  1  0.49053876  0.51695298  0.64364708  1.0
  C  C91  1  0.48892805  0.50261187  0.74205058  1.0
  C  C92  1  0.49178347  0.48289275  0.89027592  1.0
  C  C93  1  0.48921542  0.49730190  0.79188950  1.0
  C  C94  1  0.87169076  0.44367863  0.49647080  1.0
  C  C95  1  0.85344791  0.61910973  0.50071567  1.0
  C  C96  1  0.95670297  0.63028506  0.50046810  1.0
  C  C97  1  0.02180420  0.54821467  0.49853220  1.0
  C  C98  1  0.12819447  0.55756074  0.49867326  1.0
  C  C99  1  0.14705464  0.38242209  0.49527893  1.0
  C  C100  1  0.04373461  0.37092614  0.49480883  1.0
  C  C101  1  0.97823256  0.45286008  0.49655711  1.0
  C  C102  1  0.81013339  0.52502529  0.49865113  1.0
  C  C103  1  0.19024159  0.47668889  0.49730738  1.0
  C  C104  1  0.45547672  0.78081006  0.00050223  1.0
  C  C105  1  0.45149509  0.88211496  0.99809977  1.0
  C  C106  1  0.38763913  0.93132725  0.96563033  1.0
  C  C107  1  0.57721324  0.78599167  0.05967994  1.0
  C  C108  1  0.57740505  0.88765512  0.06164887  1.0
  C  C109  1  0.63724212  0.94546047  0.09369038  1.0
  C  C110  1  0.55517167  0.19493316  0.06273181  1.0
  C  C111  1  0.56482514  0.09378070  0.06277137  1.0
  C  C112  1  0.63059210  0.04444534  0.09443884  1.0
  C  C113  1  0.44141322  0.19008333  0.00017167  1.0
  C  C114  1  0.44227819  0.08839410  0.99773563  1.0
  C  C115  1  0.38326594  0.03040887  0.96540238  1.0
  C  C116  1  0.51201866  0.93662221  0.03000287  1.0
  C  C117  1  0.50622869  0.03937989  0.02999527  1.0
  C  C118  1  0.87167123  0.55727374  0.03817154  1.0
  C  C119  1  0.85465231  0.38180778  0.03396937  1.0
  C  C120  1  0.95796987  0.37075282  0.03437473  1.0
  C  C121  1  0.02246585  0.45295076  0.03620246  1.0
  C  C122  1  0.12889944  0.44374103  0.03584615  1.0
  C  C123  1  0.14665484  0.61891732  0.03895857  1.0
  C  C124  1  0.04323610  0.63028176  0.03972536  1.0
  C  C125  1  0.97826835  0.54825658  0.03814400  1.0
  C  C126  1  0.81068889  0.47584181  0.03585886  1.0
  C  C127  1  0.19044899  0.52467938  0.03688166  1.0
  S  S128  1  0.30098829  0.91755306  0.61130375  1.0
  S  S129  1  0.72390593  0.10735821  0.40005096  1.0
  S  S130  1  0.48983325  0.78790471  0.82873478  1.0
  S  S131  1  0.48815005  0.21178908  0.70536792  1.0
  S  S132  1  0.30201111  0.08469121  0.92305495  1.0
  S  S133  1  0.72585925  0.89111690  0.13278188  1.0
  N  N134  1  0.51605223  0.26463556  0.50284040  1.0
  N  N135  1  0.49346359  0.76055525  0.50191832  1.0
  N  N136  1  0.51623917  0.73583938  0.03083289  1.0
  N  N137  1  0.49504439  0.24000227  0.03214913  1.0
  O  O138  1  0.50342062  0.44330976  0.56851187  1.0
  O  O139  1  0.48374503  0.60644140  0.57327013  1.0
  O  O140  1  0.33832620  0.57427664  0.49950659  1.0
  O  O141  1  0.35503213  0.41052343  0.49682267  1.0
  O  O142  1  0.49709289  0.60400281  0.42987854  1.0
  O  O143  1  0.50829638  0.43989645  0.42507381  1.0
  O  O144  1  0.66179852  0.42894284  0.49574743  1.0
  O  O145  1  0.64533383  0.59211459  0.50281537  1.0
  O  O146  1  0.50468218  0.55665173  0.96533191  1.0
  O  O147  1  0.48540284  0.39356211  0.96070898  1.0
  O  O148  1  0.33909028  0.42711470  0.03428183  1.0
  O  O149  1  0.35486050  0.59088897  0.03660202  1.0
  O  O150  1  0.49692740  0.39587811  0.10400293  1.0
  O  O151  1  0.50694107  0.56001073  0.10867253  1.0
  O  O152  1  0.66168946  0.57180365  0.03847358  1.0
  O  O153  1  0.64631893  0.40864127  0.03129296  1.0
  O  O154  1  0.21444012  0.87086815  0.57780675  1.0
  O  O155  1  0.25404637  0.99433432  0.63777759  1.0
  O  O156  1  0.35298200  0.83863424  0.63366136  1.0
  O  O157  1  0.64888953  0.16516728  0.36521308  1.0
  O  O158  1  0.76961365  0.03057478  0.37315139  1.0
  O  O159  1  0.78318857  0.17846717  0.42519689  1.0
  O  O160  1  0.38227408  0.78579892  0.85698263  1.0
  O  O161  1  0.48503273  0.86613001  0.79589997  1.0
  O  O162  1  0.56477827  0.78505473  0.86509607  1.0
  O  O163  1  0.38059549  0.21440473  0.67730909  1.0
  O  O164  1  0.48323426  0.13372531  0.73829341  1.0
  O  O165  1  0.56312548  0.21405597  0.66889065  1.0
  O  O166  1  0.21542599  0.13114414  0.95687985  1.0
  O  O167  1  0.25519555  0.00822007  0.89654136  1.0
  O  O168  1  0.35361536  0.16375469  0.90074647  1.0
  O  O169  1  0.65089502  0.83384411  0.16782196  1.0
  O  O170  1  0.77219502  0.96737109  0.15958514  1.0
  O  O171  1  0.78459550  0.81960692  0.10735286  1.0
