# generated using pymatgen
data_AlH16(C7O2)3
_symmetry_space_group_name_H-M   'P 1'
_cell_length_a   6.65903492
_cell_length_b   21.59515028
_cell_length_c   25.29464051
_cell_angle_alpha   96.27631730
_cell_angle_beta   89.99698736
_cell_angle_gamma   89.99801255
_symmetry_Int_Tables_number   1
_chemical_formula_structural   AlH16(C7O2)3
_chemical_formula_sum   'Al4 H64 C84 O24'
_cell_volume   3615.63964041
_cell_formula_units_Z   4
loop_
 _symmetry_equiv_pos_site_id
 _symmetry_equiv_pos_as_xyz
  1  'x, y, z'
loop_
 _atom_site_type_symbol
 _atom_site_label
 _atom_site_symmetry_multiplicity
 _atom_site_fract_x
 _atom_site_fract_y
 _atom_site_fract_z
 _atom_site_occupancy
  Al  Al0  1  0.23495803  0.74933636  0.74931245  1.0
  Al  Al1  1  0.77852842  0.25058435  0.25090447  1.0
  Al  Al2  1  0.73497019  0.75062627  0.75068537  1.0
  Al  Al3  1  0.27853581  0.24938772  0.24908336  1.0
  H  H4  1  0.99010911  0.62441974  0.41671471  1.0
  H  H5  1  0.82831060  0.37843309  0.58357811  1.0
  H  H6  1  0.48982743  0.87556723  0.08327050  1.0
  H  H7  1  0.32846279  0.12157589  0.91640534  1.0
  H  H8  1  0.02781725  0.62948533  0.59151815  1.0
  H  H9  1  0.95970457  0.36658681  0.41007594  1.0
  H  H10  1  0.52764851  0.87049461  0.90847345  1.0
  H  H11  1  0.46013745  0.13340967  0.08988031  1.0
  H  H12  1  0.89748869  0.53691872  0.72968837  1.0
  H  H13  1  0.11293667  0.46329039  0.27587030  1.0
  H  H14  1  0.39782752  0.96309320  0.77029008  1.0
  H  H15  1  0.61240532  0.03667286  0.22414173  1.0
  H  H16  1  0.08685577  0.56469556  0.33294413  1.0
  H  H17  1  0.85396039  0.43659413  0.67199730  1.0
  H  H18  1  0.58642183  0.93527963  0.16705033  1.0
  H  H19  1  0.35417479  0.06340522  0.82798499  1.0
  H  H20  1  0.68390044  0.91582516  0.54379232  1.0
  H  H21  1  0.33037198  0.03896158  0.42158881  1.0
  H  H22  1  0.18384030  0.58413472  0.95622014  1.0
  H  H23  1  0.83031236  0.46109460  0.07844127  1.0
  H  H24  1  0.67528509  0.84455918  0.61550221  1.0
  H  H25  1  0.33731111  0.11223113  0.35147750  1.0
  H  H26  1  0.17513032  0.65537638  0.88448969  1.0
  H  H27  1  0.83732570  0.38783542  0.14855447  1.0
  H  H28  1  0.29817344  0.88194304  0.64910755  1.0
  H  H29  1  0.71340656  0.15384094  0.37909996  1.0
  H  H30  1  0.79814546  0.61810756  0.85092003  1.0
  H  H31  1  0.21354121  0.34610913  0.12090310  1.0
  H  H32  1  0.30757831  0.95579955  0.57942632  1.0
  H  H33  1  0.70471164  0.08254994  0.45066825  1.0
  H  H34  1  0.80760519  0.54424025  0.92059357  1.0
  H  H35  1  0.20475462  0.41741435  0.04934766  1.0
  H  H36  1  0.74004501  0.70160372  0.56239594  1.0
  H  H37  1  0.67399712  0.62167647  0.56168234  1.0
  H  H38  1  0.61326191  0.69971331  0.46847185  1.0
  H  H39  1  0.54512497  0.62043162  0.46881398  1.0
  H  H40  1  0.31183346  0.64860559  0.54587671  1.0
  H  H41  1  0.24435981  0.68938560  0.49178094  1.0
  H  H42  1  0.37640668  0.72833198  0.54658747  1.0
  H  H43  1  0.61467745  0.38791620  0.43638534  1.0
  H  H44  1  0.53813908  0.36124385  0.49771804  1.0
  H  H45  1  0.72232370  0.28054821  0.40206386  1.0
  H  H46  1  0.65860406  0.25333176  0.46319030  1.0
  H  H47  1  0.29431979  0.27950934  0.44964068  1.0
  H  H48  1  0.38398750  0.23100172  0.39330191  1.0
  H  H49  1  0.35499490  0.31205753  0.39045817  1.0
  H  H50  1  0.23989967  0.79839751  0.93759626  1.0
  H  H51  1  0.17386837  0.87833052  0.93831396  1.0
  H  H52  1  0.11317054  0.80029594  0.03153019  1.0
  H  H53  1  0.04506402  0.87958279  0.03119459  1.0
  H  H54  1  0.81168607  0.85143697  0.95416142  1.0
  H  H55  1  0.74427580  0.81064901  0.00825505  1.0
  H  H56  1  0.87623367  0.77169997  0.95343026  1.0
  H  H57  1  0.11489637  0.11212402  0.06365294  1.0
  H  H58  1  0.03826840  0.13877045  0.00231853  1.0
  H  H59  1  0.22257261  0.21949784  0.09793353  1.0
  H  H60  1  0.15891044  0.24668265  0.03679047  1.0
  H  H61  1  0.79458688  0.22060786  0.05035333  1.0
  H  H62  1  0.88431304  0.26910365  0.10668209  1.0
  H  H63  1  0.85513204  0.18806757  0.10954771  1.0
  H  H64  1  0.48846942  0.70674239  0.68816507  1.0
  H  H65  1  0.52391188  0.28721146  0.31443644  1.0
  H  H66  1  0.98849473  0.79327612  0.81180255  1.0
  H  H67  1  0.02391789  0.21277535  0.18555060  1.0
  C  C68  1  0.48388691  0.68501597  0.82243196  1.0
  C  C69  1  0.52881367  0.31850200  0.17995151  1.0
  C  C70  1  0.98410597  0.81495828  0.67756595  1.0
  C  C71  1  0.02860758  0.18148370  0.32004898  1.0
  C  C72  1  0.48373712  0.85018279  0.80347056  1.0
  C  C73  1  0.53137589  0.15170247  0.19357079  1.0
  C  C74  1  0.98356797  0.64979430  0.69652775  1.0
  C  C75  1  0.03149060  0.34826908  0.30641694  1.0
  C  C76  1  0.03118574  0.40944373  0.34033533  1.0
  C  C77  1  0.96807321  0.58853516  0.66299522  1.0
  C  C78  1  0.53118668  0.09053371  0.15964047  1.0
  C  C79  1  0.46817934  0.91145462  0.83699257  1.0
  C  C80  1  0.05908554  0.52092195  0.34956308  1.0
  C  C81  1  0.88833683  0.47943396  0.65459335  1.0
  C  C82  1  0.55879515  0.97905581  0.15042420  1.0
  C  C83  1  0.38855607  0.02056764  0.84538727  1.0
  C  C84  1  0.07298640  0.46495224  0.31782550  1.0
  C  C85  1  0.91499442  0.53461372  0.68664819  1.0
  C  C86  1  0.57268037  0.03501899  0.18217357  1.0
  C  C87  1  0.41525779  0.96538402  0.81333279  1.0
  C  C88  1  0.98397276  0.41037357  0.39375212  1.0
  C  C89  1  0.98548249  0.58719925  0.60834774  1.0
  C  C90  1  0.48421861  0.08961522  0.10621453  1.0
  C  C91  1  0.48543875  0.91278612  0.89163941  1.0
  C  C92  1  0.97250141  0.46692566  0.42776991  1.0
  C  C93  1  0.94195630  0.53243502  0.57405204  1.0
  C  C94  1  0.47258301  0.03306499  0.07220326  1.0
  C  C95  1  0.44196885  0.96755732  0.92592857  1.0
  C  C96  1  0.00837859  0.52325537  0.40415182  1.0
  C  C97  1  0.90085973  0.47710241  0.59848364  1.0
  C  C98  1  0.50825470  0.97673026  0.09583181  1.0
  C  C99  1  0.40095870  0.02289787  0.90149481  1.0
  C  C100  1  0.93225361  0.47062854  0.48452568  1.0
  C  C101  1  0.94115164  0.52961484  0.51645763  1.0
  C  C102  1  0.43232815  0.02937042  0.01545164  1.0
  C  C103  1  0.44116367  0.97037951  0.98352417  1.0
  C  C104  1  0.94627035  0.58483181  0.48888831  1.0
  C  C105  1  0.88368411  0.41692118  0.51153138  1.0
  C  C106  1  0.44618954  0.91515770  0.01109910  1.0
  C  C107  1  0.38380652  0.08308108  0.98845049  1.0
  C  C108  1  0.98414207  0.58129465  0.43542525  1.0
  C  C109  1  0.86781699  0.42056681  0.56574321  1.0
  C  C110  1  0.48394440  0.91869358  0.06456203  1.0
  C  C111  1  0.36794682  0.07943557  0.93423849  1.0
  C  C112  1  0.81754539  0.90884990  0.56733228  1.0
  C  C113  1  0.19601547  0.06468938  0.41257651  1.0
  C  C114  1  0.31747281  0.59111557  0.93267552  1.0
  C  C115  1  0.69599931  0.43534379  0.08744869  1.0
  C  C116  1  0.81272476  0.86901966  0.60689211  1.0
  C  C117  1  0.20001457  0.10519927  0.37353430  1.0
  C  C118  1  0.31261036  0.63093769  0.89310621  1.0
  C  C119  1  0.70004342  0.39484060  0.12649283  1.0
  C  C120  1  0.98655382  0.85897820  0.63610069  1.0
  C  C121  1  0.02588644  0.13738311  0.36144820  1.0
  C  C122  1  0.48644429  0.64100491  0.86390514  1.0
  C  C123  1  0.52598446  0.36262189  0.13856904  1.0
  C  C124  1  0.16489179  0.89016292  0.62583162  1.0
  C  C125  1  0.84716077  0.12844322  0.38902192  1.0
  C  C126  1  0.66485245  0.60986066  0.87418152  1.0
  C  C127  1  0.34725670  0.37153552  0.11099040  1.0
  C  C128  1  0.17015681  0.93074999  0.58694055  1.0
  C  C129  1  0.84246778  0.08868119  0.42853205  1.0
  C  C130  1  0.67014601  0.56926756  0.91307649  1.0
  C  C131  1  0.34250086  0.41130609  0.07148511  1.0
  C  C132  1  0.99668757  0.94036572  0.55667845  1.0
  C  C133  1  0.01715979  0.05602732  0.44096668  1.0
  C  C134  1  0.49666935  0.55962778  0.94332962  1.0
  C  C135  1  0.51713649  0.44398307  0.05905228  1.0
  C  C136  1  0.00348826  0.98076216  0.51625481  1.0
  C  C137  1  0.01162131  0.01544332  0.48126366  1.0
  C  C138  1  0.50348399  0.51923506  0.98375423  1.0
  C  C139  1  0.51159979  0.48455793  0.01874862  1.0
  C  C140  1  0.72023539  0.65768422  0.53648804  1.0
  C  C141  1  0.56267301  0.66487061  0.49426785  1.0
  C  C142  1  0.36315207  0.68401260  0.52085918  1.0
  C  C143  1  0.64310737  0.35252001  0.46392061  1.0
  C  C144  1  0.61689752  0.28742143  0.43576174  1.0
  C  C145  1  0.40114227  0.27675745  0.41630944  1.0
  C  C146  1  0.22012397  0.84231748  0.96351001  1.0
  C  C147  1  0.06256009  0.83514283  0.00574166  1.0
  C  C148  1  0.86302648  0.81601562  0.97916828  1.0
  C  C149  1  0.14330352  0.14750593  0.03609857  1.0
  C  C150  1  0.11716795  0.21262192  0.06423594  1.0
  C  C151  1  0.90139746  0.22333676  0.08368266  1.0
  O  O152  1  0.65573769  0.82671137  0.79250902  1.0
  O  O153  1  0.36049402  0.17603214  0.20476959  1.0
  O  O154  1  0.15551439  0.67341404  0.70728912  1.0
  O  O155  1  0.86070509  0.32380090  0.29535743  1.0
  O  O156  1  0.31277563  0.70187683  0.80646784  1.0
  O  O157  1  0.69958084  0.30306591  0.19715530  1.0
  O  O158  1  0.81308062  0.79782857  0.69337411  1.0
  O  O159  1  0.19935535  0.19706328  0.30293311  1.0
  O  O160  1  0.31607329  0.82574274  0.78897947  1.0
  O  O161  1  0.70020510  0.17508026  0.20832684  1.0
  O  O162  1  0.81590392  0.67406709  0.71124545  1.0
  O  O163  1  0.20035297  0.32501598  0.29152531  1.0
  O  O164  1  0.15444918  0.79741274  0.69330703  1.0
  O  O165  1  0.85846833  0.20093507  0.30580103  1.0
  O  O166  1  0.65414031  0.70281412  0.80683955  1.0
  O  O167  1  0.35877529  0.29887481  0.19410091  1.0
  O  O168  1  0.48586322  0.73934683  0.71775713  1.0
  O  O169  1  0.52701969  0.25837680  0.28225078  1.0
  O  O170  1  0.98585392  0.76063058  0.78224393  1.0
  O  O171  1  0.02703771  0.24160266  0.21774059  1.0
  O  O172  1  0.91846850  0.64390163  0.51473041  1.0
  O  O173  1  0.84668838  0.35893363  0.48409165  1.0
  O  O174  1  0.41834771  0.85609514  0.98525053  1.0
  O  O175  1  0.34684307  0.14107028  0.01588926  1.0
