# generated using pymatgen
data_ZnH4C16N3(O2F)2
_symmetry_space_group_name_H-M   'P 1'
_cell_length_a   9.64930703
_cell_length_b   11.05181385
_cell_length_c   17.67202143
_cell_angle_alpha   89.15755073
_cell_angle_beta   89.84500468
_cell_angle_gamma   89.64027632
_symmetry_Int_Tables_number   1
_chemical_formula_structural   ZnH4C16N3(O2F)2
_chemical_formula_sum   'Zn2 H8 C32 N6 O8 F4'
_cell_volume   1884.33852086
_cell_formula_units_Z   2
loop_
 _symmetry_equiv_pos_site_id
 _symmetry_equiv_pos_as_xyz
  1  'x, y, z'
loop_
 _atom_site_type_symbol
 _atom_site_label
 _atom_site_symmetry_multiplicity
 _atom_site_fract_x
 _atom_site_fract_y
 _atom_site_fract_z
 _atom_site_occupancy
  Zn  Zn0  1  0.64781613  0.50833772  0.50329145  1.0
  Zn  Zn1  1  0.35666358  0.51276207  0.49729542  1.0
  H  H2  1  0.72053319  0.48090268  0.11759410  1.0
  H  H3  1  0.27755372  0.47617190  0.88150402  1.0
  H  H4  1  0.70618126  0.35543370  0.87113639  1.0
  H  H5  1  0.28698483  0.38079486  0.13432883  1.0
  H  H6  1  0.13084999  0.54269502  0.38287052  1.0
  H  H7  1  0.87392179  0.47361357  0.61790630  1.0
  H  H8  1  0.13990104  0.47687457  0.61504337  1.0
  H  H9  1  0.86500990  0.53950613  0.38563578  1.0
  C  C10  1  0.49776055  0.27422809  0.49540918  1.0
  C  C11  1  0.50433953  0.74515724  0.50368026  1.0
  C  C12  1  0.49949777  0.41217423  0.03603974  1.0
  C  C13  1  0.49568194  0.40757955  0.96713961  1.0
  C  C14  1  0.43596168  0.07466087  0.55739896  1.0
  C  C15  1  0.56279840  0.94474033  0.44005240  1.0
  C  C16  1  0.43878343  0.94642117  0.55995917  1.0
  C  C17  1  0.55850441  0.07299633  0.43723197  1.0
  C  C18  1  0.49734752  0.48406314  0.64467546  1.0
  C  C19  1  0.50682697  0.50559616  0.35553970  1.0
  C  C20  1  0.50262795  0.88160130  0.50138831  1.0
  C  C21  1  0.49653626  0.13771136  0.49630808  1.0
  C  C22  1  0.62587322  0.46751439  0.15013014  1.0
  C  C23  1  0.37176662  0.45626291  0.84998392  1.0
  C  C24  1  0.61224353  0.38989621  0.84433508  1.0
  C  C25  1  0.38276278  0.41261641  0.15932368  1.0
  C  C26  1  0.62461430  0.49160083  0.22677210  1.0
  C  C27  1  0.37487876  0.47508751  0.77237598  1.0
  C  C28  1  0.60995239  0.41096069  0.76697647  1.0
  C  C29  1  0.38690589  0.43864146  0.23564340  1.0
  C  C30  1  0.50600203  0.48012901  0.27283651  1.0
  C  C31  1  0.49376881  0.45649515  0.72759308  1.0
  C  C32  1  0.07192929  0.52809976  0.43492901  1.0
  C  C33  1  0.93270746  0.48903584  0.56588474  1.0
  C  C34  1  0.07691447  0.49102591  0.56444713  1.0
  C  C35  1  0.92773072  0.52628396  0.43640249  1.0
  C  C36  1  0.50318599  0.42873542  0.11525437  1.0
  C  C37  1  0.49258523  0.41552190  0.88716867  1.0
  C  C38  1  0.37169143  0.13994880  0.61722406  1.0
  C  C39  1  0.62677476  0.88119568  0.37934999  1.0
  C  C40  1  0.38004425  0.88496433  0.62390212  1.0
  C  C41  1  0.61552462  0.13720495  0.37389542  1.0
  N  N42  1  0.85996369  0.50692734  0.50195102  1.0
  N  N43  1  0.14462680  0.51084128  0.49891258  1.0
  N  N44  1  0.31862215  0.19346929  0.66598945  1.0
  N  N45  1  0.67864365  0.83268713  0.32819706  1.0
  N  N46  1  0.33415597  0.83896295  0.67825931  1.0
  N  N47  1  0.65969588  0.19071728  0.32180761  1.0
  O  O48  1  0.61186746  0.32054485  0.51413803  1.0
  O  O49  1  0.38825997  0.69580407  0.51586674  1.0
  O  O50  1  0.62077648  0.69514884  0.49275899  1.0
  O  O51  1  0.38559248  0.32607508  0.47697425  1.0
  O  O52  1  0.61258004  0.51790199  0.61634600  1.0
  O  O53  1  0.39401050  0.54215749  0.38544214  1.0
  O  O54  1  0.61993867  0.48682271  0.39069357  1.0
  O  O55  1  0.38516610  0.47154071  0.60813313  1.0
  F  F56  1  0.74445753  0.53149840  0.25721320  1.0
  F  F57  1  0.25709184  0.51785176  0.73965413  1.0
  F  F58  1  0.72749326  0.38367162  0.72794472  1.0
  F  F59  1  0.26839970  0.41988379  0.27581178  1.0
