# generated using pymatgen
data_ZnH15C24NO4
_symmetry_space_group_name_H-M   'P 1'
_cell_length_a   11.04316097
_cell_length_b   18.26452632
_cell_length_c   19.70560234
_cell_angle_alpha   89.90578315
_cell_angle_beta   90.01466793
_cell_angle_gamma   89.88918379
_symmetry_Int_Tables_number   1
_chemical_formula_structural   ZnH15C24NO4
_chemical_formula_sum   'Zn2 H30 C48 N2 O8'
_cell_volume   3974.56969276
_cell_formula_units_Z   2
loop_
 _symmetry_equiv_pos_site_id
 _symmetry_equiv_pos_as_xyz
  1  'x, y, z'
loop_
 _atom_site_type_symbol
 _atom_site_label
 _atom_site_symmetry_multiplicity
 _atom_site_fract_x
 _atom_site_fract_y
 _atom_site_fract_z
 _atom_site_occupancy
  Zn  Zn0  1  0.49991758  0.42370148  0.50028522  1.0
  Zn  Zn1  1  0.49962673  0.57613827  0.49905578  1.0
  H  H2  1  0.11219051  0.56526881  0.41651621  1.0
  H  H3  1  0.69289455  0.93220103  0.51847111  1.0
  H  H4  1  0.63670379  0.82867737  0.57888916  1.0
  H  H5  1  0.36393684  0.83020693  0.42125966  1.0
  H  H6  1  0.63163642  0.69163711  0.57407954  1.0
  H  H7  1  0.36795434  0.69311594  0.42533444  1.0
  H  H8  1  0.22631298  0.43114584  0.61617818  1.0
  H  H9  1  0.77474282  0.43285348  0.61776704  1.0
  H  H10  1  0.11461326  0.37776488  0.71252064  1.0
  H  H11  1  0.88807361  0.37860906  0.71341693  1.0
  H  H12  1  0.50847985  0.61686614  0.71710930  1.0
  H  H13  1  0.88538910  0.56563384  0.41722014  1.0
  H  H14  1  0.50567543  0.61700332  0.28195775  1.0
  H  H15  1  0.50887569  0.61757254  0.84392878  1.0
  H  H16  1  0.50702829  0.61708718  0.15514791  1.0
  H  H17  1  0.49653171  0.38183469  0.84439429  1.0
  H  H18  1  0.49394400  0.38138673  0.15633042  1.0
  H  H19  1  0.49629931  0.38243446  0.71761609  1.0
  H  H20  1  0.49248752  0.38260492  0.28314278  1.0
  H  H21  1  0.36380546  0.41681079  0.93680439  1.0
  H  H22  1  0.36296719  0.41647095  0.06239857  1.0
  H  H23  1  0.64032010  0.58171093  0.06315652  1.0
  H  H24  1  0.63374624  0.30719119  0.57366443  1.0
  H  H25  1  0.64126072  0.58203754  0.93755785  1.0
  H  H26  1  0.36748290  0.30753641  0.42624385  1.0
  H  H27  1  0.63796324  0.17025180  0.57847261  1.0
  H  H28  1  0.36282806  0.17053596  0.42210489  1.0
  H  H29  1  0.30778860  0.06761421  0.48249922  1.0
  H  H30  1  0.69283993  0.06715081  0.51844908  1.0
  H  H31  1  0.30786149  0.93268481  0.48242129  1.0
  C  C32  1  0.49778961  0.50035157  0.36611989  1.0
  C  C33  1  0.49842258  0.49983108  0.29004207  1.0
  C  C34  1  0.42606212  0.45223288  0.96445450  1.0
  C  C35  1  0.42558095  0.45202828  0.03506548  1.0
  C  C36  1  0.50145692  0.49912366  0.07198190  1.0
  C  C37  1  0.50245847  0.49954226  0.92795191  1.0
  C  C38  1  0.57801183  0.54634038  0.03547895  1.0
  C  C39  1  0.57851019  0.54654331  0.96487611  1.0
  C  C40  1  0.57524861  0.27412672  0.54135617  1.0
  C  C41  1  0.42570669  0.27430778  0.45878806  1.0
  C  C42  1  0.57763481  0.19812760  0.54304728  1.0
  C  C43  1  0.50212145  0.49920177  0.63384974  1.0
  C  C44  1  0.42310549  0.19830810  0.45743728  1.0
  C  C45  1  0.50034376  0.15817975  0.50032695  1.0
  C  C46  1  0.26284581  0.50009550  0.50251790  1.0
  C  C47  1  0.73659705  0.50067244  0.50355938  1.0
  C  C48  1  0.39287839  0.03810787  0.48933013  1.0
  C  C49  1  0.60780731  0.03783717  0.51153459  1.0
  C  C50  1  0.39291867  0.96199412  0.48928403  1.0
  C  C51  1  0.60783395  0.96171134  0.51152655  1.0
  C  C52  1  0.50041077  0.92238145  0.50034188  1.0
  C  C53  1  0.50033438  0.07743733  0.50040572  1.0
  C  C54  1  0.50278789  0.49970423  0.85305857  1.0
  C  C55  1  0.57678990  0.80117590  0.54319512  1.0
  C  C56  1  0.42353176  0.80201282  0.45686420  1.0
  C  C57  1  0.57395030  0.72517416  0.54149299  1.0
  C  C58  1  0.42569857  0.72601162  0.45820906  1.0
  C  C59  1  0.50029504  0.84163017  0.50015161  1.0
  C  C60  1  0.12771129  0.43188131  0.61639150  1.0
  C  C61  1  0.87338737  0.43254446  0.61717452  1.0
  C  C62  1  0.06496943  0.40162085  0.66999492  1.0
  C  C63  1  0.93693116  0.40199168  0.67043464  1.0
  C  C64  1  0.93499662  0.46500440  0.56134425  1.0
  C  C65  1  0.50046712  0.49921955  0.14687009  1.0
  C  C66  1  0.06527402  0.46476142  0.56097768  1.0
  C  C67  1  0.12729917  0.50051497  0.50665173  1.0
  C  C68  1  0.87212720  0.50089312  0.50735049  1.0
  C  C69  1  0.06292011  0.53702789  0.45671641  1.0
  C  C70  1  0.93556133  0.53723405  0.45706382  1.0
  C  C71  1  0.50693943  0.56578001  0.74575586  1.0
  C  C72  1  0.50345374  0.56579585  0.25368291  1.0
  C  C73  1  0.50760767  0.56578460  0.81636987  1.0
  C  C74  1  0.50499801  0.56545544  0.18310059  1.0
  C  C75  1  0.49800368  0.43359200  0.81663907  1.0
  C  C76  1  0.49495323  0.43328898  0.18372722  1.0
  C  C77  1  0.49860227  0.43353705  0.74606458  1.0
  C  C78  1  0.49459885  0.43356707  0.25433886  1.0
  C  C79  1  0.50276362  0.49964736  0.70989503  1.0
  N  N80  1  0.50052303  0.31152655  0.49998308  1.0
  N  N81  1  0.49960367  0.68829517  0.49977855  1.0
  O  O82  1  0.49688095  0.43849615  0.39623116  1.0
  O  O83  1  0.50167861  0.43668971  0.60504323  1.0
  O  O84  1  0.49852948  0.56275711  0.39497283  1.0
  O  O85  1  0.50180700  0.56095319  0.60364524  1.0
  O  O86  1  0.31509546  0.43787815  0.50281446  1.0
  O  O87  1  0.68445168  0.43856505  0.50327357  1.0
  O  O88  1  0.31463292  0.56213209  0.49833926  1.0
  O  O89  1  0.68477144  0.56285040  0.49978748  1.0
