# generated using pymatgen
data_Al2H10C20S2O17
_symmetry_space_group_name_H-M   'P 1'
_cell_length_a   6.58743240
_cell_length_b   11.02451190
_cell_length_c   12.55385004
_cell_angle_alpha   89.63124873
_cell_angle_beta   77.71504027
_cell_angle_gamma   73.49578573
_symmetry_Int_Tables_number   1
_chemical_formula_structural   Al2H10C20S2O17
_chemical_formula_sum   'Al2 H10 C20 S2 O17'
_cell_volume   852.70088980
_cell_formula_units_Z   1
loop_
 _symmetry_equiv_pos_site_id
 _symmetry_equiv_pos_as_xyz
  1  'x, y, z'
loop_
 _atom_site_type_symbol
 _atom_site_label
 _atom_site_symmetry_multiplicity
 _atom_site_fract_x
 _atom_site_fract_y
 _atom_site_fract_z
 _atom_site_occupancy
  Al  Al0  1  0.99209652  0.49662677  0.47278113  1.0
  Al  Al1  1  0.49364426  0.49617088  0.47108686  1.0
  H  H2  1  0.32619322  0.43623914  0.33990032  1.0
  H  H3  1  0.63885211  0.59204326  0.59766382  1.0
  H  H4  1  0.81030578  0.42614671  0.81207677  1.0
  H  H5  1  0.35192215  0.56203550  0.08875383  1.0
  H  H6  1  0.44291298  0.78974976  0.43611202  1.0
  H  H7  1  0.21219605  0.21621015  0.43502183  1.0
  H  H8  1  0.85862339  0.70169348  0.61764467  1.0
  H  H9  1  0.49801218  0.78724222  0.79818098  1.0
  H  H10  1  0.26192872  0.22826420  0.79805404  1.0
  H  H11  1  0.53408528  0.30311854  0.62230048  1.0
  C  C12  1  0.84070325  0.26664129  0.49568754  1.0
  C  C13  1  0.83069687  0.50383135  0.27769814  1.0
  C  C14  1  0.13470474  0.73097263  0.49587877  1.0
  C  C15  1  0.15648132  0.48773356  0.66830344  1.0
  C  C16  1  0.07750647  0.52614743  0.09712954  1.0
  C  C17  1  0.92487188  0.45604798  0.84888165  1.0
  C  C18  1  0.89357251  0.49934470  0.15939119  1.0
  C  C19  1  0.10215371  0.48733168  0.78753614  1.0
  C  C20  1  0.91737091  0.46900413  0.96131846  1.0
  C  C21  1  0.08845434  0.51015550  0.98361716  1.0
  C  C22  1  0.91624616  0.13664198  0.52919220  1.0
  C  C23  1  0.77882604  0.07023606  0.59722882  1.0
  C  C24  1  0.13593891  0.07102120  0.48563208  1.0
  C  C25  1  0.58656953  0.13457903  0.67304998  1.0
  C  C26  1  0.45883393  0.07176887  0.74230145  1.0
  C  C27  1  0.06369800  0.86624248  0.52912815  1.0
  C  C28  1  0.20972388  0.93519345  0.48584655  1.0
  C  C29  1  0.85208779  0.93313680  0.59688573  1.0
  C  C30  1  0.72358761  0.87329104  0.67189841  1.0
  C  C31  1  0.52833248  0.94005127  0.74178371  1.0
  S  S32  1  0.74244348  0.44958499  0.07906838  1.0
  S  S33  1  0.26024607  0.53201446  0.86566315  1.0
  O  O34  1  0.98422373  0.32414895  0.45573506  1.0
  O  O35  1  0.65088303  0.48219106  0.32258422  1.0
  O  O36  1  0.33916991  0.67452196  0.45868144  1.0
  O  O37  1  0.02163269  0.46324813  0.61858658  1.0
  O  O38  1  0.99265750  0.66963130  0.50081408  1.0
  O  O39  1  0.33058916  0.51378746  0.62197383  1.0
  O  O40  1  0.63752905  0.32148195  0.49992320  1.0
  O  O41  1  0.96226084  0.52833088  0.32975662  1.0
  O  O42  1  0.29093567  0.44045809  0.41938277  1.0
  O  O43  1  0.69342639  0.55275629  0.52422043  1.0
  O  O44  1  0.21935742  0.56339435  0.14259370  1.0
  O  O45  1  0.41609449  0.88380021  0.43349009  1.0
  O  O46  1  0.28631751  0.12301109  0.43300972  1.0
  O  O47  1  0.77992468  0.74571303  0.69044907  1.0
  O  O48  1  0.41257559  0.87663989  0.81215996  1.0
  O  O49  1  0.27404928  0.13912739  0.81290785  1.0
  O  O50  1  0.51226970  0.26380632  0.69390159  1.0
