# generated using pymatgen
data_AlH7(C2O)6
_symmetry_space_group_name_H-M   'P 1'
_cell_length_a   6.59975707
_cell_length_b   11.04287166
_cell_length_c   12.94984617
_cell_angle_alpha   100.31968443
_cell_angle_beta   100.46047165
_cell_angle_gamma   105.90487210
_symmetry_Int_Tables_number   1
_chemical_formula_structural   AlH7(C2O)6
_chemical_formula_sum   'Al2 H14 C24 O12'
_cell_volume   866.03640353
_cell_formula_units_Z   2
loop_
 _symmetry_equiv_pos_site_id
 _symmetry_equiv_pos_as_xyz
  1  'x, y, z'
loop_
 _atom_site_type_symbol
 _atom_site_label
 _atom_site_symmetry_multiplicity
 _atom_site_fract_x
 _atom_site_fract_y
 _atom_site_fract_z
 _atom_site_occupancy
  Al  Al0  1  0.99158269  0.48998352  0.48615987  1.0
  Al  Al1  1  0.49241545  0.49043298  0.48852610  1.0
  H  H2  1  0.34117104  0.65262435  0.56575574  1.0
  H  H3  1  0.64666407  0.39897451  0.35442081  1.0
  H  H4  1  0.48952470  0.25784669  0.64181137  1.0
  H  H5  1  0.72100320  0.16696199  0.75452285  1.0
  H  H6  1  0.21692661  0.79860415  0.65725469  1.0
  H  H7  1  0.58226372  0.93413155  0.76276935  1.0
  H  H8  1  0.13150136  0.43521792  0.79609566  1.0
  H  H9  1  0.60293659  0.58811254  0.81553798  1.0
  H  H10  1  0.66411321  0.59631568  0.01305637  1.0
  H  H11  1  0.86081018  0.54844766  0.17585847  1.0
  H  H12  1  0.38683396  0.39297596  0.15602385  1.0
  H  H13  1  0.32937859  0.38774039  0.95967476  1.0
  H  H14  1  0.54632234  0.77280607  0.43096779  1.0
  H  H15  1  0.77729489  0.19957034  0.43256649  1.0
  C  C16  1  0.82845423  0.50801194  0.67821785  1.0
  C  C17  1  0.85062225  0.72535838  0.50328006  1.0
  C  C18  1  0.15813903  0.47141415  0.29363877  1.0
  C  C19  1  0.15022798  0.26561592  0.49838419  1.0
  C  C20  1  0.07626655  0.13501693  0.51793277  1.0
  C  C21  1  0.21986943  0.08028441  0.57927351  1.0
  C  C22  1  0.85679862  0.06137405  0.47342436  1.0
  C  C23  1  0.43042658  0.15635557  0.64273018  1.0
  C  C24  1  0.56048109  0.10499972  0.70629693  1.0
  C  C25  1  0.92563701  0.86753161  0.52090754  1.0
  C  C26  1  0.78222585  0.92606789  0.47355509  1.0
  C  C27  1  0.14296006  0.94643141  0.58197420  1.0
  C  C28  1  0.27839135  0.89784941  0.65014568  1.0
  C  C29  1  0.48340145  0.97473759  0.71066633  1.0
  C  C30  1  0.02921142  0.46886294  0.84425608  1.0
  C  C31  1  0.73081895  0.55618927  0.85663688  1.0
  C  C32  1  0.76451363  0.55983167  0.96527014  1.0
  C  C33  1  0.92912028  0.51522629  0.01719616  1.0
  C  C34  1  0.96275008  0.51404093  0.12791529  1.0
  C  C35  1  0.26014692  0.42625323  0.11563435  1.0
  C  C36  1  0.22849259  0.42397573  0.00727229  1.0
  C  C37  1  0.06403221  0.46857869  0.95518840  1.0
  C  C38  1  0.86503951  0.51091278  0.79550483  1.0
  C  C39  1  0.12508383  0.47067413  0.17671983  1.0
  O  O40  1  0.96724241  0.48115724  0.62934220  1.0
  O  O41  1  0.64242253  0.66567447  0.47584037  1.0
  O  O42  1  0.33097263  0.45205166  0.33960262  1.0
  O  O43  1  0.00127886  0.31590714  0.46509072  1.0
  O  O44  1  0.01115369  0.49126185  0.33999099  1.0
  O  O45  1  0.35015164  0.32459473  0.50978922  1.0
  O  O46  1  0.66052272  0.53318849  0.63401369  1.0
  O  O47  1  0.98929455  0.66529635  0.51277456  1.0
  O  O48  1  0.29144949  0.55927099  0.53718623  1.0
  O  O49  1  0.69092536  0.42356180  0.43291938  1.0
  O  O50  1  0.57415570  0.86335578  0.42124379  1.0
  O  O51  1  0.70445308  0.10437382  0.42383312  1.0
