# generated using pymatgen
data_Zn2H15C24Br5(N3O4)2
_symmetry_space_group_name_H-M   'P 1'
_cell_length_a   10.10868503
_cell_length_b   11.05598329
_cell_length_c   12.15626108
_cell_angle_alpha   90.56443078
_cell_angle_beta   106.82101726
_cell_angle_gamma   98.94282518
_symmetry_Int_Tables_number   1
_chemical_formula_structural   Zn2H15C24Br5(N3O4)2
_chemical_formula_sum   'Zn2 H15 C24 Br5 N6 O8'
_cell_volume   1282.50091368
_cell_formula_units_Z   1
loop_
 _symmetry_equiv_pos_site_id
 _symmetry_equiv_pos_as_xyz
  1  'x, y, z'
loop_
 _atom_site_type_symbol
 _atom_site_label
 _atom_site_symmetry_multiplicity
 _atom_site_fract_x
 _atom_site_fract_y
 _atom_site_fract_z
 _atom_site_occupancy
  Zn  Zn0  1  0.87938932  0.50156995  0.52094515  1.0
  Zn  Zn1  1  0.13179401  0.51226525  0.45527171  1.0
  H  H2  1  0.93146083  0.40117014  0.07358064  1.0
  H  H3  1  0.19389987  0.03233780  0.50774219  1.0
  H  H4  1  0.25278372  0.89545883  0.54416690  1.0
  H  H5  1  0.51529770  0.44487113  0.69687793  1.0
  H  H6  1  0.35432632  0.49912266  0.65967902  1.0
  H  H7  1  0.21549876  0.19653705  0.71422979  1.0
  H  H8  1  0.11593924  0.30137752  0.73859302  1.0
  H  H9  1  0.83927299  0.86559671  0.35456836  1.0
  H  H10  1  0.68035021  0.59833453  0.57326583  1.0
  H  H11  1  0.61525426  0.51523431  0.20078497  1.0
  H  H12  1  0.08091516  0.65118058  0.88626727  1.0
  H  H13  1  0.46577389  0.61831705  0.14211492  1.0
  H  H14  1  0.24337380  0.69986441  0.08640100  1.0
  H  H15  1  0.91684297  0.13588381  0.64578434  1.0
  H  H16  1  0.93511976  0.99632107  0.59891280  1.0
  C  C17  1  0.03289580  0.74187054  0.47611514  1.0
  C  C18  1  0.19734251  0.52167063  0.84322007  1.0
  C  C19  1  0.04424524  0.87844121  0.46769735  1.0
  C  C20  1  0.11794429  0.52326358  0.71781615  1.0
  C  C21  1  0.93213280  0.92802509  0.40463548  1.0
  C  C22  1  0.95904007  0.13448238  0.49395682  1.0
  C  C23  1  0.93871365  0.05925584  0.39922120  1.0
  C  C24  1  0.43779344  0.47689051  0.52723605  1.0
  C  C25  1  0.56777797  0.44401565  0.50668535  1.0
  C  C26  1  0.97943831  0.27204851  0.49800498  1.0
  C  C27  1  0.87438486  0.47264086  0.27249525  1.0
  C  C28  1  0.41209877  0.49331767  0.99162935  1.0
  C  C29  1  0.72227020  0.37177725  0.95565133  1.0
  C  C30  1  0.77899559  0.45005851  0.15240045  1.0
  C  C31  1  0.17089180  0.60466382  0.91804970  1.0
  C  C32  1  0.26343323  0.63338131  0.02889956  1.0
  C  C33  1  0.38568014  0.58335279  0.06226398  1.0
  C  C34  1  0.31166830  0.45646825  0.88335967  1.0
  C  C35  1  0.54443711  0.44726713  0.02238404  1.0
  C  C36  1  0.57729082  0.37669223  0.93670960  1.0
  C  C37  1  0.46075934  0.31700810  0.84466783  1.0
  C  C38  1  0.32696733  0.34722437  0.82284319  1.0
  C  C39  1  0.64331611  0.47449226  0.13056846  1.0
  C  C40  1  0.82145588  0.40675186  0.06100495  1.0
  Br  Br41  1  0.54970602  0.28435388  0.44417217  1.0
  Br  Br42  1  0.34588633  0.50772526  0.29499868  1.0
  Br  Br43  1  0.47123139  0.16867152  0.76698834  1.0
  Br  Br44  1  0.79252394  0.33715286  0.83007611  1.0
  Br  Br45  1  0.90684998  0.12288501  0.24833922  1.0
  N  N46  1  0.32855782  0.49863144  0.44574433  1.0
  N  N47  1  0.68547832  0.51522732  0.53765056  1.0
  N  N48  1  0.96731548  0.08879517  0.60255530  1.0
  N  N49  1  0.17237814  0.94380816  0.52769626  1.0
  N  N50  1  0.44488178  0.48688581  0.63895853  1.0
  N  N51  1  0.21159998  0.27775239  0.75167361  1.0
  O  O52  1  0.91637634  0.68298959  0.48023088  1.0
  O  O53  1  0.14314167  0.69684329  0.48016280  1.0
  O  O54  1  0.99223752  0.54254696  0.69140982  1.0
  O  O55  1  0.18544268  0.51124160  0.64524564  1.0
  O  O56  1  0.90995137  0.32204136  0.55330901  1.0
  O  O57  1  0.06829303  0.32710363  0.45283928  1.0
  O  O58  1  0.81258888  0.45524079  0.35028792  1.0
  O  O59  1  0.00533049  0.50624797  0.28920764  1.0
