# generated using pymatgen
data_Ni3H12C8(N3O7)2
_symmetry_space_group_name_H-M   'P 1'
_cell_length_a   11.86719507
_cell_length_b   11.87035102
_cell_length_c   16.21663325
_cell_angle_alpha   89.99222645
_cell_angle_beta   89.99649536
_cell_angle_gamma   60.02452124
_symmetry_Int_Tables_number   1
_chemical_formula_structural   Ni3H12C8(N3O7)2
_chemical_formula_sum   'Ni9 H36 C24 N18 O42'
_cell_volume   1978.83791686
_cell_formula_units_Z   3
loop_
 _symmetry_equiv_pos_site_id
 _symmetry_equiv_pos_as_xyz
  1  'x, y, z'
loop_
 _atom_site_type_symbol
 _atom_site_label
 _atom_site_symmetry_multiplicity
 _atom_site_fract_x
 _atom_site_fract_y
 _atom_site_fract_z
 _atom_site_occupancy
  Ni  Ni0  1  0.99998479  0.60605364  0.99988957  1.0
  Ni  Ni1  1  0.39358042  0.00024772  0.33324039  1.0
  Ni  Ni2  1  0.60606471  0.39395327  0.66674912  1.0
  Ni  Ni3  1  0.49667503  0.02916030  0.13445679  1.0
  Ni  Ni4  1  0.47375785  0.49689982  0.46766480  1.0
  Ni  Ni5  1  0.02952827  0.47375609  0.80094049  1.0
  Ni  Ni6  1  0.52602877  0.97078090  0.53236457  1.0
  Ni  Ni7  1  0.97027458  0.50325958  0.19897878  1.0
  Ni  Ni8  1  0.50327232  0.52625472  0.86571896  1.0
  H  H9  1  0.54628363  0.05226148  0.98208486  1.0
  H  H10  1  0.40148186  0.54590025  0.31545421  1.0
  H  H11  1  0.05304026  0.40079870  0.64863207  1.0
  H  H12  1  0.59853716  0.94742768  0.68457572  1.0
  H  H13  1  0.94670504  0.45405222  0.35111259  1.0
  H  H14  1  0.45380881  0.59914475  0.01806208  1.0
  H  H15  1  0.39383580  0.16694248  0.00615374  1.0
  H  H16  1  0.43875101  0.39371737  0.33954978  1.0
  H  H17  1  0.16752074  0.43877517  0.67259376  1.0
  H  H18  1  0.56111607  0.83257390  0.66052178  1.0
  H  H19  1  0.83269617  0.60652862  0.32717104  1.0
  H  H20  1  0.60627169  0.56113803  0.99412320  1.0
  H  H21  1  0.53448615  0.17398702  0.24656266  1.0
  H  H22  1  0.29119202  0.53514560  0.58007133  1.0
  H  H23  1  0.17403413  0.29106314  0.91317246  1.0
  H  H24  1  0.70927604  0.82646727  0.42006380  1.0
  H  H25  1  0.82606816  0.46499981  0.08659745  1.0
  H  H26  1  0.46522284  0.70891320  0.75355183  1.0
  H  H27  1  0.44857547  0.83615772  0.07085178  1.0
  H  H28  1  0.71546420  0.44787344  0.40393174  1.0
  H  H29  1  0.83670476  0.71526583  0.73711995  1.0
  H  H30  1  0.28422941  0.16319330  0.59609572  1.0
  H  H31  1  0.16351260  0.55164365  0.26269922  1.0
  H  H32  1  0.55187595  0.28460537  0.92936498  1.0
  H  H33  1  0.65829762  0.11057363  0.18879087  1.0
  H  H34  1  0.23073958  0.65887226  0.52223271  1.0
  H  H35  1  0.11106991  0.23042798  0.85517038  1.0
  H  H36  1  0.76931453  0.88976080  0.47831802  1.0
  H  H37  1  0.88888496  0.34157844  0.14473630  1.0
  H  H38  1  0.34149017  0.76941786  0.81138789  1.0
  H  H39  1  0.37998549  0.88817077  0.15754135  1.0
  H  H40  1  0.73175702  0.37945612  0.49063156  1.0
  H  H41  1  0.88862308  0.73168871  0.82385669  1.0
  H  H42  1  0.26796430  0.11126419  0.50931986  1.0
  H  H43  1  0.11135716  0.62012952  0.17599774  1.0
  H  H44  1  0.62013546  0.26833267  0.84261629  1.0
  C  C45  1  0.72784007  0.79116180  0.17763257  1.0
  C  C46  1  0.48153312  0.72742835  0.51112045  1.0
  C  C47  1  0.79135878  0.48125697  0.84428921  1.0
  C  C48  1  0.51828435  0.20907320  0.48890382  1.0
  C  C49  1  0.20821833  0.27257146  0.15554494  1.0
  C  C50  1  0.27260870  0.51877817  0.82237747  1.0
  C  C51  1  0.76034114  0.81650789  0.05107966  1.0
  C  C52  1  0.42349959  0.76020708  0.38462099  1.0
  C  C53  1  0.81673319  0.42292706  0.71785901  1.0
  C  C54  1  0.57652371  0.18372129  0.61537084  1.0
  C  C55  1  0.18306530  0.23969401  0.28204010  1.0
  C  C56  1  0.23966383  0.57704906  0.94882943  1.0
  C  C57  1  0.66310678  0.82860637  0.25917621  1.0
  C  C58  1  0.50947598  0.66210746  0.59243649  1.0
  C  C59  1  0.82872572  0.50916371  0.92562015  1.0
  C  C60  1  0.49025157  0.17173944  0.40760212  1.0
  C  C61  1  0.17113470  0.33792307  0.07422232  1.0
  C  C62  1  0.33787547  0.49091926  0.74103314  1.0
  C  C63  1  0.76411515  0.85496734  0.96351244  1.0
  C  C64  1  0.38154506  0.76377636  0.29700369  1.0
  C  C65  1  0.85509418  0.38056368  0.63030817  1.0
  C  C66  1  0.61863389  0.14529177  0.70296150  1.0
  C  C67  1  0.14471605  0.23587512  0.36961851  1.0
  C  C68  1  0.23564259  0.61940413  0.03639204  1.0
  N  N69  1  0.85696415  0.70060793  0.07598176  1.0
  N  N70  1  0.44268750  0.85692000  0.40957224  1.0
  N  N71  1  0.70080796  0.44223336  0.74287262  1.0
  N  N72  1  0.55730115  0.29963019  0.59042754  1.0
  N  N73  1  0.29904827  0.14316736  0.25711973  1.0
  N  N74  1  0.14301100  0.55779185  0.92378974  1.0
  N  N75  1  0.67593741  0.87605710  0.11343247  1.0
  N  N76  1  0.44857248  0.67558484  0.44690081  1.0
  N  N77  1  0.87629481  0.44809404  0.78005861  1.0
  N  N78  1  0.55132850  0.12423958  0.55310310  1.0
  N  N79  1  0.12339262  0.32425327  0.21976969  1.0
  N  N80  1  0.32438851  0.55189697  0.88663030  1.0
  N  N81  1  0.83811480  0.68301875  0.15550449  1.0
  N  N82  1  0.47918540  0.83790962  0.48904570  1.0
  N  N83  1  0.68319109  0.47901821  0.82231739  1.0
  N  N84  1  0.52067140  0.31718671  0.51097573  1.0
  N  N85  1  0.31651462  0.16229687  0.17751371  1.0
  N  N86  1  0.16217584  0.52104130  0.84434000  1.0
  O  O87  1  0.54984604  0.93130078  0.25480715  1.0
  O  O88  1  0.51976567  0.54875907  0.58773930  1.0
  O  O89  1  0.93171510  0.51963374  0.92093448  1.0
  O  O90  1  0.47982892  0.06874787  0.41231683  1.0
  O  O91  1  0.06821416  0.45136443  0.07885929  1.0
  O  O92  1  0.45131021  0.48050413  0.74571396  1.0
  O  O93  1  0.87357985  0.77734740  0.92790410  1.0
  O  O94  1  0.34931208  0.87337727  0.26140465  1.0
  O  O95  1  0.77725964  0.34883489  0.59478561  1.0
  O  O96  1  0.65080318  0.22273570  0.73855557  1.0
  O  O97  1  0.22227839  0.12629761  0.40520358  1.0
  O  O98  1  0.12605546  0.65117170  0.07189535  1.0
  O  O99  1  0.71664327  0.76768988  0.32426800  1.0
  O  O100  1  0.51807342  0.71464817  0.65760813  1.0
  O  O101  1  0.76764859  0.51746584  0.99077890  1.0
  O  O102  1  0.48176428  0.23283115  0.34242052  1.0
  O  O103  1  0.23248102  0.28524003  0.00914223  1.0
  O  O104  1  0.28512910  0.48260131  0.67587755  1.0
  O  O105  1  0.56392768  0.15279236  0.18791710  1.0
  O  O106  1  0.28283327  0.56452723  0.52140005  1.0
  O  O107  1  0.15298726  0.28287792  0.85449284  1.0
  O  O108  1  0.71701938  0.84766887  0.47881336  1.0
  O  O109  1  0.84685343  0.43590743  0.14533503  1.0
  O  O110  1  0.43585287  0.71721064  0.81220667  1.0
  O  O111  1  0.40305861  0.91463204  0.10426459  1.0
  O  O112  1  0.68234578  0.40244663  0.43734179  1.0
  O  O113  1  0.91516261  0.68224293  0.77059040  1.0
  O  O114  1  0.31738019  0.08476430  0.56260918  1.0
  O  O115  1  0.08501705  0.59697568  0.22926392  1.0
  O  O116  1  0.59723180  0.31774487  0.89589976  1.0
  O  O117  1  0.48577207  0.11756963  0.02425653  1.0
  O  O118  1  0.39594338  0.48571660  0.35754128  1.0
  O  O119  1  0.11854311  0.39578356  0.69070370  1.0
  O  O120  1  0.60389426  0.88181690  0.64248257  1.0
  O  O121  1  0.88101842  0.51448443  0.30915106  1.0
  O  O122  1  0.51433716  0.60411340  0.97599791  1.0
  O  O123  1  0.66896785  0.94999551  0.93066456  1.0
  O  O124  1  0.38229800  0.66837224  0.26409898  1.0
  O  O125  1  0.95019123  0.38048557  0.59737073  1.0
  O  O126  1  0.61806521  0.05053107  0.73587440  1.0
  O  O127  1  0.04988831  0.33105425  0.40251978  1.0
  O  O128  1  0.33064862  0.61945469  0.06935298  1.0
