# generated using pymatgen
data_Al4H28C46O25
_symmetry_space_group_name_H-M   'P 1'
_cell_length_a   6.67905703
_cell_length_b   18.05112151
_cell_length_c   20.82829412
_cell_angle_alpha   72.22194562
_cell_angle_beta   89.34006513
_cell_angle_gamma   88.74899007
_symmetry_Int_Tables_number   1
_chemical_formula_structural   Al4H28C46O25
_chemical_formula_sum   'Al4 H28 C46 O25'
_cell_volume   2390.63469748
_cell_formula_units_Z   1
loop_
 _symmetry_equiv_pos_site_id
 _symmetry_equiv_pos_as_xyz
  1  'x, y, z'
loop_
 _atom_site_type_symbol
 _atom_site_label
 _atom_site_symmetry_multiplicity
 _atom_site_fract_x
 _atom_site_fract_y
 _atom_site_fract_z
 _atom_site_occupancy
  Al  Al0  1  0.11805063  0.49937369  0.50078985  1.0
  Al  Al1  1  0.61814890  0.49850353  0.50116732  1.0
  Al  Al2  1  0.62596849  0.99938181  0.00022658  1.0
  Al  Al3  1  0.12597170  0.99931495  0.99979412  1.0
  H  H4  1  0.22338496  0.27551727  0.27255475  1.0
  H  H5  1  0.03271600  0.31506517  0.14498645  1.0
  H  H6  1  0.52845126  0.21516557  0.23379869  1.0
  H  H7  1  0.02638206  0.78715715  0.77414152  1.0
  H  H8  1  0.54288566  0.68129391  0.85191064  1.0
  H  H9  1  0.15134445  0.10580206  0.34720471  1.0
  H  H10  1  0.11492292  0.61658478  0.84964171  1.0
  H  H11  1  0.77875568  0.66745739  0.71870763  1.0
  H  H12  1  0.54203840  0.04069826  0.48849158  1.0
  H  H13  1  0.33568267  0.09192584  0.44215167  1.0
  H  H14  1  0.39926120  0.99640217  0.43947890  1.0
  H  H15  1  0.51422275  0.09418763  0.33290537  1.0
  H  H16  1  0.72102953  0.04495693  0.37910737  1.0
  H  H17  1  0.79165745  0.15608518  0.42104549  1.0
  H  H18  1  0.56546373  0.20330776  0.38798026  1.0
  H  H19  1  0.59916958  0.38406740  0.16018882  1.0
  H  H20  1  0.03554707  0.95636035  0.51275421  1.0
  H  H21  1  0.82085406  0.91496131  0.56019131  1.0
  H  H22  1  0.89614826  0.00953100  0.55788574  1.0
  H  H23  1  0.99899824  0.91263001  0.66788265  1.0
  H  H24  1  0.21073368  0.95337913  0.62101147  1.0
  H  H25  1  0.26314866  0.83748767  0.58188237  1.0
  H  H26  1  0.03627854  0.79740997  0.62009344  1.0
  H  H27  1  0.70347295  0.88215922  0.69079049  1.0
  H  H28  1  0.37229488  0.40879381  0.48787277  1.0
  H  H29  1  0.86188448  0.59913361  0.46235022  1.0
  H  H30  1  0.37016742  0.09338223  0.00651335  1.0
  H  H31  1  0.88064451  0.90478806  0.99439934  1.0
  C  C32  1  0.36428135  0.57575907  0.57687985  1.0
  C  C33  1  0.36373415  0.60685855  0.39659595  1.0
  C  C34  1  0.87228557  0.41877508  0.42591425  1.0
  C  C35  1  0.87443949  0.39415217  0.60493047  1.0
  C  C36  1  0.87406624  0.33243669  0.66811236  1.0
  C  C37  1  0.87281254  0.27962642  0.72137246  1.0
  C  C38  1  0.87176875  0.22149666  0.78028338  1.0
  C  C39  1  0.87092793  0.16892309  0.83372918  1.0
  C  C40  1  0.78643260  0.20561696  0.31346649  1.0
  C  C41  1  0.97998010  0.17817008  0.28152420  1.0
  C  C42  1  0.86910337  0.11771767  0.12600652  1.0
  C  C43  1  0.87746724  0.37365444  0.37971644  1.0
  C  C44  1  0.68243375  0.22880205  0.24288174  1.0
  C  C45  1  0.87229216  0.20025356  0.21050967  1.0
  C  C46  1  0.77211806  0.31216048  0.22513282  1.0
  C  C47  1  0.87996731  0.29032747  0.29591567  1.0
  C  C48  1  0.96418135  0.28449774  0.19352238  1.0
  C  C49  1  0.06955650  0.26176039  0.26357192  1.0
  C  C50  1  0.87110768  0.15528267  0.16565085  1.0
  C  C51  1  0.87940035  0.33559737  0.34042456  1.0
  C  C52  1  0.46830469  0.81849383  0.71469825  1.0
  C  C53  1  0.26970389  0.79285822  0.68919042  1.0
  C  C54  1  0.35890195  0.62075202  0.62323049  1.0
  C  C55  1  0.38576930  0.88096301  0.87405459  1.0
  C  C56  1  0.55797333  0.73379758  0.73237298  1.0
  C  C57  1  0.36046735  0.70632635  0.70502541  1.0
  C  C58  1  0.46561932  0.71270154  0.80516054  1.0
  C  C59  1  0.37417989  0.79806131  0.79000390  1.0
  C  C60  1  0.26765655  0.68722177  0.77825378  1.0
  C  C61  1  0.17833149  0.77196212  0.76199738  1.0
  C  C62  1  0.35460935  0.65996932  0.66160918  1.0
  C  C63  1  0.38168978  0.84284587  0.83478430  1.0
  C  C64  1  0.36659924  0.66821043  0.33323001  1.0
  C  C65  1  0.37024328  0.72059024  0.27967463  1.0
  C  C66  1  0.37421052  0.77822970  0.22046244  1.0
  C  C67  1  0.37828551  0.83034123  0.16676858  1.0
  C  C68  1  0.38067585  0.89133723  0.10302074  1.0
  C  C69  1  0.38139054  0.92413120  0.92175847  1.0
  C  C70  1  0.87041903  0.10750565  0.89716768  1.0
  C  C71  1  0.87199640  0.07451465  0.07829086  1.0
  C  C72  1  0.68568034  0.16452589  0.37897474  1.0
  C  C73  1  0.59817833  0.08631589  0.37987585  1.0
  C  C74  1  0.46155411  0.05184342  0.44059229  1.0
  C  C75  1  0.16208334  0.83389635  0.62497671  1.0
  C  C76  1  0.08365551  0.91551227  0.62129333  1.0
  C  C77  1  0.95162807  0.95116936  0.55965896  1.0
  O  O78  1  0.53321273  0.58552331  0.42435238  1.0
  O  O79  1  0.19697009  0.56304038  0.55392964  1.0
  O  O80  1  0.04399746  0.42151826  0.58265629  1.0
  O  O81  1  0.19242948  0.58071997  0.41867955  1.0
  O  O82  1  0.04041084  0.43287050  0.44788855  1.0
  O  O83  1  0.53643605  0.55371559  0.56216893  1.0
  O  O84  1  0.37010040  0.45287674  0.50530873  1.0
  O  O85  1  0.69918507  0.43977624  0.44121336  1.0
  O  O86  1  0.70494359  0.41450133  0.57725636  1.0
  O  O87  1  0.86541374  0.54583072  0.49170281  1.0
  O  O88  1  0.20886023  0.94435410  0.93813069  1.0
  O  O89  1  0.55177920  0.91704193  0.08063542  1.0
  O  O90  1  0.70361746  0.06105119  0.05622734  1.0
  O  O91  1  0.54896323  0.93753321  0.94435078  1.0
  O  O92  1  0.69971478  0.08169785  0.91996197  1.0
  O  O93  1  0.21101062  0.91229243  0.07554213  1.0
  O  O94  1  0.37347109  0.04525035  0.99500364  1.0
  O  O95  1  0.04069176  0.08620547  0.92408801  1.0
  O  O96  1  0.04387984  0.05435538  0.06143600  1.0
  O  O97  1  0.87834405  0.95336680  0.00515574  1.0
  O  O98  1  0.08334060  0.10802095  0.30542655  1.0
  O  O99  1  0.16755966  0.61806550  0.80542700  1.0
  O  O100  1  0.75310983  0.72224469  0.71428189  1.0
  O  O101  1  0.66949995  0.38247356  0.20134092  1.0
  O  O102  1  0.56257363  0.88524138  0.67810656  1.0
