# generated using pymatgen
data_CuSiH16C20(N4F3)2
_symmetry_space_group_name_H-M   'P 1'
_cell_length_a   8.09540160
_cell_length_b   13.10178969
_cell_length_c   13.10174791
_cell_angle_alpha   89.69321896
_cell_angle_beta   85.71328573
_cell_angle_gamma   85.71300637
_symmetry_Int_Tables_number   1
_chemical_formula_structural   CuSiH16C20(N4F3)2
_chemical_formula_sum   'Cu1 Si1 H16 C20 N8 F6'
_cell_volume   1381.86240427
_cell_formula_units_Z   1
loop_
 _symmetry_equiv_pos_site_id
 _symmetry_equiv_pos_as_xyz
  1  'x, y, z'
loop_
 _atom_site_type_symbol
 _atom_site_label
 _atom_site_symmetry_multiplicity
 _atom_site_fract_x
 _atom_site_fract_y
 _atom_site_fract_z
 _atom_site_occupancy
  Cu  Cu0  1  0.50000159  0.49999788  0.49999959  1.0
  Si  Si1  1  0.00000479  0.49999641  0.49999450  1.0
  H  H2  1  0.26310154  0.49998000  0.33786259  1.0
  H  H3  1  0.27372349  0.49988624  0.14643040  1.0
  H  H4  1  0.80710931  0.50001261  0.14300210  1.0
  H  H5  1  0.77773643  0.50004418  0.33540776  1.0
  H  H6  1  0.19289909  0.49999082  0.85700291  1.0
  H  H7  1  0.72628683  0.50011183  0.85356616  1.0
  H  H8  1  0.73689879  0.50001883  0.66213289  1.0
  H  H9  1  0.22226311  0.49996077  0.66459536  1.0
  H  H10  1  0.26310348  0.33786289  0.49997564  1.0
  H  H11  1  0.27371879  0.14643110  0.49988130  1.0
  H  H12  1  0.80710556  0.14299496  0.50001384  1.0
  H  H13  1  0.77773958  0.33540309  0.50004330  1.0
  H  H14  1  0.19289283  0.85699927  0.49999015  1.0
  H  H15  1  0.72628290  0.85356696  0.50010801  1.0
  H  H16  1  0.73690096  0.66213288  0.50001509  1.0
  H  H17  1  0.22226369  0.66459191  0.49995589  1.0
  C  C18  1  0.38094036  0.49997836  0.29198165  1.0
  C  C19  1  0.38708907  0.49994169  0.18600029  1.0
  C  C20  1  0.54217583  0.49995204  0.13070295  1.0
  C  C21  1  0.68523267  0.49999034  0.18426781  1.0
  C  C22  1  0.66954452  0.50000303  0.29080122  1.0
  C  C23  1  0.31477326  0.50001308  0.81573427  1.0
  C  C24  1  0.45783506  0.50005139  0.86929737  1.0
  C  C25  1  0.61291735  0.50005791  0.81399644  1.0
  C  C26  1  0.61906253  0.50001970  0.70801677  1.0
  C  C27  1  0.33045789  0.49999886  0.70920102  1.0
  C  C28  1  0.38093873  0.29197961  0.49997634  1.0
  C  C29  1  0.38708554  0.18600007  0.49993855  1.0
  C  C30  1  0.54217125  0.13070097  0.49994983  1.0
  C  C31  1  0.68523074  0.18426327  0.49998951  1.0
  C  C32  1  0.66954686  0.29079664  0.50000365  1.0
  C  C33  1  0.31476880  0.81573173  0.50001214  1.0
  C  C34  1  0.45782944  0.86929479  0.50004947  1.0
  C  C35  1  0.61291641  0.81399570  0.50005535  1.0
  C  C36  1  0.61906446  0.70801616  0.50001751  1.0
  C  C37  1  0.33045478  0.70920142  0.49999711  1.0
  N  N38  1  0.51990140  0.49999100  0.34333051  1.0
  N  N39  1  0.56649942  0.49993755  0.02240793  1.0
  N  N40  1  0.43351022  0.50006588  0.97759245  1.0
  N  N41  1  0.48009882  0.50000859  0.65666955  1.0
  N  N42  1  0.51990153  0.34332900  0.49998952  1.0
  N  N43  1  0.56649284  0.02240560  0.49993597  1.0
  N  N44  1  0.43350413  0.97759016  0.50006349  1.0
  N  N45  1  0.48010031  0.65666753  0.50000743  1.0
  F  F46  1  0.21495880  0.50105256  0.50104967  1.0
  F  F47  1  0.78505107  0.49893938  0.49894007  1.0
  F  F48  1  0.99999912  0.59250651  0.40748508  1.0
  F  F49  1  0.00000551  0.40748773  0.59250489  1.0
  F  F50  1  0.02478254  0.40747828  0.40747589  1.0
  F  F51  1  0.97522838  0.59251520  0.59251151  1.0
