# generated using pymatgen
data_Zn4H12C24O13
_symmetry_space_group_name_H-M   'P 1'
_cell_length_a   25.74002659
_cell_length_b   25.73997773
_cell_length_c   25.73998167
_cell_angle_alpha   89.99981935
_cell_angle_beta   89.99996375
_cell_angle_gamma   89.99993634
_symmetry_Int_Tables_number   1
_chemical_formula_structural   Zn4H12C24O13
_chemical_formula_sum   'Zn32 H96 C192 O104'
_cell_volume   17053.96594159
_cell_formula_units_Z   8
loop_
 _symmetry_equiv_pos_site_id
 _symmetry_equiv_pos_as_xyz
  1  'x, y, z'
loop_
 _atom_site_type_symbol
 _atom_site_label
 _atom_site_symmetry_multiplicity
 _atom_site_fract_x
 _atom_site_fract_y
 _atom_site_fract_z
 _atom_site_occupancy
  Zn  Zn0  1  0.17188643  0.81326174  0.76793473  1.0
  Zn  Zn1  1  0.82811403  0.68673991  0.26793437  1.0
  Zn  Zn2  1  0.67189015  0.18673883  0.73206607  1.0
  Zn  Zn3  1  0.32811398  0.31326051  0.23206446  1.0
  Zn  Zn4  1  0.81326127  0.76793322  0.17188717  1.0
  Zn  Zn5  1  0.68673777  0.26793416  0.82811496  1.0
  Zn  Zn6  1  0.18673886  0.73206601  0.67188623  1.0
  Zn  Zn7  1  0.31326436  0.23206449  0.32811478  1.0
  Zn  Zn8  1  0.76793433  0.17188471  0.81325921  1.0
  Zn  Zn9  1  0.26793413  0.82811147  0.68673921  1.0
  Zn  Zn10  1  0.73206637  0.67188576  0.18673817  1.0
  Zn  Zn11  1  0.23206588  0.32811204  0.31326188  1.0
  Zn  Zn12  1  0.82811160  0.18673759  0.23206683  1.0
  Zn  Zn13  1  0.17188710  0.31326175  0.73206564  1.0
  Zn  Zn14  1  0.32811253  0.81326205  0.26793472  1.0
  Zn  Zn15  1  0.67188559  0.68673843  0.76793361  1.0
  Zn  Zn16  1  0.18673870  0.23206533  0.82811284  1.0
  Zn  Zn17  1  0.31326258  0.73206556  0.17188661  1.0
  Zn  Zn18  1  0.81326072  0.26793254  0.32811223  1.0
  Zn  Zn19  1  0.68673948  0.76793639  0.67188679  1.0
  Zn  Zn20  1  0.23206447  0.82811384  0.18673770  1.0
  Zn  Zn21  1  0.73206700  0.17188863  0.31326236  1.0
  Zn  Zn22  1  0.26793398  0.32811240  0.81326223  1.0
  Zn  Zn23  1  0.76793603  0.67188767  0.68674007  1.0
  Zn  Zn24  1  0.26568552  0.73431562  0.76568502  1.0
  Zn  Zn25  1  0.73431688  0.76568525  0.26568602  1.0
  Zn  Zn26  1  0.76568566  0.26568445  0.73431456  1.0
  Zn  Zn27  1  0.23431537  0.23431566  0.23431442  1.0
  Zn  Zn28  1  0.73431444  0.26568720  0.23431344  1.0
  Zn  Zn29  1  0.26568425  0.23431602  0.73431516  1.0
  Zn  Zn30  1  0.23431586  0.73431448  0.26568468  1.0
  Zn  Zn31  1  0.76568537  0.76568483  0.76568326  1.0
  H  H32  1  0.16174768  0.82509676  0.93566289  1.0
  H  H33  1  0.18037926  0.83162577  0.03142136  1.0
  H  H34  1  0.29596788  0.72791870  0.91650681  1.0
  H  H35  1  0.31414103  0.73374025  0.01216349  1.0
  H  H36  1  0.83825227  0.67490241  0.43566566  1.0
  H  H37  1  0.81962134  0.66837235  0.53142488  1.0
  H  H38  1  0.70403325  0.77208092  0.41650625  1.0
  H  H39  1  0.68585958  0.76625948  0.51216251  1.0
  H  H40  1  0.66174842  0.17490226  0.56433521  1.0
  H  H41  1  0.68038091  0.16837170  0.46857718  1.0
  H  H42  1  0.79596734  0.27207901  0.58349470  1.0
  H  H43  1  0.81414218  0.26625746  0.48783846  1.0
  H  H44  1  0.33825310  0.32509528  0.06433433  1.0
  H  H45  1  0.31961997  0.33162495  0.96857545  1.0
  H  H46  1  0.20403418  0.22791769  0.08349499  1.0
  H  H47  1  0.18585908  0.23373951  0.98783790  1.0
  H  H48  1  0.82509722  0.93566453  0.16174781  1.0
  H  H49  1  0.83162685  0.03142246  0.18037862  1.0
  H  H50  1  0.72792091  0.91650624  0.29596669  1.0
  H  H51  1  0.73374152  0.01216199  0.31414024  1.0
  H  H52  1  0.67490358  0.43566428  0.83825068  1.0
  H  H53  1  0.66837323  0.53142353  0.81962076  1.0
  H  H54  1  0.77207913  0.41650708  0.70403303  1.0
  H  H55  1  0.76625858  0.51216415  0.68585882  1.0
  H  H56  1  0.17490252  0.56433706  0.66174857  1.0
  H  H57  1  0.16837422  0.46857898  0.68038160  1.0
  H  H58  1  0.27207991  0.58349376  0.79596888  1.0
  H  H59  1  0.26625829  0.48783670  0.81414077  1.0
  H  H60  1  0.32509777  0.06433511  0.33825102  1.0
  H  H61  1  0.33162796  0.96857640  0.31961905  1.0
  H  H62  1  0.22791959  0.08349545  0.20403026  1.0
  H  H63  1  0.23374232  0.98783853  0.18585749  1.0
  H  H64  1  0.93566492  0.16174784  0.82510028  1.0
  H  H65  1  0.03142420  0.18037927  0.83162929  1.0
  H  H66  1  0.91650445  0.29596762  0.72792091  1.0
  H  H67  1  0.01216116  0.31414179  0.73374130  1.0
  H  H68  1  0.43566433  0.83825243  0.67490269  1.0
  H  H69  1  0.53142260  0.81962067  0.66837199  1.0
  H  H70  1  0.41650628  0.70403190  0.77208130  1.0
  H  H71  1  0.51216315  0.68585857  0.76625845  1.0
  H  H72  1  0.56433734  0.66175067  0.17490102  1.0
  H  H73  1  0.46857714  0.68037934  0.16837265  1.0
  H  H74  1  0.58349417  0.79596935  0.27207841  1.0
  H  H75  1  0.48783614  0.81414114  0.26625867  1.0
  H  H76  1  0.06433410  0.33825198  0.32509565  1.0
  H  H77  1  0.96857560  0.31962053  0.33162570  1.0
  H  H78  1  0.08349464  0.20403406  0.22791747  1.0
  H  H79  1  0.98783831  0.18585987  0.23373928  1.0
  H  H80  1  0.83825306  0.17490295  0.06433402  1.0
  H  H81  1  0.81961954  0.16837278  0.96857671  1.0
  H  H82  1  0.70403286  0.27208179  0.08349321  1.0
  H  H83  1  0.68585971  0.26625752  0.98783652  1.0
  H  H84  1  0.16174769  0.32509808  0.56433474  1.0
  H  H85  1  0.18037979  0.33162775  0.46857591  1.0
  H  H86  1  0.29596827  0.22791957  0.58349454  1.0
  H  H87  1  0.31413999  0.23374178  0.48783789  1.0
  H  H88  1  0.33825348  0.82509435  0.43566558  1.0
  H  H89  1  0.31962060  0.83162490  0.53142322  1.0
  H  H90  1  0.20403418  0.72791721  0.41650687  1.0
  H  H91  1  0.18586012  0.73374031  0.51216311  1.0
  H  H92  1  0.66174725  0.67490444  0.93566491  1.0
  H  H93  1  0.68038039  0.66837516  0.03142301  1.0
  H  H94  1  0.79596695  0.77208124  0.91650541  1.0
  H  H95  1  0.81414049  0.76625942  0.01216212  1.0
  H  H96  1  0.17490197  0.06433479  0.83825026  1.0
  H  H97  1  0.16837312  0.96857648  0.81961790  1.0
  H  H98  1  0.27207983  0.08349386  0.70403138  1.0
  H  H99  1  0.26625805  0.98783772  0.68585861  1.0
  H  H100  1  0.32509716  0.56433504  0.16174817  1.0
  H  H101  1  0.33162712  0.46857580  0.18037964  1.0
  H  H102  1  0.22792083  0.58349341  0.29596660  1.0
  H  H103  1  0.23374100  0.48783634  0.31414081  1.0
  H  H104  1  0.82509705  0.43566460  0.33825261  1.0
  H  H105  1  0.83162730  0.53142345  0.31962074  1.0
  H  H106  1  0.72791850  0.41650673  0.20403346  1.0
  H  H107  1  0.73374167  0.51216418  0.18586041  1.0
  H  H108  1  0.67490219  0.93566616  0.66174938  1.0
  H  H109  1  0.66837083  0.03142448  0.68037980  1.0
  H  H110  1  0.77208154  0.91650543  0.79596781  1.0
  H  H111  1  0.76625920  0.01216196  0.81414214  1.0
  H  H112  1  0.06433349  0.83825110  0.17490284  1.0
  H  H113  1  0.96857538  0.81962005  0.16837227  1.0
  H  H114  1  0.08349318  0.70403132  0.27208105  1.0
  H  H115  1  0.98783725  0.68585754  0.26625988  1.0
  H  H116  1  0.56433602  0.16174883  0.32509966  1.0
  H  H117  1  0.46857775  0.18037982  0.33162608  1.0
  H  H118  1  0.58349368  0.29596976  0.22792105  1.0
  H  H119  1  0.48783643  0.31414076  0.23374001  1.0
  H  H120  1  0.43566495  0.33825176  0.82509589  1.0
  H  H121  1  0.53142399  0.31961960  0.83162620  1.0
  H  H122  1  0.41650502  0.20403348  0.72791849  1.0
  H  H123  1  0.51216188  0.18585857  0.73374095  1.0
  H  H124  1  0.93566430  0.66175006  0.67490475  1.0
  H  H125  1  0.03142319  0.68037802  0.66837470  1.0
  H  H126  1  0.91650726  0.79596721  0.77208138  1.0
  H  H127  1  0.01216437  0.81413945  0.76626073  1.0
  C  C128  1  0.21877060  0.77204358  0.86347293  1.0
  C  C129  1  0.22776124  0.77593276  0.92074063  1.0
  C  C130  1  0.19505224  0.80540983  0.95283075  1.0
  C  C131  1  0.20535400  0.80898514  0.00584289  1.0
  C  C132  1  0.27085017  0.75024931  0.94213228  1.0
  C  C133  1  0.28096941  0.75356818  0.99497963  1.0
  C  C134  1  0.25914725  0.78512677  0.08421321  1.0
  C  C135  1  0.24826305  0.78293183  0.02715257  1.0
  C  C136  1  0.78123018  0.72795660  0.36347168  1.0
  C  C137  1  0.77223989  0.72406840  0.42074019  1.0
  C  C138  1  0.80494771  0.69458967  0.45283116  1.0
  C  C139  1  0.79464623  0.69101306  0.50584480  1.0
  C  C140  1  0.72915250  0.74975101  0.44213217  1.0
  C  C141  1  0.71903245  0.74643158  0.49497915  1.0
  C  C142  1  0.74084943  0.71487546  0.58421158  1.0
  C  C143  1  0.75173794  0.71706746  0.52715287  1.0
  C  C144  1  0.71876812  0.22795771  0.63652785  1.0
  C  C145  1  0.72776036  0.22406852  0.57925975  1.0
  C  C146  1  0.69505335  0.19458915  0.54717004  1.0
  C  C147  1  0.70535484  0.19101230  0.49415757  1.0
  C  C148  1  0.77085006  0.24974882  0.55786846  1.0
  C  C149  1  0.78097011  0.24642915  0.50502188  1.0
  C  C150  1  0.75915044  0.21487372  0.41578683  1.0
  C  C151  1  0.74826388  0.21706595  0.47284865  1.0
  C  C152  1  0.28123219  0.27204231  0.13652834  1.0
  C  C153  1  0.27223960  0.27593013  0.07926062  1.0
  C  C154  1  0.30494818  0.30540805  0.04717002  1.0
  C  C155  1  0.29464603  0.30898582  0.99415748  1.0
  C  C156  1  0.22915147  0.25024874  0.05786828  1.0
  C  C157  1  0.21903106  0.25356857  0.00502131  1.0
  C  C158  1  0.24084969  0.28512581  0.91578647  1.0
  C  C159  1  0.25173739  0.28293263  0.97284789  1.0
  C  C160  1  0.77204096  0.86347210  0.21876741  1.0
  C  C161  1  0.77593098  0.92074020  0.22776033  1.0
  C  C162  1  0.80540957  0.95282962  0.19505162  1.0
  C  C163  1  0.80898663  0.00584199  0.20535304  1.0
  C  C164  1  0.75024994  0.94213177  0.27084852  1.0
  C  C165  1  0.75357003  0.99497796  0.28096927  1.0
  C  C166  1  0.78512606  0.08421339  0.25915094  1.0
  C  C167  1  0.78293418  0.02715081  0.24826214  1.0
  C  C168  1  0.72795680  0.36347158  0.78123170  1.0
  C  C169  1  0.72406789  0.42074088  0.77223860  1.0
  C  C170  1  0.69459081  0.45283023  0.80494760  1.0
  C  C171  1  0.69101309  0.50584234  0.79464642  1.0
  C  C172  1  0.74974929  0.44213295  0.72915073  1.0
  C  C173  1  0.74642992  0.49497917  0.71903020  1.0
  C  C174  1  0.71487396  0.58421233  0.74085099  1.0
  C  C175  1  0.71706668  0.52715165  0.75173803  1.0
  C  C176  1  0.22795758  0.63652659  0.71877024  1.0
  C  C177  1  0.22406678  0.57925807  0.72776179  1.0
  C  C178  1  0.19459015  0.54716876  0.69505203  1.0
  C  C179  1  0.19101481  0.49415704  0.70535516  1.0
  C  C180  1  0.24975051  0.55786753  0.77085081  1.0
  C  C181  1  0.24643080  0.50502131  0.78096978  1.0
  C  C182  1  0.21487340  0.41578702  0.75914863  1.0
  C  C183  1  0.21706839  0.47284808  0.74826391  1.0
  C  C184  1  0.27204225  0.13652565  0.28123185  1.0
  C  C185  1  0.27593156  0.07925988  0.27223659  1.0
  C  C186  1  0.30541017  0.04716966  0.30494606  1.0
  C  C187  1  0.30898657  0.99415650  0.29464425  1.0
  C  C188  1  0.25025018  0.05786834  0.22914919  1.0
  C  C189  1  0.25357072  0.00502060  0.21902922  1.0
  C  C190  1  0.28512496  0.91578746  0.24084986  1.0
  C  C191  1  0.28293417  0.97284654  0.25173672  1.0
  C  C192  1  0.86347229  0.21876899  0.77204501  1.0
  C  C193  1  0.92073873  0.22775964  0.77593193  1.0
  C  C194  1  0.95282962  0.19505325  0.80541218  1.0
  C  C195  1  0.00584341  0.20535487  0.80898783  1.0
  C  C196  1  0.94213147  0.27084789  0.75025118  1.0
  C  C197  1  0.99497873  0.28096830  0.75357011  1.0
  C  C198  1  0.08421160  0.25915133  0.78512524  1.0
  C  C199  1  0.02715301  0.24826286  0.78293452  1.0
  C  C200  1  0.36347328  0.78122903  0.72795723  1.0
  C  C201  1  0.42073974  0.77223949  0.72406756  1.0
  C  C202  1  0.45283061  0.80494662  0.69458923  1.0
  C  C203  1  0.50584416  0.79464433  0.69101347  1.0
  C  C204  1  0.44213173  0.72915043  0.74974984  1.0
  C  C205  1  0.49497900  0.71903152  0.74643088  1.0
  C  C206  1  0.58421045  0.74085166  0.71487330  1.0
  C  C207  1  0.52715340  0.75173709  0.71706794  1.0
  C  C208  1  0.63652719  0.71876924  0.22795611  1.0
  C  C209  1  0.57926035  0.72776113  0.22406722  1.0
  C  C210  1  0.54717028  0.69505448  0.19458902  1.0
  C  C211  1  0.49415673  0.70535600  0.19101326  1.0
  C  C212  1  0.55786912  0.77084894  0.24974900  1.0
  C  C213  1  0.50502107  0.78096864  0.24643081  1.0
  C  C214  1  0.41578692  0.75914821  0.21487452  1.0
  C  C215  1  0.47284670  0.74826316  0.21706722  1.0
  C  C216  1  0.13652639  0.28123100  0.27204168  1.0
  C  C217  1  0.07926149  0.27224034  0.27592983  1.0
  C  C218  1  0.04717059  0.30494663  0.30540766  1.0
  C  C219  1  0.99415679  0.29464500  0.30898547  1.0
  C  C220  1  0.05786916  0.22915294  0.25024845  1.0
  C  C221  1  0.00502190  0.21903252  0.25356861  1.0
  C  C222  1  0.91579017  0.24085133  0.28512581  1.0
  C  C223  1  0.97284799  0.25173671  0.28293269  1.0
  C  C224  1  0.78122859  0.22795730  0.13652631  1.0
  C  C225  1  0.77223911  0.22406656  0.07925821  1.0
  C  C226  1  0.80494811  0.19458988  0.04716771  1.0
  C  C227  1  0.79464402  0.19101380  0.99415479  1.0
  C  C228  1  0.72915096  0.24975002  0.05786734  1.0
  C  C229  1  0.71903172  0.24643153  0.00502077  1.0
  C  C230  1  0.74085038  0.21487450  0.91578875  1.0
  C  C231  1  0.75173730  0.21706866  0.97284628  1.0
  C  C232  1  0.21876745  0.27204467  0.63652639  1.0
  C  C233  1  0.22776241  0.27593209  0.57925983  1.0
  C  C234  1  0.19505264  0.30541121  0.54717002  1.0
  C  C235  1  0.20535374  0.30898704  0.49415716  1.0
  C  C236  1  0.27084979  0.25025026  0.55786823  1.0
  C  C237  1  0.28096868  0.25357008  0.50502125  1.0
  C  C238  1  0.25914937  0.28512426  0.41578572  1.0
  C  C239  1  0.24826125  0.28293419  0.47284753  1.0
  C  C240  1  0.28123067  0.77204161  0.36347255  1.0
  C  C241  1  0.27223960  0.77593119  0.42074026  1.0
  C  C242  1  0.30494816  0.80540823  0.45283036  1.0
  C  C243  1  0.29464590  0.80898469  0.50584322  1.0
  C  C244  1  0.22915185  0.75024818  0.44213194  1.0
  C  C245  1  0.21903180  0.75356823  0.49497852  1.0
  C  C246  1  0.24085030  0.78512599  0.58421240  1.0
  C  C247  1  0.25173725  0.78293221  0.52715215  1.0
  C  C248  1  0.71876855  0.72795740  0.86347167  1.0
  C  C249  1  0.72776037  0.72406841  0.92073978  1.0
  C  C250  1  0.69505139  0.69459128  0.95283038  1.0
  C  C251  1  0.70535394  0.69101584  0.00584292  1.0
  C  C252  1  0.77084849  0.74975058  0.94213096  1.0
  C  C253  1  0.78096929  0.74643153  0.99497754  1.0
  C  C254  1  0.75914833  0.71487585  0.08421394  1.0
  C  C255  1  0.74826296  0.71706825  0.02715174  1.0
  C  C256  1  0.22795745  0.13652644  0.78123144  1.0
  C  C257  1  0.22406782  0.07925990  0.77223813  1.0
  C  C258  1  0.19458922  0.04717048  0.80494606  1.0
  C  C259  1  0.19101295  0.99415811  0.79464464  1.0
  C  C260  1  0.24975002  0.05786872  0.72915032  1.0
  C  C261  1  0.24643032  0.00502253  0.71902997  1.0
  C  C262  1  0.21487390  0.91578749  0.74085101  1.0
  C  C263  1  0.21706734  0.97284929  0.75173710  1.0
  C  C264  1  0.27204238  0.63652813  0.21876909  1.0
  C  C265  1  0.27593246  0.57926077  0.22776064  1.0
  C  C266  1  0.30540993  0.54717026  0.19505242  1.0
  C  C267  1  0.30898687  0.49415738  0.20535360  1.0
  C  C268  1  0.25024989  0.55786793  0.27084773  1.0
  C  C269  1  0.25356926  0.50502132  0.28096865  1.0
  C  C270  1  0.28512601  0.41578738  0.25914864  1.0
  C  C271  1  0.28293290  0.47284767  0.24826198  1.0
  C  C272  1  0.77204277  0.36347313  0.28122900  1.0
  C  C273  1  0.77593318  0.42074048  0.27223862  1.0
  C  C274  1  0.80540943  0.45283096  0.30494798  1.0
  C  C275  1  0.80898632  0.50584423  0.29464525  1.0
  C  C276  1  0.75024906  0.44213257  0.22915154  1.0
  C  C277  1  0.75356877  0.49498034  0.21903256  1.0
  C  C278  1  0.78512463  0.58421114  0.24085178  1.0
  C  C279  1  0.78293079  0.52715396  0.25173921  1.0
  C  C280  1  0.72795538  0.86347328  0.71876778  1.0
  C  C281  1  0.72406801  0.92073944  0.72776187  1.0
  C  C282  1  0.69458863  0.95283045  0.69505434  1.0
  C  C283  1  0.69101262  0.00584438  0.70535499  1.0
  C  C284  1  0.74975056  0.94213137  0.77084888  1.0
  C  C285  1  0.74643157  0.99497873  0.78096924  1.0
  C  C286  1  0.71487539  0.08421226  0.75914938  1.0
  C  C287  1  0.71706618  0.02715317  0.74826290  1.0
  C  C288  1  0.13652573  0.78123189  0.22795733  1.0
  C  C289  1  0.07925968  0.77223852  0.22406964  1.0
  C  C290  1  0.04716957  0.80494646  0.19459094  1.0
  C  C291  1  0.99415694  0.79464523  0.19101374  1.0
  C  C292  1  0.05786772  0.72915104  0.24975116  1.0
  C  C293  1  0.00502124  0.71903025  0.24643146  1.0
  C  C294  1  0.91578991  0.74084993  0.21487400  1.0
  C  C295  1  0.97284773  0.75173724  0.21706705  1.0
  C  C296  1  0.63652785  0.21877107  0.27204395  1.0
  C  C297  1  0.57925867  0.22776139  0.27593285  1.0
  C  C298  1  0.54716974  0.19505349  0.30541156  1.0
  C  C299  1  0.49415736  0.20535422  0.30898577  1.0
  C  C300  1  0.55786707  0.27085161  0.25025056  1.0
  C  C301  1  0.50502018  0.28096975  0.25356875  1.0
  C  C302  1  0.41578679  0.25914883  0.28512594  1.0
  C  C303  1  0.47284773  0.24826340  0.28293285  1.0
  C  C304  1  0.36347199  0.28123125  0.77204274  1.0
  C  C305  1  0.42073767  0.27223858  0.77593124  1.0
  C  C306  1  0.45282852  0.30494562  0.80540944  1.0
  C  C307  1  0.50584207  0.29464526  0.80898598  1.0
  C  C308  1  0.44213084  0.22915116  0.75025024  1.0
  C  C309  1  0.49497850  0.21903146  0.75356920  1.0
  C  C310  1  0.58421265  0.24085384  0.78512316  1.0
  C  C311  1  0.52715171  0.25173811  0.78293280  1.0
  C  C312  1  0.86347319  0.71876833  0.72795872  1.0
  C  C313  1  0.92074003  0.72776132  0.72406863  1.0
  C  C314  1  0.95283015  0.69505347  0.69459041  1.0
  C  C315  1  0.00584278  0.70535393  0.69101416  1.0
  C  C316  1  0.94213197  0.77084832  0.74975117  1.0
  C  C317  1  0.99497845  0.78096836  0.74643334  1.0
  C  C318  1  0.08421329  0.75914838  0.71487576  1.0
  C  C319  1  0.02715158  0.74826145  0.71706927  1.0
  O  O320  1  0.18309580  0.79991428  0.84316247  1.0
  O  O321  1  0.23453963  0.81897991  0.11076252  1.0
  O  O322  1  0.29227543  0.75242778  0.10155903  1.0
  O  O323  1  0.24853943  0.74069392  0.83915360  1.0
  O  O324  1  0.81690460  0.70008635  0.34316362  1.0
  O  O325  1  0.76545703  0.68101950  0.61076370  1.0
  O  O326  1  0.70772590  0.74757283  0.60155537  1.0
  O  O327  1  0.75146175  0.75930633  0.33915228  1.0
  O  O328  1  0.68309218  0.20008899  0.65683639  1.0
  O  O329  1  0.73454249  0.18101944  0.38923637  1.0
  O  O330  1  0.79227549  0.24757306  0.39844216  1.0
  O  O331  1  0.74853730  0.25930734  0.66084677  1.0
  O  O332  1  0.31690463  0.29991330  0.15683716  1.0
  O  O333  1  0.26545766  0.31898212  0.88923627  1.0
  O  O334  1  0.20772621  0.25242614  0.89844153  1.0
  O  O335  1  0.25146339  0.24069184  0.16084738  1.0
  O  O336  1  0.79991236  0.84316405  0.18309375  1.0
  O  O337  1  0.81898305  0.11076355  0.23454287  1.0
  O  O338  1  0.75242639  0.10155836  0.29227372  1.0
  O  O339  1  0.74069018  0.83915232  0.24853554  1.0
  O  O340  1  0.70008815  0.34316111  0.81690465  1.0
  O  O341  1  0.68102082  0.61076439  0.76546014  1.0
  O  O342  1  0.74757206  0.60155775  0.70772544  1.0
  O  O343  1  0.75930528  0.33915302  0.75146015  1.0
  O  O344  1  0.20008814  0.65683787  0.68309497  1.0
  O  O345  1  0.18101914  0.38923616  0.73454221  1.0
  O  O346  1  0.24757344  0.39844156  0.79227571  1.0
  O  O347  1  0.25930523  0.66084667  0.74854099  1.0
  O  O348  1  0.29990972  0.15683601  0.31690277  1.0
  O  O349  1  0.31898041  0.88923571  0.26545946  1.0
  O  O350  1  0.25242960  0.89844097  0.20772710  1.0
  O  O351  1  0.24069224  0.16084820  0.25146296  1.0
  O  O352  1  0.84316424  0.18309410  0.79991417  1.0
  O  O353  1  0.11076325  0.23454285  0.81898193  1.0
  O  O354  1  0.10155618  0.29227417  0.75242780  1.0
  O  O355  1  0.83915373  0.24853753  0.74069414  1.0
  O  O356  1  0.34316210  0.81690511  0.70009080  1.0
  O  O357  1  0.61076248  0.76545778  0.68102086  1.0
  O  O358  1  0.60155776  0.70772453  0.74757111  1.0
  O  O359  1  0.33915319  0.75146090  0.75930734  1.0
  O  O360  1  0.65683761  0.68309519  0.20008900  1.0
  O  O361  1  0.38923608  0.73454025  0.18101945  1.0
  O  O362  1  0.39844231  0.79227329  0.24757263  1.0
  O  O363  1  0.66084727  0.74853882  0.25930573  1.0
  O  O364  1  0.15683714  0.31690230  0.29991110  1.0
  O  O365  1  0.88923772  0.26545815  0.31897817  1.0
  O  O366  1  0.89844212  0.20772782  0.25242849  1.0
  O  O367  1  0.16084690  0.25146372  0.24069166  1.0
  O  O368  1  0.81690611  0.20009048  0.15683794  1.0
  O  O369  1  0.76545994  0.18101824  0.88923788  1.0
  O  O370  1  0.70772531  0.24757154  0.89844215  1.0
  O  O371  1  0.75145742  0.25930618  0.16084486  1.0
  O  O372  1  0.18309536  0.29990987  0.65683562  1.0
  O  O373  1  0.23454021  0.31898060  0.38923437  1.0
  O  O374  1  0.29227329  0.25242688  0.39844192  1.0
  O  O375  1  0.24853977  0.24069299  0.66084696  1.0
  O  O376  1  0.31690312  0.79991189  0.34316284  1.0
  O  O377  1  0.26545747  0.81898027  0.61076364  1.0
  O  O378  1  0.20772602  0.75242782  0.60155824  1.0
  O  O379  1  0.25146111  0.74069238  0.33915441  1.0
  O  O380  1  0.68309650  0.70008680  0.84316208  1.0
  O  O381  1  0.73454153  0.68102186  0.11076569  1.0
  O  O382  1  0.79227414  0.74757591  0.10155693  1.0
  O  O383  1  0.74854046  0.75930788  0.83915380  1.0
  O  O384  1  0.20008838  0.15683644  0.81690394  1.0
  O  O385  1  0.18102002  0.88923616  0.76545947  1.0
  O  O386  1  0.24757241  0.89844213  0.70772669  1.0
  O  O387  1  0.25930823  0.16084662  0.75146214  1.0
  O  O388  1  0.29991337  0.65683860  0.18309731  1.0
  O  O389  1  0.31898186  0.38923688  0.23454143  1.0
  O  O390  1  0.25242713  0.39844196  0.29227302  1.0
  O  O391  1  0.24069274  0.66084669  0.24853792  1.0
  O  O392  1  0.79991104  0.34316301  0.31690582  1.0
  O  O393  1  0.81898005  0.61076199  0.26546285  1.0
  O  O394  1  0.75242769  0.60155815  0.20772741  1.0
  O  O395  1  0.74069396  0.33915421  0.25145824  1.0
  O  O396  1  0.70008752  0.84316331  0.68309685  1.0
  O  O397  1  0.68102033  0.11076440  0.73454444  1.0
  O  O398  1  0.74757348  0.10155486  0.79227563  1.0
  O  O399  1  0.75930694  0.83915191  0.74853745  1.0
  O  O400  1  0.15683689  0.81690173  0.20009012  1.0
  O  O401  1  0.88923594  0.76545414  0.18102041  1.0
  O  O402  1  0.89844378  0.70772554  0.24757144  1.0
  O  O403  1  0.16084662  0.75146179  0.25930704  1.0
  O  O404  1  0.65683825  0.18309422  0.29991154  1.0
  O  O405  1  0.38923670  0.23454310  0.31898110  1.0
  O  O406  1  0.39844181  0.29227596  0.25242618  1.0
  O  O407  1  0.66084561  0.24854153  0.24069422  1.0
  O  O408  1  0.34316313  0.31690530  0.79990984  1.0
  O  O409  1  0.61076505  0.26546063  0.81897706  1.0
  O  O410  1  0.60155649  0.20772798  0.75242428  1.0
  O  O411  1  0.33915231  0.25146128  0.74069196  1.0
  O  O412  1  0.84316360  0.68309469  0.70009047  1.0
  O  O413  1  0.11076341  0.73454039  0.68102029  1.0
  O  O414  1  0.10155862  0.79227422  0.74757308  1.0
  O  O415  1  0.83915345  0.74853794  0.75930875  1.0
  O  O416  1  0.22185494  0.77814637  0.72185510  1.0
  O  O417  1  0.77814476  0.72185620  0.22185349  1.0
  O  O418  1  0.72185355  0.22185453  0.77814568  1.0
  O  O419  1  0.27814512  0.27814466  0.27814421  1.0
  O  O420  1  0.77814425  0.22185568  0.27814608  1.0
  O  O421  1  0.22185326  0.27814623  0.77814458  1.0
  O  O422  1  0.27814331  0.77814440  0.22185589  1.0
  O  O423  1  0.72185445  0.72185583  0.72185270  1.0
