# generated using pymatgen
data_ZnH15C25NO4
_symmetry_space_group_name_H-M   'P 1'
_cell_length_a   16.16403824
_cell_length_b   18.26811917
_cell_length_c   19.67679591
_cell_angle_alpha   89.96551597
_cell_angle_beta   89.73430196
_cell_angle_gamma   89.91719923
_symmetry_Int_Tables_number   1
_chemical_formula_structural   ZnH15C25NO4
_chemical_formula_sum   'Zn2 H30 C50 N2 O8'
_cell_volume   5810.22413723
_cell_formula_units_Z   2
loop_
 _symmetry_equiv_pos_site_id
 _symmetry_equiv_pos_as_xyz
  1  'x, y, z'
loop_
 _atom_site_type_symbol
 _atom_site_label
 _atom_site_symmetry_multiplicity
 _atom_site_fract_x
 _atom_site_fract_y
 _atom_site_fract_z
 _atom_site_occupancy
  Zn  Zn0  1  0.49983083  0.57639896  0.49996486  1.0
  Zn  Zn1  1  0.50016750  0.42359802  0.50005132  1.0
  H  H2  1  0.05081602  0.43174909  0.59873407  1.0
  H  H3  1  0.94918546  0.56824572  0.40124500  1.0
  H  H4  1  0.58511346  0.69236287  0.42143163  1.0
  H  H5  1  0.41486698  0.30763688  0.57854090  1.0
  H  H6  1  0.58838333  0.82942032  0.41708511  1.0
  H  H7  1  0.41160639  0.17057888  0.58289197  1.0
  H  H8  1  0.41171352  0.82963362  0.58298254  1.0
  H  H9  1  0.58827434  0.17036668  0.41699403  1.0
  H  H10  1  0.41472087  0.69257267  0.57859920  1.0
  H  H11  1  0.58526019  0.30742873  0.42137333  1.0
  H  H12  1  0.36932657  0.93262384  0.52241142  1.0
  H  H13  1  0.63066189  0.06737864  0.47757785  1.0
  H  H14  1  0.36924468  0.06756860  0.52238031  1.0
  H  H15  1  0.63074441  0.93243333  0.47760592  1.0
  H  H16  1  0.49895382  0.38264898  0.28304664  1.0
  H  H17  1  0.50093808  0.61736450  0.71697544  1.0
  H  H18  1  0.49862276  0.38207132  0.15596284  1.0
  H  H19  1  0.50120604  0.61794768  0.84405434  1.0
  H  H20  1  0.50170916  0.61717051  0.28293374  1.0
  H  H21  1  0.49814685  0.38284463  0.71709454  1.0
  H  H22  1  0.59630470  0.58104491  0.93647205  1.0
  H  H23  1  0.40347703  0.41901024  0.06356203  1.0
  H  H24  1  0.94684893  0.55708879  0.60422402  1.0
  H  H25  1  0.05315007  0.44290602  0.39575354  1.0
  H  H26  1  0.95002880  0.37331228  0.49384818  1.0
  H  H27  1  0.04997021  0.62668034  0.50612937  1.0
  H  H28  1  0.50168466  0.61779418  0.15585453  1.0
  H  H29  1  0.49812989  0.38222427  0.84417184  1.0
  H  H30  1  0.59674815  0.58091270  0.06239488  1.0
  H  H31  1  0.40301686  0.41915506  0.93763874  1.0
  C  C32  1  0.49883308  0.50010468  0.63340140  1.0
  C  C33  1  0.50111637  0.49990000  0.36661696  1.0
  C  C34  1  0.49864838  0.43378099  0.18372248  1.0
  C  C35  1  0.50119898  0.56623636  0.81629363  1.0
  C  C36  1  0.50038823  0.49993647  0.14712329  1.0
  C  C37  1  0.49943127  0.50008964  0.85290205  1.0
  C  C38  1  0.50219370  0.56607356  0.18365529  1.0
  C  C39  1  0.49764374  0.43394597  0.81637762  1.0
  C  C40  1  0.50191804  0.56607365  0.25437344  1.0
  C  C41  1  0.49793983  0.43393930  0.74565280  1.0
  C  C42  1  0.50087985  0.49990536  0.29045935  1.0
  C  C43  1  0.49901020  0.50010428  0.70956223  1.0
  C  C44  1  0.55317025  0.54624723  0.03506492  1.0
  C  C45  1  0.44661274  0.45380136  0.96496356  1.0
  C  C46  1  0.55293846  0.54631472  0.96431362  1.0
  C  C47  1  0.44684761  0.45373167  0.03571587  1.0
  C  C48  1  0.49964335  0.50007778  0.92794776  1.0
  C  C49  1  0.50014830  0.49996806  0.07207969  1.0
  C  C50  1  0.54790874  0.72563347  0.45603202  1.0
  C  C51  1  0.45207603  0.27436465  0.54394304  1.0
  C  C52  1  0.54969060  0.80163651  0.45451169  1.0
  C  C53  1  0.45029418  0.19836270  0.54546134  1.0
  C  C54  1  0.33747351  0.49961643  0.50106783  1.0
  C  C55  1  0.66252300  0.50035922  0.49893718  1.0
  C  C56  1  0.50003930  0.84171461  0.50001641  1.0
  C  C57  1  0.49994732  0.15828733  0.49995966  1.0
  C  C58  1  0.45033239  0.80175768  0.54552445  1.0
  C  C59  1  0.54965176  0.19824208  0.45444909  1.0
  C  C60  1  0.45193948  0.72575229  0.54396643  1.0
  C  C61  1  0.54804405  0.27424965  0.45600914  1.0
  C  C62  1  0.42711697  0.96200055  0.51358684  1.0
  C  C63  1  0.57287150  0.03799974  0.48639685  1.0
  C  C64  1  0.42707735  0.03811873  0.51357652  1.0
  C  C65  1  0.57290988  0.96188320  0.48640666  1.0
  C  C66  1  0.49995226  0.07750832  0.49997151  1.0
  C  C67  1  0.50003622  0.92249197  0.50000964  1.0
  C  C68  1  0.97146282  0.53186189  0.55794631  1.0
  C  C69  1  0.02853309  0.46813183  0.44203329  1.0
  C  C70  1  0.02718075  0.46192173  0.55488145  1.0
  C  C71  1  0.97281640  0.53807473  0.44509866  1.0
  C  C72  1  0.24801345  0.49972900  0.50129894  1.0
  C  C73  1  0.75197256  0.50025213  0.49869136  1.0
  C  C74  1  0.02688683  0.57050256  0.50342387  1.0
  C  C75  1  0.97311155  0.42949007  0.49655878  1.0
  C  C76  1  0.08504556  0.50070639  0.50042023  1.0
  C  C77  1  0.91495221  0.49928460  0.49956038  1.0
  C  C78  1  0.17259705  0.50019298  0.50085431  1.0
  C  C79  1  0.82741371  0.49979526  0.49912880  1.0
  C  C80  1  0.49932980  0.43376016  0.25444347  1.0
  C  C81  1  0.50054541  0.56625004  0.74557408  1.0
  N  N82  1  0.49984386  0.68844062  0.49996062  1.0
  N  N83  1  0.50013967  0.31155914  0.50001444  1.0
  O  O84  1  0.49880809  0.56220194  0.60380527  1.0
  O  O85  1  0.50117044  0.43780984  0.39620843  1.0
  O  O86  1  0.49885297  0.43802760  0.60385372  1.0
  O  O87  1  0.50111998  0.56198308  0.39616813  1.0
  O  O88  1  0.37260954  0.56203438  0.50089510  1.0
  O  O89  1  0.62738695  0.43794783  0.49911398  1.0
  O  O90  1  0.37276630  0.43720638  0.50092855  1.0
  O  O91  1  0.62722586  0.56277857  0.49908308  1.0
