# generated using pymatgen
data_Zn2H24C41O8
_symmetry_space_group_name_H-M   'P 1'
_cell_length_a   16.50152955
_cell_length_b   16.67014949
_cell_length_c   28.83932021
_cell_angle_alpha   90.38557076
_cell_angle_beta   90.63578677
_cell_angle_gamma   90.71467027
_symmetry_Int_Tables_number   1
_chemical_formula_structural   Zn2H24C41O8
_chemical_formula_sum   'Zn4 H48 C82 O16'
_cell_volume   7931.91305937
_cell_formula_units_Z   2
loop_
 _symmetry_equiv_pos_site_id
 _symmetry_equiv_pos_as_xyz
  1  'x, y, z'
loop_
 _atom_site_type_symbol
 _atom_site_label
 _atom_site_symmetry_multiplicity
 _atom_site_fract_x
 _atom_site_fract_y
 _atom_site_fract_z
 _atom_site_occupancy
  Zn  Zn0  1  0.50056754  0.07655741  0.50059917  1.0
  Zn  Zn1  1  0.49942672  0.92344095  0.49940011  1.0
  Zn  Zn2  1  0.07732887  0.50175064  0.00120048  1.0
  Zn  Zn3  1  0.92266852  0.49825612  0.99880197  1.0
  H  H4  1  0.31615855  0.12993125  0.39779126  1.0
  H  H5  1  0.13021077  0.79520765  0.84242893  1.0
  H  H6  1  0.19796678  0.87195510  0.33918883  1.0
  H  H7  1  0.80202815  0.12804866  0.66080978  1.0
  H  H8  1  0.68659004  0.87416636  0.40005892  1.0
  H  H9  1  0.31379317  0.12584652  0.60018715  1.0
  H  H10  1  0.12950878  0.33005779  0.10882298  1.0
  H  H11  1  0.87052290  0.66966282  0.89099654  1.0
  H  H12  1  0.86264154  0.68990798  0.09517324  1.0
  H  H13  1  0.13735316  0.31012397  0.90480883  1.0
  H  H14  1  0.12281889  0.69497902  0.09813478  1.0
  H  H15  1  0.68384791  0.87007311  0.60219946  1.0
  H  H16  1  0.87717605  0.30497914  0.90189590  1.0
  H  H17  1  0.87004433  0.31792852  0.10074114  1.0
  H  H18  1  0.12994143  0.68233139  0.89942311  1.0
  H  H19  1  0.31179485  0.87238987  0.39720972  1.0
  H  H20  1  0.68819768  0.12761509  0.60279026  1.0
  H  H21  1  0.67787152  0.13096959  0.39593351  1.0
  H  H22  1  0.32172183  0.86897705  0.60380695  1.0
  H  H23  1  0.20247534  0.13067001  0.33969132  1.0
  H  H24  1  0.79754082  0.86933375  0.66029426  1.0
  H  H25  1  0.24005177  0.24388917  0.12041712  1.0
  H  H26  1  0.79848022  0.87587659  0.34203876  1.0
  H  H27  1  0.23149536  0.31376393  0.16684720  1.0
  H  H28  1  0.28315879  0.22229415  0.17546927  1.0
  H  H29  1  0.14785786  0.21102351  0.21117879  1.0
  H  H30  1  0.15550655  0.14332135  0.16518658  1.0
  H  H31  1  0.76873936  0.68574739  0.83283418  1.0
  H  H32  1  0.75983911  0.75560283  0.87924591  1.0
  H  H33  1  0.71690492  0.77710252  0.82413630  1.0
  H  H34  1  0.84435729  0.85634881  0.83459243  1.0
  H  H35  1  0.85234250  0.78866177  0.78861468  1.0
  H  H36  1  0.69388958  0.23326448  0.33991335  1.0
  H  H37  1  0.20193073  0.12412670  0.65822515  1.0
  H  H38  1  0.76668653  0.24115311  0.38564428  1.0
  H  H39  1  0.78681901  0.28522351  0.33110557  1.0
  H  H40  1  0.86471979  0.15939739  0.33799106  1.0
  H  H41  1  0.79390760  0.15215557  0.29283677  1.0
  H  H42  1  0.23231027  0.75908850  0.61377464  1.0
  H  H43  1  0.30525274  0.76628846  0.65946052  1.0
  H  H44  1  0.21213202  0.71463653  0.66820440  1.0
  H  H45  1  0.20576525  0.84744913  0.70684776  1.0
  H  H46  1  0.13473818  0.84082816  0.66177663  1.0
  H  H47  1  0.86035039  0.80432520  0.15168329  1.0
  H  H48  1  0.13964730  0.19570376  0.84830087  1.0
  H  H49  1  0.12171980  0.80944346  0.15464649  1.0
  H  H50  1  0.87827881  0.19051770  0.84538561  1.0
  H  H51  1  0.86976733  0.20507085  0.15774540  1.0
  C  C52  1  0.61311732  0.99893648  0.56355978  1.0
  C  C53  1  0.07356189  0.76693021  0.85308364  1.0
  C  C54  1  0.92643839  0.29563173  0.11542176  1.0
  C  C55  1  0.07356050  0.70450520  0.88466305  1.0
  C  C56  1  0.22424171  0.92827952  0.35197900  1.0
  C  C57  1  0.77575809  0.07172484  0.64801549  1.0
  C  C58  1  0.28741848  0.92844618  0.38420072  1.0
  C  C59  1  0.71257828  0.07155818  0.61579548  1.0
  C  C60  1  0.76677421  0.07862331  0.35081508  1.0
  C  C61  1  0.23296559  0.92131617  0.64903141  1.0
  C  C62  1  0.70506756  0.07585780  0.38340052  1.0
  C  C63  1  0.38687825  0.00106907  0.43643815  1.0
  C  C64  1  0.29469177  0.92409369  0.61645343  1.0
  C  C65  1  0.99473221  0.00482467  0.24811650  1.0
  C  C66  1  0.00526391  0.99517669  0.75188384  1.0
  C  C67  1  0.61124366  0.00234845  0.43674120  1.0
  C  C68  1  0.38874561  0.99763791  0.56325661  1.0
  C  C69  1  0.19269334  0.00132658  0.33577211  1.0
  C  C70  1  0.80731254  0.99867898  0.66421860  1.0
  C  C71  1  0.32049236  0.00114503  0.40090503  1.0
  C  C72  1  0.67950924  0.99885813  0.59909016  1.0
  C  C73  1  0.80077675  0.00479501  0.33625151  1.0
  C  C74  1  0.91885990  0.71655554  0.10857119  1.0
  C  C75  1  0.19922500  0.99517215  0.66375359  1.0
  C  C76  1  0.67634381  0.00286623  0.40124926  1.0
  C  C77  1  0.32365021  0.99711293  0.59874994  1.0
  C  C78  1  0.99989366  0.20428844  0.16529186  1.0
  C  C79  1  0.00010910  0.79571112  0.83470470  1.0
  C  C80  1  0.00019304  0.32986378  0.10158680  1.0
  C  C81  1  0.99981679  0.67011838  0.89840073  1.0
  C  C82  1  0.99095939  0.81410852  0.15695661  1.0
  C  C83  1  0.00903910  0.18588864  0.84304720  1.0
  C  C84  1  0.99282547  0.68562076  0.09351444  1.0
  C  C85  1  0.08113705  0.28346322  0.89142229  1.0
  C  C86  1  0.00716335  0.31437879  0.90649105  1.0
  C  C87  1  0.06801546  0.00227131  0.27805077  1.0
  C  C88  1  0.93198677  0.99773365  0.72194546  1.0
  C  C89  1  0.99640166  0.07876037  0.22012463  1.0
  C  C90  1  0.00358903  0.92124279  0.77987706  1.0
  C  C91  1  0.22679404  0.07426755  0.35227763  1.0
  C  C92  1  0.77321907  0.92573502  0.64771035  1.0
  C  C93  1  0.92287287  0.00420399  0.27826434  1.0
  C  C94  1  0.07712804  0.99579317  0.72173879  1.0
  C  C95  1  0.99223928  0.93497794  0.21621026  1.0
  C  C96  1  0.06518143  0.78292835  0.14159468  1.0
  C  C97  1  0.00775319  0.06502222  0.78379075  1.0
  C  C98  1  0.12624413  0.00163504  0.30416952  1.0
  C  C99  1  0.87375994  0.99837111  0.69582292  1.0
  C  C100  1  0.99075247  0.87914696  0.18891943  1.0
  C  C101  1  0.00924118  0.12085140  0.81108401  1.0
  C  C102  1  0.99815659  0.13775095  0.19562741  1.0
  C  C103  1  0.00183047  0.86225281  0.80437288  1.0
  C  C104  1  0.86585656  0.00439644  0.30456039  1.0
  C  C105  1  0.13414666  0.99559172  0.69544515  1.0
  C  C106  1  0.99410738  0.61743558  0.05977056  1.0
  C  C107  1  0.93481620  0.21705021  0.85842361  1.0
  C  C108  1  0.00589301  0.38256818  0.94023225  1.0
  C  C109  1  0.00084508  0.39447123  0.06605005  1.0
  C  C110  1  0.99916614  0.60552653  0.93394622  1.0
  C  C111  1  0.28990896  0.07394223  0.38452822  1.0
  C  C112  1  0.71010049  0.92605853  0.61546354  1.0
  C  C113  1  0.77138344  0.93154819  0.35389394  1.0
  C  C114  1  0.22886747  0.06844125  0.64626308  1.0
  C  C115  1  0.70951054  0.93044866  0.38608670  1.0
  C  C116  1  0.29071988  0.06954858  0.61405981  1.0
  C  C117  1  0.07505982  0.23969682  0.15234866  1.0
  C  C118  1  0.06585413  0.71940607  0.11023041  1.0
  C  C119  1  0.92496047  0.76014017  0.84754440  1.0
  C  C120  1  0.07338601  0.30197306  0.12034715  1.0
  C  C121  1  0.92664023  0.69785434  0.87954106  1.0
  C  C122  1  0.91768141  0.78010103  0.13996126  1.0
  C  C123  1  0.08231366  0.21991353  0.86003254  1.0
  C  C124  1  0.15269069  0.20805739  0.17308491  1.0
  C  C125  1  0.23090315  0.24949886  0.15800044  1.0
  C  C126  1  0.84734601  0.79162543  0.82670260  1.0
  C  C127  1  0.76914798  0.75001479  0.84167485  1.0
  C  C128  1  0.79891290  0.15617214  0.33096038  1.0
  C  C129  1  0.93414284  0.28056768  0.88979063  1.0
  C  C130  1  0.75915963  0.23291447  0.34797638  1.0
  C  C131  1  0.20057648  0.84374087  0.66872065  1.0
  C  C132  1  0.23996619  0.76697862  0.65145869  1.0
  C  C133  1  0.92642996  0.23322652  0.14701298  1.0
  O  O134  1  0.58779706  0.06726656  0.55001084  1.0
  O  O135  1  0.93631685  0.40785769  0.95245031  1.0
  O  O136  1  0.93203842  0.41799055  0.05067420  1.0
  O  O137  1  0.06795914  0.58203120  0.94933803  1.0
  O  O138  1  0.06996665  0.42119532  0.05302038  1.0
  O  O139  1  0.93003229  0.57878864  0.94696813  1.0
  O  O140  1  0.92569403  0.58935102  0.04541868  1.0
  O  O141  1  0.07429384  0.41066893  0.95457267  1.0
  O  O142  1  0.41221974  0.93273900  0.44997474  1.0
  O  O143  1  0.58538214  0.93379044  0.45040388  1.0
  O  O144  1  0.41463681  0.06619653  0.54961389  1.0
  O  O145  1  0.58611238  0.07035522  0.45121096  1.0
  O  O146  1  0.41385393  0.92963533  0.54876660  1.0
  O  O147  1  0.58672585  0.93065487  0.54903033  1.0
  O  O148  1  0.41324664  0.06934888  0.45098165  1.0
  O  O149  1  0.06367433  0.59213706  0.04756038  1.0
