# generated using pymatgen
data_ZnH13C11I(NO)4
_symmetry_space_group_name_H-M   'P 1'
_cell_length_a   9.95343478
_cell_length_b   10.97713899
_cell_length_c   13.58442979
_cell_angle_alpha   94.92503173
_cell_angle_beta   92.65755390
_cell_angle_gamma   91.63848831
_symmetry_Int_Tables_number   1
_chemical_formula_structural   ZnH13C11I(NO)4
_chemical_formula_sum   'Zn2 H26 C22 I2 N8 O8'
_cell_volume   1476.37622529
_cell_formula_units_Z   2
loop_
 _symmetry_equiv_pos_site_id
 _symmetry_equiv_pos_as_xyz
  1  'x, y, z'
loop_
 _atom_site_type_symbol
 _atom_site_label
 _atom_site_symmetry_multiplicity
 _atom_site_fract_x
 _atom_site_fract_y
 _atom_site_fract_z
 _atom_site_occupancy
  Zn  Zn0  1  0.35236458  0.50273273  0.53270108  1.0
  Zn  Zn1  1  0.64353077  0.51007483  0.50587027  1.0
  H  H2  1  0.44018363  0.93309841  0.57701474  1.0
  H  H3  1  0.86393546  0.32048996  0.38334711  1.0
  H  H4  1  0.64940985  0.53494569  0.13516798  1.0
  H  H5  1  0.87785062  0.52563059  0.08491488  1.0
  H  H6  1  0.81716568  0.49647422  0.95963803  1.0
  H  H7  1  0.80023623  0.38006894  0.04228985  1.0
  H  H8  1  0.71484776  0.78519851  0.45833977  1.0
  H  H9  1  0.84510482  0.84375001  0.33365726  1.0
  H  H10  1  0.86538922  0.99364476  0.39599344  1.0
  H  H11  1  0.72533203  0.95717927  0.31128592  1.0
  H  H12  1  0.31986890  0.14530034  0.39204874  1.0
  H  H13  1  0.10097909  0.43928575  0.57050609  1.0
  H  H14  1  0.30011423  0.96917959  0.28772906  1.0
  H  H15  1  0.35682974  0.89027748  0.39149792  1.0
  H  H16  1  0.47459134  0.94410688  0.31017569  1.0
  H  H17  1  0.24269708  0.72946572  0.55135730  1.0
  H  H18  1  0.09309139  0.87704408  0.46954234  1.0
  H  H19  1  0.09093162  0.90228509  0.60095890  1.0
  H  H20  1  0.95629864  0.81845991  0.53327226  1.0
  H  H21  1  0.33038524  0.48147281  0.89875126  1.0
  H  H22  1  0.10261962  0.48687776  0.94753457  1.0
  H  H23  1  0.17611756  0.63209668  0.99472189  1.0
  H  H24  1  0.16091658  0.51119391  0.07375104  1.0
  H  H25  1  0.01160959  0.51819317  0.40833305  1.0
  H  H26  1  0.90521231  0.39860471  0.27721290  1.0
  H  H27  1  0.74477223  0.41710920  0.32866475  1.0
  C  C28  1  0.49749807  0.27177427  0.46993227  1.0
  C  C29  1  0.51235735  0.74772675  0.55090603  1.0
  C  C30  1  0.53761977  0.46518132  0.70151132  1.0
  C  C31  1  0.55849651  0.46963584  0.80701075  1.0
  C  C32  1  0.55541668  0.50761201  0.99959095  1.0
  C  C33  1  0.42442391  0.50745446  0.03449629  1.0
  C  C34  1  0.41274898  0.52597124  0.13698048  1.0
  C  C35  1  0.56780881  0.48754248  0.89734919  1.0
  C  C36  1  0.18163667  0.53196914  0.99811409  1.0
  C  C37  1  0.85184779  0.40519048  0.34625990  1.0
  C  C38  1  0.79707384  0.47988515  0.03628395  1.0
  C  C39  1  0.42419408  0.54108484  0.22747131  1.0
  C  C40  1  0.79132947  0.92069946  0.36834758  1.0
  C  C41  1  0.37993536  0.96574073  0.34581770  1.0
  C  C42  1  0.06545032  0.83581983  0.53708546  1.0
  C  C43  1  0.61445629  0.93661492  0.49197036  1.0
  C  C44  1  0.51755608  0.87806952  0.54307282  1.0
  C  C45  1  0.61117373  0.07000449  0.48814817  1.0
  C  C46  1  0.50425724  0.13360127  0.45498696  1.0
  C  C47  1  0.08281923  0.61352231  0.55556205  1.0
  C  C48  1  0.93461007  0.59772318  0.56602742  1.0
  C  C49  1  0.45023150  0.54175132  0.33242028  1.0
  I  I50  1  0.78456514  0.15433860  0.56728578  1.0
  I  I51  1  0.87432662  0.66580520  0.70479504  1.0
  N  N52  1  0.15529045  0.51468204  0.55477891  1.0
  N  N53  1  0.85639768  0.54139349  0.49620661  1.0
  N  N54  1  0.31075289  0.48403992  0.97177101  1.0
  N  N55  1  0.90857000  0.51325125  0.40566133  1.0
  N  N56  1  0.66945179  0.53173879  0.06217612  1.0
  N  N57  1  0.71581390  0.87630176  0.44729820  1.0
  N  N58  1  0.39231173  0.08373933  0.40190692  1.0
  N  N59  1  0.13729888  0.72387012  0.54589142  1.0
  O  O60  1  0.38227000  0.31557825  0.48322626  1.0
  O  O61  1  0.60746152  0.33106979  0.46427103  1.0
  O  O62  1  0.34957944  0.54295164  0.38758937  1.0
  O  O63  1  0.57446019  0.53919955  0.36004244  1.0
  O  O64  1  0.40355125  0.69298564  0.57435088  1.0
  O  O65  1  0.62073845  0.68887678  0.53359099  1.0
  O  O66  1  0.41447522  0.46351774  0.67014772  1.0
  O  O67  1  0.64077097  0.46575404  0.64944061  1.0
