# generated using pymatgen
data_Zr3H18C25O16F7
_symmetry_space_group_name_H-M   'P 1'
_cell_length_a   14.30051975
_cell_length_b   17.78260551
_cell_length_c   23.82105140
_cell_angle_alpha   88.34622402
_cell_angle_beta   89.50691354
_cell_angle_gamma   86.72177604
_symmetry_Int_Tables_number   1
_chemical_formula_structural   Zr3H18C25O16F7
_chemical_formula_sum   'Zr12 H72 C100 O64 F28'
_cell_volume   6045.12668565
_cell_formula_units_Z   4
loop_
 _symmetry_equiv_pos_site_id
 _symmetry_equiv_pos_as_xyz
  1  'x, y, z'
loop_
 _atom_site_type_symbol
 _atom_site_label
 _atom_site_symmetry_multiplicity
 _atom_site_fract_x
 _atom_site_fract_y
 _atom_site_fract_z
 _atom_site_occupancy
  Zr  Zr0  1  0.47985225  0.37933490  0.45528151  1.0
  Zr  Zr1  1  0.55788667  0.58827711  0.56579014  1.0
  Zr  Zr2  1  0.59768941  0.55323789  0.42181906  1.0
  Zr  Zr3  1  0.45969648  0.41645345  0.59871082  1.0
  Zr  Zr4  1  0.68295081  0.41894593  0.53072825  1.0
  Zr  Zr5  1  0.35473315  0.54554714  0.49653163  1.0
  Zr  Zr6  1  0.07841611  0.06806109  0.95902960  1.0
  Zr  Zr7  1  0.98232412  0.86154852  0.07775968  1.0
  Zr  Zr8  1  0.97409797  0.89502151  0.93175875  1.0
  Zr  Zr9  1  0.08469056  0.03300285  0.10542457  1.0
  Zr  Zr10  1  0.86781141  0.03212431  0.02774703  1.0
  Zr  Zr11  1  0.19470541  0.89942001  0.00890237  1.0
  H  H12  1  0.57842129  0.30036424  0.55389954  1.0
  H  H13  1  0.73780978  0.56483994  0.51532993  1.0
  H  H14  1  0.38357634  0.56540302  0.61600473  1.0
  H  H15  1  0.37554525  0.48830648  0.38808093  1.0
  H  H16  1  0.84932901  0.44326344  0.49632105  1.0
  H  H17  1  0.50205607  0.60831546  0.33245709  1.0
  H  H18  1  0.33194482  0.67831188  0.43184859  1.0
  H  H19  1  0.77174138  0.32451169  0.60586039  1.0
  H  H20  1  0.51588132  0.34688275  0.69737896  1.0
  H  H21  1  0.32527894  0.44616376  0.67520571  1.0
  H  H22  1  0.19345934  0.51210322  0.54668329  1.0
  H  H23  1  0.83490465  0.44648725  0.59760657  1.0
  H  H24  1  0.68370596  0.68480688  0.60976848  1.0
  H  H25  1  0.35480679  0.27930340  0.41559089  1.0
  H  H26  1  0.20778213  0.55038194  0.42883884  1.0
  H  H27  1  0.46912386  0.28460036  0.66166741  1.0
  H  H28  1  0.65194971  0.62655659  0.65831952  1.0
  H  H29  1  0.77614103  0.51401597  0.40921909  1.0
  H  H30  1  0.82880680  0.38431070  0.44862410  1.0
  H  H31  1  0.26696493  0.48019697  0.59623336  1.0
  H  H32  1  0.41216774  0.62751291  0.39677378  1.0
  H  H33  1  0.39727365  0.32489739  0.36331197  1.0
  H  H34  1  0.98915975  0.15140460  0.04603332  1.0
  H  H35  1  0.81710066  0.88019459  0.00943454  1.0
  H  H36  1  0.15415727  0.88480245  0.12931718  1.0
  H  H37  1  0.17679951  0.94758762  0.90205531  1.0
  H  H38  1  0.70661457  0.99866171  0.97872896  1.0
  H  H39  1  0.06802467  0.84073179  0.84277869  1.0
  H  H40  1  0.21177921  0.75554920  0.95654832  1.0
  H  H41  1  0.79260669  0.09285739  0.11775686  1.0
  H  H42  1  0.02112084  0.15713061  0.16300687  1.0
  H  H43  1  0.25418178  0.06400659  0.14013902  1.0
  H  H44  1  0.33818033  0.88407977  0.09590893  1.0
  H  H45  1  0.74250336  0.95494147  0.08916969  1.0
  H  H46  1  0.82579828  0.78493137  0.11033295  1.0
  H  H47  1  0.23160788  0.14847082  0.92346177  1.0
  H  H48  1  0.35588547  0.94924543  0.98167571  1.0
  H  H49  1  0.90149185  0.11714921  0.12467099  1.0
  H  H50  1  0.85510601  0.83341871  0.16139007  1.0
  H  H51  1  0.83101459  0.91634952  0.86294420  1.0
  H  H52  1  0.78519291  0.97005826  0.93240241  1.0
  H  H53  1  0.27600443  0.96483231  0.10505108  1.0
  H  H54  1  0.14595849  0.80723278  0.91470309  1.0
  H  H55  1  0.18846053  0.11333984  0.86926739  1.0
  H  H56  1  0.19556072  0.65820290  0.17694298  1.0
  H  H57  1  0.29170430  0.51761479  0.00778400  1.0
  H  H58  1  0.14644116  0.27603025  0.13254182  1.0
  H  H59  1  0.39191300  0.36309059  0.00205235  1.0
  H  H60  1  0.65357984  0.36134043  0.01356730  1.0
  H  H61  1  0.42603004  0.57876364  0.03089131  1.0
  H  H62  1  0.80114746  0.72472692  0.90614349  1.0
  H  H63  1  0.79062619  0.49636316  0.02859841  1.0
  H  H64  1  0.88522715  0.44885633  0.95045135  1.0
  H  H65  1  0.72016025  0.21534135  0.92258878  1.0
  H  H66  1  0.46978488  0.31887494  0.26930683  1.0
  H  H67  1  0.46705344  0.55363733  0.15351437  1.0
  H  H68  1  0.72082865  0.50922317  0.73795224  1.0
  H  H69  1  0.50007993  0.48128703  0.89813447  1.0
  H  H70  1  0.66822738  0.97170342  0.45879533  1.0
  H  H71  1  0.82442084  0.71549701  0.45030725  1.0
  H  H72  1  0.69545643  0.16614847  0.52957227  1.0
  H  H73  1  0.82254109  0.08509173  0.34499653  1.0
  H  H74  1  0.04742405  0.95264207  0.39513780  1.0
  H  H75  1  0.82363218  0.92660600  0.23993032  1.0
  H  H76  1  0.88634646  0.89861019  0.53329349  1.0
  H  H77  1  0.12563302  0.08424307  0.50107959  1.0
  H  H78  1  0.10847569  0.85515085  0.56939707  1.0
  H  H79  1  0.45081831  0.83893868  0.58983181  1.0
  H  H80  1  0.28887140  0.01727686  0.51196611  1.0
  H  H81  1  0.25817712  0.24436743  0.62693435  1.0
  H  H82  1  0.98868981  0.04068419  0.63877930  1.0
  H  H83  1  0.20725718  0.97688154  0.79514683  1.0
  C  C84  1  0.16530273  0.99551020  0.59856063  1.0
  C  C85  1  0.85997252  0.97559439  0.43089766  1.0
  C  C86  1  0.66367991  0.27231852  0.44931559  1.0
  C  C87  1  0.38028666  0.26232769  0.54406442  1.0
  C  C88  1  0.53546736  0.43423587  0.32687993  1.0
  C  C89  1  0.64261124  0.71136684  0.47970965  1.0
  C  C90  1  0.37924252  0.70382492  0.56134258  1.0
  C  C91  1  0.53688299  0.51378748  0.70390950  1.0
  C  C92  1  0.68908415  0.47878062  0.93361367  1.0
  C  C93  1  0.37558205  0.45069354  0.09956761  1.0
  C  C94  1  0.89863303  0.18468639  0.95195939  1.0
  C  C95  1  0.17215500  0.18424721  0.04520592  1.0
  C  C96  1  0.03132198  0.01526150  0.83250896  1.0
  C  C97  1  0.90162276  0.73937554  0.99611721  1.0
  C  C98  1  0.16063583  0.74108585  0.07848596  1.0
  C  C99  1  0.00670910  0.91999275  0.20433481  1.0
  C  C100  1  0.21795727  0.62894221  0.13913040  1.0
  C  C101  1  0.19857122  0.66090972  0.08612760  1.0
  C  C102  1  0.22392622  0.61709776  0.04016614  1.0
  C  C103  1  0.27379659  0.54845779  0.04560701  1.0
  C  C104  1  0.30537055  0.52042798  0.09841734  1.0
  C  C105  1  0.26926859  0.56015162  0.14471339  1.0
  C  C106  1  0.19835533  0.29604463  0.10284943  1.0
  C  C107  1  0.21918726  0.25604661  0.05399555  1.0
  C  C108  1  0.28674330  0.28477853  0.01794248  1.0
  C  C109  1  0.33682917  0.34667310  0.03097960  1.0
  C  C110  1  0.31947241  0.38432336  0.08108148  1.0
  C  C111  1  0.24554688  0.35928645  0.11444795  1.0
  C  C112  1  0.60388435  0.40992939  0.01526742  1.0
  C  C113  1  0.61266586  0.47325720  0.97972930  1.0
  C  C114  1  0.54712112  0.53307670  0.98941468  1.0
  C  C115  1  0.47327360  0.52896517  0.02745661  1.0
  C  C116  1  0.45910115  0.46277860  0.05893708  1.0
  C  C117  1  0.52982433  0.40558537  0.05293917  1.0
  C  C118  1  0.79921768  0.67441393  0.93321848  1.0
  C  C119  1  0.84853300  0.67148418  0.98367483  1.0
  C  C120  1  0.84180745  0.60613921  0.01734955  1.0
  C  C121  1  0.79227257  0.54573087  0.00045066  1.0
  C  C122  1  0.74471520  0.54746018  0.94888183  1.0
  C  C123  1  0.74723101  0.61534789  0.91749867  1.0
  C  C124  1  0.84711851  0.39878913  0.94339887  1.0
  C  C125  1  0.75073469  0.40432237  0.93320816  1.0
  C  C126  1  0.70967958  0.33612217  0.92243107  1.0
  C  C127  1  0.75746602  0.26652689  0.92698499  1.0
  C  C128  1  0.85314181  0.26131435  0.93945837  1.0
  C  C129  1  0.89654505  0.32896492  0.94569939  1.0
  C  C130  1  0.46896824  0.37118463  0.24434472  1.0
  C  C131  1  0.50689431  0.43470258  0.26647840  1.0
  C  C132  1  0.50710529  0.49890279  0.23079856  1.0
  C  C133  1  0.46718437  0.50090491  0.17805130  1.0
  C  C134  1  0.42297864  0.43913019  0.15751012  1.0
  C  C135  1  0.42964903  0.37329553  0.19129683  1.0
  C  C136  1  0.67127798  0.50279062  0.77253926  1.0
  C  C137  1  0.57474374  0.50490162  0.76274169  1.0
  C  C138  1  0.51648645  0.49547224  0.80941198  1.0
  C  C139  1  0.55015702  0.48736149  0.86387762  1.0
  C  C140  1  0.64618818  0.48675414  0.87417417  1.0
  C  C141  1  0.70455971  0.49225068  0.82681632  1.0
  C  C142  1  0.70496172  0.91640336  0.45890148  1.0
  C  C143  1  0.80045845  0.90843221  0.44591637  1.0
  C  C144  1  0.84077811  0.83471796  0.44458354  1.0
  C  C145  1  0.79037518  0.77150756  0.45444871  1.0
  C  C146  1  0.69569397  0.78057000  0.46914068  1.0
  C  C147  1  0.65514299  0.85334220  0.47138033  1.0
  C  C148  1  0.72011442  0.14798314  0.48842910  1.0
  C  C149  1  0.70938995  0.19560580  0.44105236  1.0
  C  C150  1  0.74511571  0.17014215  0.39020012  1.0
  C  C151  1  0.79218725  0.10019206  0.38545965  1.0
  C  C152  1  0.80257731  0.05131573  0.43233523  1.0
  C  C153  1  0.76458544  0.07744192  0.48318419  1.0
  C  C154  1  0.99679825  0.94952948  0.36160717  1.0
  C  C155  1  0.90062469  0.95975917  0.37214958  1.0
  C  C156  1  0.84119057  0.94896617  0.32692878  1.0
  C  C157  1  0.87384015  0.93181796  0.27356697  1.0
  C  C158  1  0.97021457  0.92528966  0.26313176  1.0
  C  C159  1  0.02989188  0.93371857  0.30824411  1.0
  C  C160  1  0.93912315  0.93915275  0.52454561  1.0
  C  C161  1  0.93713576  0.98233242  0.47476262  1.0
  C  C162  1  0.00431546  0.03631428  0.47045387  1.0
  C  C163  1  0.07467471  0.04220982  0.50959138  1.0
  C  C164  1  0.08049523  0.99568523  0.55807118  1.0
  C  C165  1  0.00647818  0.94735816  0.56480195  1.0
  C  C166  1  0.18331058  0.85585720  0.57462453  1.0
  C  C167  1  0.22729410  0.92112488  0.58853508  1.0
  C  C168  1  0.32557145  0.91092789  0.59367407  1.0
  C  C169  1  0.37486280  0.84218771  0.58575711  1.0
  C  C170  1  0.32875245  0.77788701  0.57207712  1.0
  C  C171  1  0.23136309  0.78724325  0.56721108  1.0
  C  C172  1  0.27965469  0.06701031  0.53757722  1.0
  C  C173  1  0.22020421  0.06612593  0.58485327  1.0
  C  C174  1  0.21270276  0.13328966  0.61464004  1.0
  C  C175  1  0.26489643  0.19460964  0.60122192  1.0
  C  C176  1  0.32522930  0.19423785  0.55483743  1.0
  C  C177  1  0.32939330  0.12936237  0.52276454  1.0
  C  C178  1  0.03721808  0.02328719  0.67224956  1.0
  C  C179  1  0.12949700  0.99759822  0.65997662  1.0
  C  C180  1  0.18753755  0.98175490  0.70627354  1.0
  C  C181  1  0.15725359  0.98976728  0.76141868  1.0
  C  C182  1  0.06442601  0.01342990  0.77267687  1.0
  C  C183  1  0.00593715  0.02947270  0.72705075  1.0
  O  O184  1  0.36135773  0.32944822  0.39846424  1.0
  O  O185  1  0.57730671  0.28177265  0.43710934  1.0
  O  O186  1  0.50840205  0.37982906  0.35828066  1.0
  O  O187  1  0.39686508  0.29983385  0.58710579  1.0
  O  O188  1  0.57937375  0.48887190  0.34313140  1.0
  O  O189  1  0.40484770  0.27823337  0.49388648  1.0
  O  O190  1  0.71452870  0.31877694  0.47174874  1.0
  O  O191  1  0.59067629  0.44367660  0.45866705  1.0
  O  O192  1  0.55403769  0.34918884  0.53914129  1.0
  O  O193  1  0.40996574  0.48283765  0.42293745  1.0
  O  O194  1  0.40561046  0.43423852  0.52016033  1.0
  O  O195  1  0.32847752  0.42371926  0.63846572  1.0
  O  O196  1  0.81661337  0.43623027  0.45989948  1.0
  O  O197  1  0.58405727  0.47368636  0.58386757  1.0
  O  O198  1  0.67547193  0.54711636  0.50993494  1.0
  O  O199  1  0.49901815  0.57829905  0.49188273  1.0
  O  O200  1  0.42241626  0.54102681  0.58746442  1.0
  O  O201  1  0.72752319  0.54992421  0.39435876  1.0
  O  O202  1  0.63101214  0.67248788  0.43753064  1.0
  O  O203  1  0.61836581  0.69637438  0.53040680  1.0
  O  O204  1  0.22504589  0.53160103  0.46615317  1.0
  O  O205  1  0.45763909  0.68772005  0.58530571  1.0
  O  O206  1  0.50136574  0.61979286  0.37208904  1.0
  O  O207  1  0.34637444  0.62746304  0.41910522  1.0
  O  O208  1  0.24730795  0.52363889  0.56929478  1.0
  O  O209  1  0.33833716  0.66178691  0.52805401  1.0
  O  O210  1  0.68053188  0.63162613  0.62059289  1.0
  O  O211  1  0.51821036  0.32070144  0.66170801  1.0
  O  O212  1  0.55262978  0.57262941  0.67505286  1.0
  O  O213  1  0.49139985  0.45886557  0.68749049  1.0
  O  O214  1  0.71189767  0.33209725  0.58720580  1.0
  O  O215  1  0.80819477  0.46028610  0.56131667  1.0
  O  O216  1  0.21267904  0.10182691  0.90702707  1.0
  O  O217  1  0.98304982  0.16998608  0.93673714  1.0
  O  O218  1  0.06073678  0.06684089  0.86261304  1.0
  O  O219  1  0.15270649  0.14674815  0.08963313  1.0
  O  O220  1  0.98200759  0.96170045  0.84839441  1.0
  O  O221  1  0.15416580  0.16690055  0.99505994  1.0
  O  O222  1  0.84629204  0.14057327  0.97899641  1.0
  O  O223  1  0.96369249  0.00643843  0.96142781  1.0
  O  O224  1  0.00012719  0.09864485  0.03744141  1.0
  O  O225  1  0.12724067  0.95228820  0.93023551  1.0
  O  O226  1  0.14571087  0.01119178  0.02453625  1.0
  O  O227  1  0.22201092  0.01742918  0.13844503  1.0
  O  O228  1  0.76094510  0.01447885  0.95741679  1.0
  O  O229  1  0.96117150  0.97583914  0.08536811  1.0
  O  O230  1  0.87566011  0.90420360  0.01405078  1.0
  O  O231  1  0.05227719  0.86563761  0.00459590  1.0
  O  O232  1  0.12227516  0.90633741  0.09632006  1.0
  O  O233  1  0.83472359  0.90515198  0.90311824  1.0
  O  O234  1  0.92520354  0.77778359  0.95353226  1.0
  O  O235  1  0.91549498  0.75549402  0.04747404  1.0
  O  O236  1  0.30825252  0.92279988  0.96270739  1.0
  O  O237  1  0.08145485  0.75969916  0.09972427  1.0
  O  O238  1  0.05401005  0.82331477  0.88074952  1.0
  O  O239  1  0.20370908  0.80624130  0.94013294  1.0
  O  O240  1  0.30620022  0.92593871  0.07556234  1.0
  O  O241  1  0.21535846  0.78334104  0.05118167  1.0
  O  O242  1  0.83154434  0.83659707  0.12268706  1.0
  O  O243  1  0.99810371  0.10985531  0.15128760  1.0
  O  O244  1  0.97932767  0.86693787  0.17393078  1.0
  O  O245  1  0.05943766  0.97103387  0.18906201  1.0
  O  O246  1  0.84356875  0.11777135  0.09846425  1.0
  O  O247  1  0.74890294  0.00416706  0.07134861  1.0
  F  F248  1  0.28311494  0.53404580  0.19839745  1.0
  F  F249  1  0.20022496  0.64312892  0.98720372  1.0
  F  F250  1  0.22220345  0.39615781  0.16241205  1.0
  F  F251  1  0.31035394  0.24945768  0.96920674  1.0
  F  F252  1  0.52606680  0.34046593  0.08427637  1.0
  F  F253  1  0.55266306  0.59908049  0.95934576  1.0
  F  F254  1  0.69645083  0.62830551  0.86974508  1.0
  F  F255  1  0.88606186  0.59914220  0.06770171  1.0
  F  F256  1  0.98939726  0.32815890  0.95787559  1.0
  F  F257  1  0.61645793  0.33652197  0.90982642  1.0
  F  F258  1  0.39671307  0.30757375  0.17376599  1.0
  F  F259  1  0.54256733  0.56410280  0.24737446  1.0
  F  F260  1  0.79930521  0.49126178  0.83409654  1.0
  F  F261  1  0.42184750  0.49570912  0.80201446  1.0
  F  F262  1  0.56226121  0.86334411  0.48465938  1.0
  F  F263  1  0.93424804  0.82332937  0.43294719  1.0
  F  F264  1  0.77185669  0.03289924  0.53093402  1.0
  F  F265  1  0.73635133  0.21629430  0.34358773  1.0
  F  F266  1  0.12413565  0.92492567  0.30029555  1.0
  F  F267  1  0.74635650  0.95622905  0.33451315  1.0
  F  F268  1  0.99774901  0.90296017  0.61246478  1.0
  F  F269  1  0.00318836  0.08599361  0.42564117  1.0
  F  F270  1  0.17825347  0.72868789  0.55613495  1.0
  F  F271  1  0.37871181  0.96903360  0.60700247  1.0
  F  F272  1  0.38556555  0.12468800  0.47643795  1.0
  F  F273  1  0.15319757  0.14300592  0.65926341  1.0
  F  F274  1  0.91506561  0.05354098  0.73659382  1.0
  F  F275  1  0.27951546  0.95974688  0.69894368  1.0
