# generated using pymatgen
data_Zn4H18C24N6O13
_symmetry_space_group_name_H-M   'P 1'
_cell_length_a   17.79318364
_cell_length_b   17.88633832
_cell_length_c   18.14270428
_cell_angle_alpha   61.52594690
_cell_angle_beta   61.31179525
_cell_angle_gamma   61.10072481
_symmetry_Int_Tables_number   1
_chemical_formula_structural   Zn4H18C24N6O13
_chemical_formula_sum   'Zn8 H36 C48 N12 O26'
_cell_volume   4203.20254800
_cell_formula_units_Z   2
loop_
 _symmetry_equiv_pos_site_id
 _symmetry_equiv_pos_as_xyz
  1  'x, y, z'
loop_
 _atom_site_type_symbol
 _atom_site_label
 _atom_site_symmetry_multiplicity
 _atom_site_fract_x
 _atom_site_fract_y
 _atom_site_fract_z
 _atom_site_occupancy
  Zn  Zn0  1  0.03045605  0.04605575  0.85686468  1.0
  Zn  Zn1  1  0.03453702  0.05522393  0.02664979  1.0
  Zn  Zn2  1  0.04194123  0.87424587  0.02679422  1.0
  Zn  Zn3  1  0.85864595  0.04633190  0.02868058  1.0
  Zn  Zn4  1  0.44762817  0.46141571  0.61422265  1.0
  Zn  Zn5  1  0.44242628  0.46702459  0.43761792  1.0
  Zn  Zn6  1  0.62267811  0.45824483  0.44422193  1.0
  Zn  Zn7  1  0.45323081  0.63655678  0.44305395  1.0
  H  H8  1  0.30529783  0.09271162  0.78316420  1.0
  H  H9  1  0.44799507  0.11149327  0.67522962  1.0
  H  H10  1  0.45797003  0.21203663  0.60342612  1.0
  H  H11  1  0.16807470  0.42501229  0.67874394  1.0
  H  H12  1  0.01356115  0.30037972  0.78440210  1.0
  H  H13  1  0.02404753  0.40304490  0.73846230  1.0
  H  H14  1  0.07768608  0.80295266  0.78006562  1.0
  H  H15  1  0.09918480  0.74558666  0.67284940  1.0
  H  H16  1  0.20259365  0.70104106  0.60671492  1.0
  H  H17  1  0.41273338  0.69943257  0.69485998  1.0
  H  H18  1  0.29009170  0.87173398  0.80015934  1.0
  H  H19  1  0.39236061  0.80210578  0.75860662  1.0
  H  H20  1  0.78339023  0.31637149  0.79646164  1.0
  H  H21  1  0.72891674  0.46064302  0.69237307  1.0
  H  H22  1  0.68809265  0.47194771  0.61959908  1.0
  H  H23  1  0.68880647  0.18420809  0.68239180  1.0
  H  H24  1  0.85959295  0.02834553  0.78820195  1.0
  H  H25  1  0.79270321  0.04081586  0.73893117  1.0
  H  H26  1  0.31634066  0.81754251  0.06833505  1.0
  H  H27  1  0.45801665  0.76256646  0.09222776  1.0
  H  H28  1  0.46808883  0.71623807  0.19392116  1.0
  H  H29  1  0.17550570  0.71064603  0.39431004  1.0
  H  H30  1  0.02352346  0.88834731  0.27299781  1.0
  H  H31  1  0.03249797  0.81782155  0.37292416  1.0
  H  H32  1  0.78685120  0.08887053  0.30004655  1.0
  H  H33  1  0.72916336  0.10848140  0.44196335  1.0
  H  H34  1  0.68407961  0.21050480  0.45432523  1.0
  H  H35  1  0.67951630  0.42165297  0.17230625  1.0
  H  H36  1  0.85782359  0.30403142  0.01803509  1.0
  H  H37  1  0.78373939  0.40441085  0.03071335  1.0
  H  H38  1  0.78273564  0.80495649  0.07507119  1.0
  H  H39  1  0.71909868  0.70003199  0.09821720  1.0
  H  H40  1  0.68350352  0.62797530  0.19814683  1.0
  H  H41  1  0.71283249  0.69744382  0.40051097  1.0
  H  H42  1  0.88931953  0.79923998  0.27099308  1.0
  H  H43  1  0.82711179  0.75163858  0.37363972  1.0
  C  C44  1  0.12372806  0.14697952  0.84610568  1.0
  C  C45  1  0.18161462  0.20525641  0.78421474  1.0
  C  C46  1  0.27592620  0.16581623  0.75740069  1.0
  C  C47  1  0.33288468  0.21760279  0.69649730  1.0
  C  C48  1  0.29149879  0.31212708  0.67173672  1.0
  C  C49  1  0.19733430  0.35162669  0.69979107  1.0
  C  C50  1  0.14011650  0.29930028  0.75222485  1.0
  C  C51  1  0.34888612  0.37165275  0.61496390  1.0
  C  C52  1  0.13191209  0.86500297  0.84837945  1.0
  C  C53  1  0.19123017  0.80769674  0.78928569  1.0
  C  C54  1  0.15158835  0.78186857  0.75892250  1.0
  C  C55  1  0.20441944  0.73153664  0.70027878  1.0
  C  C56  1  0.29939046  0.70062066  0.68004095  1.0
  C  C57  1  0.33895450  0.72472462  0.71215916  1.0
  C  C58  1  0.28632907  0.78244504  0.76359599  1.0
  C  C59  1  0.35874554  0.64255239  0.62203235  1.0
  C  C60  1  0.84824522  0.13631064  0.85154300  1.0
  C  C61  1  0.79220868  0.19453315  0.79161129  1.0
  C  C62  1  0.76483664  0.28810887  0.76837452  1.0
  C  C63  1  0.71675422  0.34591902  0.70814486  1.0
  C  C64  1  0.68782227  0.30586629  0.68006492  1.0
  C  C65  1  0.71289360  0.21248814  0.70526384  1.0
  C  C66  1  0.76989439  0.15460290  0.75716729  1.0
  C  C67  1  0.62971025  0.36413756  0.62202558  1.0
  C  C68  1  0.13483875  0.87790878  0.11813561  1.0
  C  C69  1  0.19171962  0.82235951  0.17758426  1.0
  C  C70  1  0.28600807  0.79637173  0.14039113  1.0
  C  C71  1  0.34244512  0.74583690  0.19328527  1.0
  C  C72  1  0.30007852  0.71267258  0.28564697  1.0
  C  C73  1  0.20558234  0.73728347  0.32260914  1.0
  C  C74  1  0.14925368  0.79678629  0.27037813  1.0
  C  C75  1  0.35624576  0.65092610  0.34511832  1.0
  C  C76  1  0.85082898  0.14422257  0.12257575  1.0
  C  C77  1  0.79243720  0.20251353  0.18074695  1.0
  C  C78  1  0.76539196  0.16229297  0.27265307  1.0
  C  C79  1  0.71371669  0.21381240  0.33018105  1.0
  C  C80  1  0.68141154  0.30828623  0.29152379  1.0
  C  C81  1  0.70607790  0.34840328  0.19958852  1.0
  C  C82  1  0.76620154  0.29723349  0.14212608  1.0
  C  C83  1  0.62283425  0.36700165  0.34897952  1.0
  C  C84  1  0.86136590  0.86225627  0.12184199  1.0
  C  C85  1  0.80550628  0.80201038  0.18247046  1.0
  C  C86  1  0.76915601  0.77827109  0.14665780  1.0
  C  C87  1  0.71902922  0.71919079  0.19988842  1.0
  C  C88  1  0.69722333  0.69322381  0.29247620  1.0
  C  C89  1  0.73134891  0.71887900  0.32855966  1.0
  C  C90  1  0.79067429  0.76912070  0.27461167  1.0
  C  C91  1  0.63706600  0.63677783  0.35261113  1.0
  N  N92  1  0.42727394  0.17802617  0.66654889  1.0
  N  N93  1  0.04537368  0.33876682  0.77774723  1.0
  N  N94  1  0.16480378  0.70707143  0.66829215  1.0
  N  N95  1  0.32583199  0.80928882  0.79352808  1.0
  N  N96  1  0.69212424  0.43962074  0.68200504  1.0
  N  N97  1  0.79773001  0.06103784  0.77950188  1.0
  N  N98  1  0.43657167  0.72328130  0.15560989  1.0
  N  N99  1  0.05418484  0.82464673  0.30775641  1.0
  N  N100  1  0.68925384  0.17341305  0.42249643  1.0
  N  N101  1  0.79381873  0.33779571  0.05018551  1.0
  N  N102  1  0.68569525  0.69189933  0.16385639  1.0
  N  N103  1  0.82754732  0.79164857  0.31087985  1.0
  O  O104  1  0.99125797  0.00534496  0.98555791  1.0
  O  O105  1  0.13175823  0.09952962  0.92288118  1.0
  O  O106  1  0.06875909  0.14997715  0.81706108  1.0
  O  O107  1  0.39573551  0.36929554  0.53548029  1.0
  O  O108  1  0.34710656  0.41965125  0.65023356  1.0
  O  O109  1  0.08720687  0.82911040  0.92746317  1.0
  O  O110  1  0.13183228  0.94653465  0.81426406  1.0
  O  O111  1  0.35380432  0.67699016  0.54336034  1.0
  O  O112  1  0.40884853  0.56367041  0.65417501  1.0
  O  O113  1  0.81587339  0.14347780  0.92850279  1.0
  O  O114  1  0.92634014  0.08195496  0.82047155  1.0
  O  O115  1  0.66460196  0.41463029  0.54525734  1.0
  O  O116  1  0.55011033  0.36022774  0.65262748  1.0
  O  O117  1  0.14185381  0.84252807  0.06757218  1.0
  O  O118  1  0.08209247  0.95696133  0.12350285  1.0
  O  O119  1  0.41212597  0.67938488  0.34172673  1.0
  O  O120  1  0.34558487  0.57436714  0.39463585  1.0
  O  O121  1  0.81819562  0.09253890  0.12602593  1.0
  O  O122  1  0.92972902  0.15153072  0.07278833  1.0
  O  O123  1  0.65591633  0.35857138  0.40303423  1.0
  O  O124  1  0.54521392  0.42060086  0.34114289  1.0
  O  O125  1  0.82613511  0.93802684  0.07064735  1.0
  O  O126  1  0.94135244  0.83317669  0.12615776  1.0
  O  O127  1  0.66731072  0.55763247  0.34713750  1.0
  O  O128  1  0.56010665  0.67124298  0.40380419  1.0
  O  O129  1  0.49088460  0.50560821  0.48490673  1.0
