# generated using pymatgen
data_ZnH10C18SBrNO6
_symmetry_space_group_name_H-M   'P 1'
_cell_length_a   12.80489262
_cell_length_b   16.39965848
_cell_length_c   17.79172860
_cell_angle_alpha   95.26651878
_cell_angle_beta   90.20538665
_cell_angle_gamma   92.16876912
_symmetry_Int_Tables_number   1
_chemical_formula_structural   ZnH10C18SBrNO6
_chemical_formula_sum   'Zn2 H20 C36 S2 Br2 N2 O12'
_cell_volume   3717.65865773
_cell_formula_units_Z   2
loop_
 _symmetry_equiv_pos_site_id
 _symmetry_equiv_pos_as_xyz
  1  'x, y, z'
loop_
 _atom_site_type_symbol
 _atom_site_label
 _atom_site_symmetry_multiplicity
 _atom_site_fract_x
 _atom_site_fract_y
 _atom_site_fract_z
 _atom_site_occupancy
  Zn  Zn0  1  0.49932307  0.41412398  0.49673290  1.0
  Zn  Zn1  1  0.50067085  0.58587706  0.50326842  1.0
  H  H2  1  0.39518339  0.71297552  0.42614415  1.0
  H  H3  1  0.39847535  0.86401148  0.42751596  1.0
  H  H4  1  0.64159463  0.86908591  0.60011413  1.0
  H  H5  1  0.62659445  0.72044273  0.58932956  1.0
  H  H6  1  0.35837216  0.13091942  0.39988074  1.0
  H  H7  1  0.60148424  0.13597423  0.57247724  1.0
  H  H8  1  0.60477997  0.28700714  0.57386174  1.0
  H  H9  1  0.37338561  0.27956260  0.41066646  1.0
  H  H10  1  0.50563559  0.61751099  0.26332153  1.0
  H  H11  1  0.50621083  0.61072903  0.12469520  1.0
  H  H12  1  0.49231105  0.34493786  0.11842099  1.0
  H  H13  1  0.49243022  0.35553964  0.25431602  1.0
  H  H14  1  0.50780436  0.65507240  0.88157631  1.0
  H  H15  1  0.49390564  0.38928676  0.87531605  1.0
  H  H16  1  0.49444839  0.38249499  0.73669163  1.0
  H  H17  1  0.50759912  0.64446693  0.74568696  1.0
  H  H18  1  0.63511430  0.96907784  0.59599991  1.0
  H  H19  1  0.36484014  0.03091461  0.40399105  1.0
  H  H20  1  0.49232169  0.35280914  0.02968786  1.0
  H  H21  1  0.50775906  0.64721092  0.97031918  1.0
  C  C22  1  0.49794945  0.49179437  0.35253436  1.0
  C  C23  1  0.29473883  0.49940723  0.49920279  1.0
  C  C24  1  0.50207367  0.50819688  0.64746732  1.0
  C  C25  1  0.70524972  0.50061338  0.50071585  1.0
  C  C26  1  0.44831996  0.75129474  0.46359229  1.0
  C  C27  1  0.45060742  0.83600004  0.46470533  1.0
  C  C28  1  0.51993579  0.88434907  0.51399044  1.0
  C  C29  1  0.58413904  0.84014477  0.55951866  1.0
  C  C30  1  0.57723066  0.75522317  0.55487859  1.0
  C  C31  1  0.52838220  0.97418447  0.52017931  1.0
  C  C32  1  0.47157152  0.02580921  0.47981005  1.0
  C  C33  1  0.41582540  0.15986055  0.44047902  1.0
  C  C34  1  0.48002028  0.11564461  0.48600230  1.0
  C  C35  1  0.54934770  0.16398997  0.53529104  1.0
  C  C36  1  0.55164768  0.24869588  0.53640921  1.0
  C  C37  1  0.42274457  0.24477910  0.44512110  1.0
  C  C38  1  0.49821463  0.48713042  0.26828269  1.0
  C  C39  1  0.50237310  0.55819745  0.23014848  1.0
  C  C40  1  0.50277169  0.55425509  0.15183978  1.0
  C  C41  1  0.49880249  0.47809651  0.10702050  1.0
  C  C42  1  0.49508230  0.40703491  0.14699012  1.0
  C  C43  1  0.49487775  0.41124324  0.22527048  1.0
  C  C44  1  0.49841657  0.46917626  0.02407915  1.0
  C  C45  1  0.50172266  0.53084198  0.97593405  1.0
  C  C46  1  0.50501816  0.59297290  0.85301368  1.0
  C  C47  1  0.50131777  0.52191683  0.89299168  1.0
  C  C48  1  0.49733133  0.44575702  0.84817226  1.0
  C  C49  1  0.49772265  0.44180975  0.76986369  1.0
  C  C50  1  0.50184640  0.51286941  0.73172148  1.0
  C  C51  1  0.50518897  0.58876149  0.77473074  1.0
  C  C52  1  0.10711757  0.43156413  0.49715452  1.0
  C  C53  1  0.89285924  0.56847358  0.50267504  1.0
  C  C54  1  0.17915084  0.49704499  0.49924088  1.0
  C  C55  1  0.82083648  0.50298355  0.50061266  1.0
  C  C56  1  0.99715154  0.54279350  0.50138927  1.0
  C  C57  1  0.00283372  0.45725827  0.49838248  1.0
  S  S58  1  0.11895282  0.59096816  0.50283325  1.0
  S  S59  1  0.88104681  0.40907322  0.49698149  1.0
  Br  Br60  1  0.13627690  0.31946768  0.49346019  1.0
  Br  Br61  1  0.86368060  0.68057371  0.50640337  1.0
  N  N62  1  0.51008267  0.71107700  0.50775326  1.0
  N  N63  1  0.48989088  0.28892281  0.49224566  1.0
  O  O64  1  0.49769555  0.42414233  0.38271898  1.0
  O  O65  1  0.49821657  0.56297356  0.38801404  1.0
  O  O66  1  0.33884359  0.57077869  0.50184347  1.0
  O  O67  1  0.33948070  0.43147601  0.49675407  1.0
  O  O68  1  0.50210933  0.57582558  0.61727857  1.0
  O  O69  1  0.50199802  0.43700425  0.61198917  1.0
  O  O70  1  0.66114401  0.42922467  0.49792983  1.0
  O  O71  1  0.66050653  0.56854594  0.50338445  1.0
  O  O72  1  0.60002596  0.01103170  0.57133058  1.0
  O  O73  1  0.39993245  0.98896198  0.42865711  1.0
  O  O74  1  0.49424646  0.38998099  0.99013362  1.0
  O  O75  1  0.50587649  0.61003970  0.00987356  1.0
