# generated using pymatgen
data_ZnH8C12(N2Cl)2
_symmetry_space_group_name_H-M   'P 1'
_cell_length_a   14.48271434
_cell_length_b   17.85305598
_cell_length_c   31.14583098
_cell_angle_alpha   80.57018780
_cell_angle_beta   90.00699457
_cell_angle_gamma   66.06769501
_symmetry_Int_Tables_number   1
_chemical_formula_structural   ZnH8C12(N2Cl)2
_chemical_formula_sum   'Zn12 H96 C144 N48 Cl24'
_cell_volume   7241.43630725
_cell_formula_units_Z   12
loop_
 _symmetry_equiv_pos_site_id
 _symmetry_equiv_pos_as_xyz
  1  'x, y, z'
loop_
 _atom_site_type_symbol
 _atom_site_label
 _atom_site_symmetry_multiplicity
 _atom_site_fract_x
 _atom_site_fract_y
 _atom_site_fract_z
 _atom_site_occupancy
  Zn  Zn0  1  0.06760733  0.14399606  0.89819289  1.0
  Zn  Zn1  1  0.21146573  0.85595148  0.60180821  1.0
  Zn  Zn2  1  0.93239194  0.85600405  0.10180712  1.0
  Zn  Zn3  1  0.78853455  0.14404800  0.39819153  1.0
  Zn  Zn4  1  0.75295879  0.75660143  0.55303979  1.0
  Zn  Zn5  1  0.50959081  0.24338342  0.94694904  1.0
  Zn  Zn6  1  0.24704149  0.24339805  0.44696060  1.0
  Zn  Zn7  1  0.49040847  0.75661668  0.05305097  1.0
  Zn  Zn8  1  0.14975520  0.39772215  0.71142029  1.0
  Zn  Zn9  1  0.54746183  0.60225719  0.78858098  1.0
  Zn  Zn10  1  0.85024445  0.60227858  0.28857966  1.0
  Zn  Zn11  1  0.45253813  0.39774292  0.21141903  1.0
  H  H12  1  0.86670457  0.62897808  0.63001761  1.0
  H  H13  1  0.49570367  0.37100483  0.87003075  1.0
  H  H14  1  0.13329602  0.37102078  0.36998252  1.0
  H  H15  1  0.50429561  0.62899527  0.12996894  1.0
  H  H16  1  0.84544414  0.51853317  0.68392487  1.0
  H  H17  1  0.36400520  0.48147046  0.81609984  1.0
  H  H18  1  0.15455514  0.48146693  0.31607578  1.0
  H  H19  1  0.63599477  0.51852964  0.18390017  1.0
  H  H20  1  0.54019938  0.60528278  0.62588172  1.0
  H  H21  1  0.14544508  0.39480458  0.87407557  1.0
  H  H22  1  0.45980090  0.39471670  0.37411803  1.0
  H  H23  1  0.85455520  0.60519490  0.12592481  1.0
  H  H24  1  0.57450098  0.71019472  0.57349002  1.0
  H  H25  1  0.28466656  0.28979389  0.92647899  1.0
  H  H26  1  0.42550031  0.28980413  0.42651042  1.0
  H  H27  1  0.71533410  0.71020621  0.07352102  1.0
  H  H28  1  0.40982852  0.51512249  0.65675310  1.0
  H  H29  1  0.92495202  0.48499356  0.84332196  1.0
  H  H30  1  0.59017145  0.48487761  0.34324754  1.0
  H  H31  1  0.07504758  0.51500591  0.15667779  1.0
  H  H32  1  0.24187931  0.50313692  0.65807643  1.0
  H  H33  1  0.74504912  0.49687180  0.84193892  1.0
  H  H34  1  0.75812136  0.49686318  0.34192358  1.0
  H  H35  1  0.25494985  0.50312893  0.15806102  1.0
  H  H36  1  0.34640832  0.30827567  0.76314636  1.0
  H  H37  1  0.65457223  0.69174508  0.73688174  1.0
  H  H38  1  0.65359097  0.69172443  0.23685397  1.0
  H  H39  1  0.34542812  0.30825564  0.26311821  1.0
  H  H40  1  0.51942830  0.31105482  0.76582647  1.0
  H  H41  1  0.83030939  0.68912060  0.73426329  1.0
  H  H42  1  0.48057259  0.68894342  0.23417372  1.0
  H  H43  1  0.16969160  0.31087887  0.26573678  1.0
  H  H44  1  0.70903568  0.27464093  0.81723865  1.0
  H  H45  1  0.98363494  0.72529701  0.68280920  1.0
  H  H46  1  0.29096329  0.72535979  0.18276130  1.0
  H  H47  1  0.01636497  0.27470184  0.31718996  1.0
  H  H48  1  0.84134166  0.18499552  0.87630469  1.0
  H  H49  1  0.02628503  0.81489761  0.62370028  1.0
  H  H50  1  0.15865830  0.81500459  0.12369564  1.0
  H  H51  1  0.97371495  0.18510249  0.37629973  1.0
  H  H52  1  0.04572855  0.27919121  0.82484765  1.0
  H  H53  1  0.32490253  0.72073580  0.67516763  1.0
  H  H54  1  0.95427305  0.72080702  0.17515221  1.0
  H  H55  1  0.67509805  0.27926306  0.32483218  1.0
  H  H56  1  0.92213141  0.37136661  0.76313289  1.0
  H  H57  1  0.29347526  0.62864190  0.73692043  1.0
  H  H58  1  0.07786957  0.62863287  0.23686718  1.0
  H  H59  1  0.70652402  0.37135820  0.26307990  1.0
  H  H60  1  0.97540251  0.21705578  0.97544876  1.0
  H  H61  1  0.19235270  0.78299951  0.52451272  1.0
  H  H62  1  0.02459753  0.78294557  0.02455145  1.0
  H  H63  1  0.80764596  0.21700183  0.47548621  1.0
  H  H64  1  0.84172367  0.20927276  0.02613038  1.0
  H  H65  1  0.05087689  0.79069477  0.47384704  1.0
  H  H66  1  0.15827668  0.79072796  0.97387021  1.0
  H  H67  1  0.94912178  0.20930657  0.52615189  1.0
  H  H68  1  0.84349165  0.00446208  0.96933932  1.0
  H  H69  1  0.84773681  0.99544634  0.53063392  1.0
  H  H70  1  0.15650802  0.99553864  0.03066159  1.0
  H  H71  1  0.15226353  0.00455439  0.46936635  1.0
  H  H72  1  0.97870116  0.01935045  0.92156143  1.0
  H  H73  1  0.99784722  0.98071443  0.57837421  1.0
  H  H74  1  0.02129743  0.98064965  0.07843922  1.0
  H  H75  1  0.00215313  0.01928629  0.42162541  1.0
  H  H76  1  0.50644496  0.01172166  0.10249783  1.0
  H  H77  1  0.51814468  0.98832180  0.39749603  1.0
  H  H78  1  0.49355601  0.98827782  0.89750192  1.0
  H  H79  1  0.48185499  0.01167892  0.60250392  1.0
  H  H80  1  0.44110551  0.90121301  0.09791229  1.0
  H  H81  1  0.34224818  0.09891349  0.40208322  1.0
  H  H82  1  0.55889516  0.09878709  0.90208740  1.0
  H  H83  1  0.65775148  0.90108723  0.59791673  1.0
  H  H84  1  0.61732841  0.82276172  0.99617760  1.0
  H  H85  1  0.44016120  0.17721973  0.50385743  1.0
  H  H86  1  0.38267288  0.17723713  0.00382252  1.0
  H  H87  1  0.55983908  0.82277975  0.49614296  1.0
  H  H88  1  0.69241656  0.92822215  0.99739653  1.0
  H  H89  1  0.62074264  0.07175659  0.50258950  1.0
  H  H90  1  0.30758542  0.07177670  0.00260392  1.0
  H  H91  1  0.37925764  0.92824289  0.49741121  1.0
  H  H92  1  0.62925467  0.30592762  0.07372251  1.0
  H  H93  1  0.93505101  0.69414163  0.42627841  1.0
  H  H94  1  0.37074599  0.69407248  0.92627782  1.0
  H  H95  1  0.06495003  0.30585909  0.57372121  1.0
  H  H96  1  0.54933413  0.40385054  0.12672097  1.0
  H  H97  1  0.95310673  0.59617044  0.37330173  1.0
  H  H98  1  0.45066652  0.59614957  0.87327936  1.0
  H  H99  1  0.04689293  0.40383028  0.62669822  1.0
  H  H100  1  0.50880827  0.21860875  0.21272587  1.0
  H  H101  1  0.72737931  0.78137498  0.28723118  1.0
  H  H102  1  0.49119032  0.78139135  0.78727382  1.0
  H  H103  1  0.27262173  0.21862574  0.71276813  1.0
  H  H104  1  0.57964835  0.11536169  0.16187527  1.0
  H  H105  1  0.69485670  0.88466747  0.33808336  1.0
  H  H106  1  0.42035193  0.88463779  0.83812512  1.0
  H  H107  1  0.30514404  0.11533387  0.66191620  1.0
  C  C108  1  0.79598167  0.62092339  0.62999087  1.0
  C  C109  1  0.41690624  0.37907888  0.87003311  1.0
  C  C110  1  0.20401961  0.37907547  0.37000926  1.0
  C  C111  1  0.58309404  0.62092060  0.12996664  1.0
  C  C112  1  0.78347758  0.55964023  0.66004143  1.0
  C  C113  1  0.34311615  0.44038054  0.83997449  1.0
  C  C114  1  0.21652409  0.44035925  0.33995895  1.0
  C  C115  1  0.65688313  0.55961956  0.16002552  1.0
  C  C116  1  0.69102246  0.55210597  0.65871634  1.0
  C  C117  1  0.24313586  0.44792820  0.84128836  1.0
  C  C118  1  0.30897782  0.44789351  0.34128340  1.0
  C  C119  1  0.75686411  0.55207190  0.15871133  1.0
  C  C120  1  0.61411020  0.60737249  0.62728561  1.0
  C  C121  1  0.22147872  0.39266063  0.87270291  1.0
  C  C122  1  0.38589077  0.39262699  0.37271413  1.0
  C  C123  1  0.77852156  0.60733885  0.12729716  1.0
  C  C124  1  0.63301131  0.66639043  0.59822569  1.0
  C  C125  1  0.29938364  0.33360760  0.90176409  1.0
  C  C126  1  0.36698966  0.33360905  0.40177437  1.0
  C  C127  1  0.70061595  0.66639188  0.09823598  1.0
  C  C128  1  0.67441388  0.48748750  0.68993784  1.0
  C  C129  1  0.16187258  0.51254946  0.81008244  1.0
  C  C130  1  0.32558640  0.51251198  0.31006190  1.0
  C  C131  1  0.83812638  0.48745127  0.18991783  1.0
  C  C132  1  0.57606782  0.41963790  0.71306597  1.0
  C  C133  1  0.99563190  0.58046810  0.78699075  1.0
  C  C134  1  0.42393246  0.58036158  0.28693474  1.0
  C  C135  1  0.00436769  0.41953138  0.21300932  1.0
  C  C136  1  0.72905966  0.38204975  0.74850512  1.0
  C  C137  1  0.11104046  0.61804768  0.75155544  1.0
  C  C138  1  0.27094030  0.61795036  0.25149553  1.0
  C  C139  1  0.88895883  0.38195242  0.24844457  1.0
  C  C140  1  0.47756320  0.41287305  0.71099951  1.0
  C  C141  1  0.89032764  0.58731799  0.78910180  1.0
  C  C142  1  0.52243708  0.58712643  0.28900088  1.0
  C  C143  1  0.10967195  0.41268149  0.21089827  1.0
  C  C144  1  0.39877996  0.46770297  0.68025553  1.0
  C  C145  1  0.86644088  0.53245359  0.81984743  1.0
  C  C146  1  0.60122001  0.53229713  0.31974480  1.0
  C  C147  1  0.13355840  0.46754651  0.18015226  1.0
  C  C148  1  0.30633824  0.46125264  0.68079794  1.0
  C  C149  1  0.76759086  0.53882431  0.81926285  1.0
  C  C150  1  0.69366173  0.53874746  0.31920239  1.0
  C  C151  1  0.23240811  0.46117641  0.18073678  1.0
  C  C152  1  0.36544714  0.35143788  0.73968300  1.0
  C  C153  1  0.71677964  0.64865248  0.76037257  1.0
  C  C154  1  0.63455284  0.64856222  0.26031700  1.0
  C  C155  1  0.28322001  0.35134825  0.23962738  1.0
  C  C156  1  0.46001380  0.35363083  0.74121831  1.0
  C  C157  1  0.81351209  0.64654785  0.75887700  1.0
  C  C158  1  0.53998648  0.64636865  0.25878143  1.0
  C  C159  1  0.18648857  0.35345225  0.24112269  1.0
  C  C160  1  0.80573343  0.32904274  0.78465328  1.0
  C  C161  1  0.13474069  0.67096520  0.71539294  1.0
  C  C162  1  0.19426622  0.67095799  0.21534731  1.0
  C  C163  1  0.86525990  0.32903365  0.28460654  1.0
  C  C164  1  0.78335269  0.27615471  0.81731399  1.0
  C  C165  1  0.05945141  0.72380727  0.68271392  1.0
  C  C166  1  0.21664667  0.72384663  0.18268622  1.0
  C  C167  1  0.94054881  0.27619096  0.31728562  1.0
  C  C168  1  0.85713480  0.22636974  0.85047904  1.0
  C  C169  1  0.08345836  0.77353961  0.64953448  1.0
  C  C170  1  0.14286517  0.77363036  0.14952161  1.0
  C  C171  1  0.91654224  0.22645924  0.35046532  1.0
  C  C172  1  0.97065325  0.27936498  0.82188417  1.0
  C  C173  1  0.25000179  0.72056284  0.67813169  1.0
  C  C174  1  0.02934634  0.72063450  0.17811590  1.0
  C  C175  1  0.74999811  0.27943602  0.32186844  1.0
  C  C176  1  0.90127408  0.33089966  0.78745536  1.0
  C  C177  1  0.23215627  0.66908482  0.71258507  1.0
  C  C178  1  0.09872583  0.66909919  0.21254509  1.0
  C  C179  1  0.76784263  0.33091466  0.28741500  1.0
  C  C180  1  0.94383904  0.17089384  0.97559915  1.0
  C  C181  1  0.11460768  0.82911914  0.52437673  1.0
  C  C182  1  0.05616093  0.82910627  0.02440150  1.0
  C  C183  1  0.88539204  0.17088283  0.47562182  1.0
  C  C184  1  0.87071164  0.16620637  0.00342467  1.0
  C  C185  1  0.03678278  0.83373580  0.49657131  1.0
  C  C186  1  0.12928839  0.83379498  0.99657586  1.0
  C  C187  1  0.96321764  0.16626616  0.50342724  1.0
  C  C188  1  0.83244353  0.10630232  0.00114955  1.0
  C  C189  1  0.93859746  0.89357797  0.49886875  1.0
  C  C190  1  0.16755751  0.89369841  0.99885104  1.0
  C  C191  1  0.06140226  0.10642400  0.50113076  1.0
  C  C192  1  0.87170278  0.05170050  0.97168023  1.0
  C  C193  1  0.92320914  0.94822064  0.52831175  1.0
  C  C194  1  0.12829719  0.94829960  0.02832009  1.0
  C  C195  1  0.07678989  0.05178133  0.47168808  1.0
  C  C196  1  0.94535052  0.05993809  0.94521827  1.0
  C  C197  1  0.00511088  0.94006669  0.55474377  1.0
  C  C198  1  0.05464914  0.94006264  0.05478200  1.0
  C  C199  1  0.99488771  0.05993341  0.44525624  1.0
  C  C200  1  0.75169553  0.10146838  0.02921448  1.0
  C  C201  1  0.85302379  0.89838833  0.47080713  1.0
  C  C202  1  0.24830514  0.89853172  0.97078617  1.0
  C  C203  1  0.14697587  0.10161239  0.52919218  1.0
  C  C204  1  0.64948959  0.14601284  0.08290752  1.0
  C  C205  1  0.79527088  0.85396515  0.41708905  1.0
  C  C206  1  0.35050970  0.85398726  0.91709281  1.0
  C  C207  1  0.20473078  0.14603433  0.58291070  1.0
  C  C208  1  0.64686404  0.04003730  0.05270255  1.0
  C  C209  1  0.68677812  0.95996068  0.44729090  1.0
  C  C210  1  0.35313593  0.95996280  0.94729778  1.0
  C  C211  1  0.31322216  0.04003880  0.55270885  1.0
  C  C212  1  0.60478546  0.97768158  0.05018858  1.0
  C  C213  1  0.58241505  0.02237061  0.44979589  1.0
  C  C214  1  0.39521413  0.02231790  0.94981116  1.0
  C  C215  1  0.41758424  0.97762949  0.55020412  1.0
  C  C216  1  0.53273507  0.97054239  0.07873720  1.0
  C  C217  1  0.50323621  0.02952493  0.42124187  1.0
  C  C218  1  0.46726490  0.02945771  0.92126280  1.0
  C  C219  1  0.49676344  0.97047580  0.57875808  1.0
  C  C220  1  0.49675666  0.91008779  0.07640324  1.0
  C  C221  1  0.40681928  0.09000216  0.42358020  1.0
  C  C222  1  0.50324399  0.08991232  0.92359644  1.0
  C  C223  1  0.59318037  0.90999857  0.57642007  1.0
  C  C224  1  0.59580813  0.86598227  0.01918321  1.0
  C  C225  1  0.46185159  0.13404952  0.48082457  1.0
  C  C226  1  0.40419354  0.13401721  0.98081685  1.0
  C  C227  1  0.53814800  0.86594996  0.51917550  1.0
  C  C228  1  0.63615743  0.92442965  0.01973522  1.0
  C  C229  1  0.56063476  0.07561099  0.48024998  1.0
  C  C230  1  0.36384486  0.07556858  0.98026497  1.0
  C  C231  1  0.43936484  0.92438848  0.51974977  1.0
  C  C232  1  0.60943971  0.20375689  0.11409801  1.0
  C  C233  1  0.81297443  0.79625362  0.38589259  1.0
  C  C234  1  0.39055988  0.79624259  0.88590238  1.0
  C  C235  1  0.18702454  0.20374710  0.61410703  1.0
  C  C236  1  0.60341992  0.28497498  0.10430031  1.0
  C  C237  1  0.88821022  0.71505133  0.39571483  1.0
  C  C238  1  0.39658136  0.71502388  0.89570014  1.0
  C  C239  1  0.11178943  0.28494940  0.60428512  1.0
  C  C240  1  0.55953172  0.33888505  0.13321583  1.0
  C  C241  1  0.89827440  0.66111692  0.36681350  1.0
  C  C242  1  0.44046925  0.66111443  0.86678487  1.0
  C  C243  1  0.10172525  0.33888381  0.63318612  1.0
  C  C244  1  0.53455271  0.23546240  0.18115504  1.0
  C  C245  1  0.76988957  0.76453468  0.31882964  1.0
  C  C246  1  0.46544551  0.76453707  0.81884502  1.0
  C  C247  1  0.23011116  0.23546667  0.68116993  1.0
  C  C248  1  0.57460728  0.17858394  0.15338622  1.0
  C  C249  1  0.75301774  0.82143536  0.34658737  1.0
  C  C250  1  0.42539231  0.82141554  0.84661417  1.0
  C  C251  1  0.24698330  0.17856536  0.65341225  1.0
  N  N252  1  0.72231940  0.67310131  0.59946031  1.0
  N  N253  1  0.39540954  0.32688856  0.90054416  1.0
  N  N254  1  0.27768088  0.32689817  0.40053975  1.0
  N  N255  1  0.60459112  0.67311154  0.09945552  1.0
  N  N256  1  0.58750497  0.47900972  0.68409095  1.0
  N  N257  1  0.06648731  0.52100851  0.81591727  1.0
  N  N258  1  0.41249592  0.52098852  0.31590923  1.0
  N  N259  1  0.93351228  0.47899097  0.18408279  1.0
  N  N260  1  0.64587892  0.36734147  0.74467386  1.0
  N  N261  1  0.01313661  0.63278585  0.75539125  1.0
  N  N262  1  0.35412143  0.63265926  0.25532705  1.0
  N  N263  1  0.98686298  0.36721363  0.24460881  1.0
  N  N264  1  0.74652336  0.44191733  0.72227243  1.0
  N  N265  1  0.18838356  0.55817183  0.77777973  1.0
  N  N266  1  0.25347692  0.55808215  0.27772764  1.0
  N  N267  1  0.81161509  0.44182952  0.22222048  1.0
  N  N268  1  0.29010154  0.40408125  0.70994331  1.0
  N  N269  1  0.69414929  0.59595632  0.79009652  1.0
  N  N270  1  0.70989812  0.59591947  0.29005664  1.0
  N  N271  1  0.30585069  0.40404378  0.20990349  1.0
  N  N272  1  0.94946961  0.22742687  0.85267951  1.0
  N  N273  1  0.17684949  0.77248858  0.64733163  1.0
  N  N274  1  0.05052998  0.77257261  0.14732087  1.0
  N  N275  1  0.82315110  0.22751028  0.35266882  1.0
  N  N276  1  0.97980679  0.11920694  0.94674041  1.0
  N  N277  1  0.09885567  0.88082277  0.55323028  1.0
  N  N278  1  0.02019355  0.88079379  0.05325986  1.0
  N  N279  1  0.90114199  0.11917919  0.44676827  1.0
  N  N280  1  0.71929307  0.15526840  0.05699745  1.0
  N  N281  1  0.87437033  0.84462418  0.44301820  1.0
  N  N282  1  0.28070759  0.84473170  0.94300320  1.0
  N  N283  1  0.12563002  0.15537655  0.55698143  1.0
  N  N284  1  0.61229439  0.08849766  0.08287167  1.0
  N  N285  1  0.70060085  0.91154334  0.41710362  1.0
  N  N286  1  0.38770558  0.91150244  0.91712834  1.0
  N  N287  1  0.29939811  0.08845739  0.58289697  1.0
  N  N288  1  0.71615552  0.04410928  0.02489201  1.0
  N  N289  1  0.76015213  0.95579293  0.47512549  1.0
  N  N290  1  0.28384514  0.95589082  0.97510832  1.0
  N  N291  1  0.23984684  0.04420779  0.52487414  1.0
  N  N292  1  0.52835712  0.85832355  0.04732537  1.0
  N  N293  1  0.38670960  0.14172807  0.45267938  1.0
  N  N294  1  0.47164385  0.14167593  0.95267470  1.0
  N  N295  1  0.61329106  0.85827203  0.54732063  1.0
  N  N296  1  0.52546141  0.31456264  0.17088282  1.0
  N  N297  1  0.83991126  0.68543620  0.32913104  1.0
  N  N298  1  0.47453818  0.68543684  0.82911725  1.0
  N  N299  1  0.16008910  0.31456452  0.67086891  1.0
  Cl  Cl300  1  0.14052135  0.21863422  0.92275133  1.0
  Cl  Cl301  1  0.35903031  0.78137427  0.57723740  1.0
  Cl  Cl302  1  0.85947861  0.78136589  0.07724868  1.0
  Cl  Cl303  1  0.64097060  0.21862396  0.42276215  1.0
  Cl  Cl304  1  0.14038094  0.02974900  0.86991843  1.0
  Cl  Cl305  1  0.17014156  0.97020362  0.63006510  1.0
  Cl  Cl306  1  0.85961904  0.97025110  0.13008189  1.0
  Cl  Cl307  1  0.82986042  0.02979523  0.36993471  1.0
  Cl  Cl308  1  0.76471030  0.71069667  0.49058642  1.0
  Cl  Cl309  1  0.47545341  0.28930014  0.00940224  1.0
  Cl  Cl310  1  0.23529036  0.28930343  0.50941358  1.0
  Cl  Cl311  1  0.52454656  0.71069996  0.99059745  1.0
  Cl  Cl312  1  0.86258057  0.78894217  0.58757859  1.0
  Cl  Cl313  1  0.65152813  0.21105394  0.91239286  1.0
  Cl  Cl314  1  0.13741871  0.21105793  0.41242142  1.0
  Cl  Cl315  1  0.34847185  0.78894616  0.08760714  1.0
  Cl  Cl316  1  0.15567924  0.33226763  0.77890650  1.0
  Cl  Cl317  1  0.48792231  0.66771417  0.72109494  1.0
  Cl  Cl318  1  0.84432035  0.66773185  0.22109293  1.0
  Cl  Cl319  1  0.51207835  0.33228594  0.27890507  1.0
  Cl  Cl320  1  0.03876996  0.52105828  0.67807764  1.0
  Cl  Cl321  1  0.55984475  0.47892511  0.82193843  1.0
  Cl  Cl322  1  0.96122971  0.47894244  0.32192231  1.0
  Cl  Cl323  1  0.44015521  0.52107500  0.17806158  1.0
