# generated using pymatgen
data_ZnH14C23NO6
_symmetry_space_group_name_H-M   'P 1'
_cell_length_a   11.83511580
_cell_length_b   14.97922683
_cell_length_c   15.67716760
_cell_angle_alpha   80.85416083
_cell_angle_beta   89.97612959
_cell_angle_gamma   75.36147449
_symmetry_Int_Tables_number   1
_chemical_formula_structural   ZnH14C23NO6
_chemical_formula_sum   'Zn2 H28 C46 N2 O12'
_cell_volume   2652.55993069
_cell_formula_units_Z   2
loop_
 _symmetry_equiv_pos_site_id
 _symmetry_equiv_pos_as_xyz
  1  'x, y, z'
loop_
 _atom_site_type_symbol
 _atom_site_label
 _atom_site_symmetry_multiplicity
 _atom_site_fract_x
 _atom_site_fract_y
 _atom_site_fract_z
 _atom_site_occupancy
  Zn  Zn0  1  0.47544350  0.59536754  0.51792914  1.0
  Zn  Zn1  1  0.51926048  0.40575715  0.48314901  1.0
  H  H2  1  0.26193685  0.71905972  0.94886734  1.0
  H  H3  1  0.15924451  0.78464491  0.35082040  1.0
  H  H4  1  0.21573456  0.66099817  0.36008892  1.0
  H  H5  1  0.10814863  0.72319323  0.27548939  1.0
  H  H6  1  0.23819586  0.76317510  0.09632264  1.0
  H  H7  1  0.66147130  0.20560612  0.91256497  1.0
  H  H8  1  0.35043773  0.60716088  0.85458284  1.0
  H  H9  1  0.54267111  0.36003225  0.15310780  1.0
  H  H10  1  0.77100038  0.97461447  0.37930781  1.0
  H  H11  1  0.33289339  0.99634565  0.69657470  1.0
  H  H12  1  0.41495023  0.79082324  0.34835987  1.0
  H  H13  1  0.62196222  0.24530382  0.05926005  1.0
  H  H14  1  0.46627580  0.89322725  0.35868478  1.0
  H  H15  1  0.55562998  0.79919346  0.31168133  1.0
  H  H16  1  0.29158302  0.19402782  0.45498955  1.0
  H  H17  1  0.30556735  0.31028126  0.41192812  1.0
  H  H18  1  0.23155420  0.29179989  0.50971021  1.0
  H  H19  1  0.35942687  0.67784905  0.66253758  1.0
  H  H20  1  0.70146228  0.30528260  0.37988594  1.0
  H  H21  1  0.78006750  0.14061154  0.35092352  1.0
  H  H22  1  0.31329460  0.83292922  0.71544801  1.0
  H  H23  1  0.67116822  0.85518655  0.44039715  1.0
  H  H24  1  0.40461350  0.12374319  0.61516090  1.0
  H  H25  1  0.45186134  0.52737746  0.77967262  1.0
  H  H26  1  0.50530859  0.46023681  0.22376410  1.0
  H  H27  1  0.72086618  0.30630727  0.64279385  1.0
  H  H28  1  0.77544280  0.18223497  0.66412922  1.0
  H  H29  1  0.82227351  0.25196769  0.73318567  1.0
  C  C30  1  0.44782407  0.56264054  0.34018457  1.0
  C  C31  1  0.57450727  0.31635182  0.03105776  1.0
  C  C32  1  0.70439661  0.15854029  0.39031629  1.0
  C  C33  1  0.36608772  0.82169875  0.65930363  1.0
  C  C34  1  0.66135564  0.24885048  0.40436928  1.0
  C  C35  1  0.38991937  0.73710547  0.63083290  1.0
  C  C36  1  0.50921988  0.20982186  0.48453482  1.0
  C  C37  1  0.49331922  0.79024981  0.51489457  1.0
  C  C38  1  0.55269422  0.11263946  0.48101430  1.0
  C  C39  1  0.48333552  0.87768821  0.54361451  1.0
  C  C40  1  0.65094641  0.08831000  0.42851436  1.0
  C  C41  1  0.52933545  0.42937000  0.66228607  1.0
  C  C42  1  0.41083683  0.89455746  0.61521800  1.0
  C  C43  1  0.50335930  0.03994503  0.52584290  1.0
  C  C44  1  0.53999581  0.94835192  0.50456724  1.0
  C  C45  1  0.72108178  0.48726592  0.49760358  1.0
  C  C46  1  0.27410656  0.51544814  0.51671095  1.0
  C  C47  1  0.63789079  0.92701878  0.45096064  1.0
  C  C48  1  0.42655217  0.05519739  0.59561397  1.0
  C  C49  1  0.69335397  0.99351939  0.41676303  1.0
  C  C50  1  0.38616106  0.98434335  0.64066353  1.0
  C  C51  1  0.84327567  0.48607422  0.50588878  1.0
  C  C52  1  0.34467914  0.63118940  0.06757630  1.0
  C  C53  1  0.15356419  0.51098576  0.52270684  1.0
  C  C54  1  0.94353428  0.49286711  0.51407117  1.0
  C  C55  1  0.05379057  0.50165268  0.51997297  1.0
  C  C56  1  0.40284263  0.58999034  0.24765872  1.0
  C  C57  1  0.54590943  0.39392690  0.75750471  1.0
  C  C58  1  0.29732963  0.69582388  0.12295859  1.0
  C  C59  1  0.61294877  0.27639751  0.88457287  1.0
  C  C60  1  0.32372574  0.67678239  0.21114802  1.0
  C  C61  1  0.60548270  0.30067776  0.79526362  1.0
  C  C62  1  0.44559517  0.52531365  0.19326562  1.0
  C  C63  1  0.56187277  0.34057881  0.93925208  1.0
  C  C64  1  0.49501343  0.45686660  0.81140783  1.0
  C  C65  1  0.41855671  0.54199719  0.10391350  1.0
  C  C66  1  0.49873544  0.43324908  0.90207283  1.0
  C  C67  1  0.74836345  0.24531122  0.69404888  1.0
  C  C68  1  0.18419259  0.72639990  0.31438842  1.0
  C  C69  1  0.49102499  0.81712129  0.36028126  1.0
  C  C70  1  0.30287772  0.26036677  0.47081928  1.0
  C  C71  1  0.46519603  0.47380750  0.04859479  1.0
  C  C72  1  0.44503907  0.49908990  0.95778526  1.0
  C  C73  1  0.37046272  0.58891238  0.92398470  1.0
  C  C74  1  0.53002408  0.38086740  0.08326642  1.0
  C  C75  1  0.32061368  0.65180556  0.97646535  1.0
  N  N76  1  0.56376472  0.27366264  0.44991997  1.0
  N  N77  1  0.44985553  0.72317627  0.55802208  1.0
  O  O78  1  0.42088109  0.62256328  0.39100031  1.0
  O  O79  1  0.27452016  0.74606364  0.25854539  1.0
  O  O80  1  0.54874067  0.76852893  0.44252265  1.0
  O  O81  1  0.40888306  0.24391295  0.52383800  1.0
  O  O82  1  0.51763736  0.37205867  0.61310889  1.0
  O  O83  1  0.51180927  0.47947395  0.36172648  1.0
  O  O84  1  0.52574146  0.51540022  0.63809436  1.0
  O  O85  1  0.65076196  0.56774927  0.49138965  1.0
  O  O86  1  0.33753633  0.45335782  0.47800771  1.0
  O  O87  1  0.69624966  0.40930970  0.49784066  1.0
  O  O88  1  0.30470287  0.57955745  0.54765511  1.0
  O  O89  1  0.65485928  0.23106926  0.74892243  1.0
