# generated using pymatgen
data_Co3H50(C11O4)6
_symmetry_space_group_name_H-M   'P 1'
_cell_length_a   11.11698444
_cell_length_b   14.26125184
_cell_length_c   18.10677980
_cell_angle_alpha   108.64571053
_cell_angle_beta   101.89181398
_cell_angle_gamma   99.62784640
_symmetry_Int_Tables_number   1
_chemical_formula_structural   Co3H50(C11O4)6
_chemical_formula_sum   'Co3 H50 C66 O24'
_cell_volume   2576.12859773
_cell_formula_units_Z   1
loop_
 _symmetry_equiv_pos_site_id
 _symmetry_equiv_pos_as_xyz
  1  'x, y, z'
loop_
 _atom_site_type_symbol
 _atom_site_label
 _atom_site_symmetry_multiplicity
 _atom_site_fract_x
 _atom_site_fract_y
 _atom_site_fract_z
 _atom_site_occupancy
  Co  Co0  1  0.00001694  0.50000674  0.00000718  1.0
  Co  Co1  1  0.31879892  0.61958671  0.10118940  1.0
  Co  Co2  1  0.68121818  0.38041872  0.89880902  1.0
  H  H3  1  0.95023125  0.88411853  0.72504247  1.0
  H  H4  1  0.04977379  0.11588736  0.27496939  1.0
  H  H5  1  0.96413563  0.76966985  0.65262634  1.0
  H  H6  1  0.03584656  0.23033100  0.34738168  1.0
  H  H7  1  0.33630542  0.86953770  0.84052688  1.0
  H  H8  1  0.66370215  0.13041038  0.15942844  1.0
  H  H9  1  0.35528013  0.78158261  0.94084189  1.0
  H  H10  1  0.64475172  0.21837746  0.05911765  1.0
  H  H11  1  0.95133251  0.65524377  0.85992434  1.0
  H  H12  1  0.04868569  0.34478002  0.14010400  1.0
  H  H13  1  0.93016350  0.74299303  0.76200403  1.0
  H  H14  1  0.06983408  0.25703251  0.23802534  1.0
  H  H15  1  0.85344931  0.95142495  0.61760375  1.0
  H  H16  1  0.14653248  0.04856413  0.38240881  1.0
  H  H17  1  0.92396918  0.94196002  0.53598743  1.0
  H  H18  1  0.07600882  0.05804229  0.46402484  1.0
  H  H19  1  0.71159457  0.61883397  0.45588427  1.0
  H  H20  1  0.28839704  0.38115621  0.54411552  1.0
  H  H21  1  0.55168199  0.55529192  0.31914441  1.0
  H  H22  1  0.44830889  0.44470437  0.68085802  1.0
  H  H23  1  0.60148745  0.86249271  0.32499131  1.0
  H  H24  1  0.39850845  0.13750791  0.67501903  1.0
  H  H25  1  0.75491691  0.92773509  0.46108743  1.0
  H  H26  1  0.24507555  0.07225794  0.53891932  1.0
  H  H27  1  0.20012574  0.85277715  0.61556489  1.0
  H  H28  1  0.79986156  0.14722966  0.38442551  1.0
  H  H29  1  0.05405338  0.77496010  0.54221491  1.0
  H  H30  1  0.94593170  0.22503546  0.45778821  1.0
  H  H31  1  0.94550106  0.74580487  0.41774020  1.0
  H  H32  1  0.05447226  0.25417876  0.58223000  1.0
  H  H33  1  0.94143606  0.65137094  0.27839917  1.0
  H  H34  1  0.05856238  0.34863247  0.72157358  1.0
  H  H35  1  0.30985758  0.84200516  0.31369514  1.0
  H  H36  1  0.69014884  0.15802389  0.68631921  1.0
  H  H37  1  0.31312196  0.93978603  0.45686616  1.0
  H  H38  1  0.68684792  0.06021948  0.54314588  1.0
  H  H39  1  0.20402659  0.02236745  0.71529321  1.0
  H  H40  1  0.79595722  0.97763266  0.28471317  1.0
  H  H41  1  0.11431440  0.06529084  0.64412516  1.0
  H  H42  1  0.88567443  0.93470181  0.35587106  1.0
  H  H43  1  0.94622765  0.12678531  0.85711752  1.0
  H  H44  1  0.05376286  0.87322884  0.14288411  1.0
  H  H45  1  0.03245160  0.29442489  0.97280503  1.0
  H  H46  1  0.96756716  0.70558327  0.02720374  1.0
  H  H47  1  0.35038621  0.35981592  0.88002171  1.0
  H  H48  1  0.64961662  0.64017684  0.11996646  1.0
  H  H49  1  0.26494271  0.19586472  0.76415020  1.0
  H  H50  1  0.73503109  0.80413466  0.23583531  1.0
  H  H51  1  0.98134347  0.57883539  0.18013739  1.0
  H  H52  1  0.01877226  0.42110868  0.81987767  1.0
  C  C53  1  0.03383163  0.90854225  0.63245801  1.0
  C  C54  1  0.96615490  0.09145484  0.36754517  1.0
  C  C55  1  0.01138246  0.85074596  0.68875910  1.0
  C  C56  1  0.98861124  0.14925332  0.31124561  1.0
  C  C57  1  0.13326483  0.81081391  0.79458589  1.0
  C  C58  1  0.86673857  0.18917550  0.20540974  1.0
  C  C59  1  0.25290928  0.82211368  0.84549781  1.0
  C  C60  1  0.74710113  0.17785463  0.15447765  1.0
  C  C61  1  0.26306604  0.77343428  0.90091960  1.0
  C  C62  1  0.73695680  0.22653540  0.09905678  1.0
  C  C63  1  0.15445344  0.71219724  0.90611567  1.0
  C  C64  1  0.84557031  0.28779801  0.09388368  1.0
  C  C65  1  0.03551470  0.70216933  0.85538760  1.0
  C  C66  1  0.96450217  0.29784173  0.14462776  1.0
  C  C67  1  0.02387361  0.75133192  0.80001812  1.0
  C  C68  1  0.97613033  0.24867626  0.19999530  1.0
  C  C69  1  0.16427913  0.65843800  0.96458226  1.0
  C  C70  1  0.83575340  0.34155868  0.03541754  1.0
  C  C71  1  0.90588702  0.90717550  0.58009755  1.0
  C  C72  1  0.09409396  0.09281913  0.41991142  1.0
  C  C73  1  0.74419190  0.77634922  0.46655193  1.0
  C  C74  1  0.25579877  0.22364390  0.53345294  1.0
  C  C75  1  0.68582718  0.67138494  0.42656768  1.0
  C  C76  1  0.31416237  0.32860748  0.57343520  1.0
  C  C77  1  0.59792424  0.63646502  0.35090237  1.0
  C  C78  1  0.40206264  0.36353048  0.64910209  1.0
  C  C79  1  0.56850553  0.70506653  0.31319347  1.0
  C  C80  1  0.43148142  0.29493198  0.68681345  1.0
  C  C81  1  0.62589488  0.80948796  0.35421998  1.0
  C  C82  1  0.37409452  0.19050971  0.64578815  1.0
  C  C83  1  0.71229871  0.84607540  0.43097889  1.0
  C  C84  1  0.28769219  0.15391844  0.56902731  1.0
  C  C85  1  0.47761955  0.66823544  0.23124339  1.0
  C  C86  1  0.52236430  0.33177309  0.76876635  1.0
  C  C87  1  0.10937908  0.85399402  0.57810700  1.0
  C  C88  1  0.89059928  0.14600574  0.42188862  1.0
  C  C89  1  0.13142123  0.84779462  0.44658730  1.0
  C  C90  1  0.86854533  0.15220000  0.55340372  1.0
  C  C91  1  0.02673713  0.76631499  0.39605473  1.0
  C  C92  1  0.97324245  0.23367675  0.60392565  1.0
  C  C93  1  0.02578584  0.71270160  0.31668058  1.0
  C  C94  1  0.97421184  0.28730001  0.68329987  1.0
  C  C95  1  0.12814453  0.73909964  0.28671538  1.0
  C  C96  1  0.87186533  0.26091685  0.71327951  1.0
  C  C97  1  0.23092596  0.82234536  0.33757878  1.0
  C  C98  1  0.76907399  0.17767239  0.66242783  1.0
  C  C99  1  0.23276169  0.87629804  0.41666519  1.0
  C  C100  1  0.76721613  0.12370606  0.58333980  1.0
  C  C101  1  0.13700490  0.68352250  0.20476137  1.0
  C  C102  1  0.86302342  0.31650769  0.79523466  1.0
  C  C103  1  0.10745628  0.01997970  0.68298659  1.0
  C  C104  1  0.89253020  0.98001980  0.31701391  1.0
  C  C105  1  0.09791280  0.15177047  0.80265071  1.0
  C  C106  1  0.90207288  0.84823461  0.19734564  1.0
  C  C107  1  0.03387437  0.17914657  0.86244910  1.0
  C  C108  1  0.96611984  0.82086214  0.13755158  1.0
  C  C109  1  0.08205596  0.27224902  0.92659381  1.0
  C  C110  1  0.91795414  0.72775783  0.07341070  1.0
  C  C111  1  0.19506003  0.33918560  0.93248478  1.0
  C  C112  1  0.80495358  0.66081513  0.06751635  1.0
  C  C113  1  0.26083281  0.30936891  0.87415632  1.0
  C  C114  1  0.73916764  0.69063068  0.12583722  1.0
  C  C115  1  0.21246251  0.21632707  0.80887838  1.0
  C  C116  1  0.78752136  0.78367512  0.19111254  1.0
  C  C117  1  0.24453113  0.44030127  0.99816891  1.0
  C  C118  1  0.75549592  0.55969847  0.00183429  1.0
  O  O119  1  0.13220149  0.86025362  0.74097159  1.0
  O  O120  1  0.86779458  0.13973588  0.25902365  1.0
  O  O121  1  0.05889215  0.59759529  0.95708762  1.0
  O  O122  1  0.94113707  0.40242250  0.04293119  1.0
  O  O123  1  0.27039983  0.67680829  0.01578719  1.0
  O  O124  1  0.72964414  0.32317249  0.98419774  1.0
  O  O125  1  0.83355213  0.80269865  0.53920873  1.0
  O  O126  1  0.16643577  0.19729447  0.46079688  1.0
  O  O127  1  0.39517006  0.58248370  0.20407903  1.0
  O  O128  1  0.60479494  0.41753438  0.79592964  1.0
  O  O129  1  0.48105749  0.72407998  0.18799533  1.0
  O  O130  1  0.51894489  0.27592606  0.81201290  1.0
  O  O131  1  0.13828997  0.90626399  0.52485335  1.0
  O  O132  1  0.86165699  0.09373250  0.47513500  1.0
  O  O133  1  0.22512665  0.71251079  0.17910027  1.0
  O  O134  1  0.77487741  0.28754787  0.82088742  1.0
  O  O135  1  0.04849002  0.59637960  0.15600118  1.0
  O  O136  1  0.95157119  0.40363082  0.84399561  1.0
  O  O137  1  0.03991284  0.06046774  0.74013899  1.0
  O  O138  1  0.96006915  0.93953736  0.25985798  1.0
  O  O139  1  0.16793541  0.48650368  0.03494615  1.0
  O  O140  1  0.83209639  0.51350456  0.96505609  1.0
  O  O141  1  0.35978397  0.48822019  0.02221631  1.0
  O  O142  1  0.64024590  0.51177169  0.97778903  1.0
