# generated using pymatgen
data_Zn4H22C47O19
_symmetry_space_group_name_H-M   'P 1'
_cell_length_a   15.09596342
_cell_length_b   15.15355807
_cell_length_c   17.91289182
_cell_angle_alpha   81.85109481
_cell_angle_beta   80.79074203
_cell_angle_gamma   89.46816195
_symmetry_Int_Tables_number   1
_chemical_formula_structural   Zn4H22C47O19
_chemical_formula_sum   'Zn4 H22 C47 O19'
_cell_volume   4003.67380247
_cell_formula_units_Z   1
loop_
 _symmetry_equiv_pos_site_id
 _symmetry_equiv_pos_as_xyz
  1  'x, y, z'
loop_
 _atom_site_type_symbol
 _atom_site_label
 _atom_site_symmetry_multiplicity
 _atom_site_fract_x
 _atom_site_fract_y
 _atom_site_fract_z
 _atom_site_occupancy
  Zn  Zn0  1  0.44104426  0.44348232  0.42815688  1.0
  Zn  Zn1  1  0.55518856  0.40932448  0.56546043  1.0
  Zn  Zn2  1  0.40888405  0.56126235  0.56810865  1.0
  Zn  Zn3  1  0.58783046  0.58647126  0.44223652  1.0
  H  H4  1  0.28980621  0.31013489  0.93891207  1.0
  H  H5  1  0.86765184  0.56959393  0.41033847  1.0
  H  H6  1  0.80913852  0.41054534  0.63137704  1.0
  H  H7  1  0.02638660  0.60798350  0.35212445  1.0
  H  H8  1  0.97193470  0.40866440  0.64278357  1.0
  H  H9  1  0.12922710  0.45492559  0.58789176  1.0
  H  H10  1  0.50940219  0.18979971  0.35971626  1.0
  H  H11  1  0.52209293  0.02841660  0.34605225  1.0
  H  H12  1  0.48476475  0.80349479  0.64870175  1.0
  H  H13  1  0.52688439  0.87240965  0.40423829  1.0
  H  H14  1  0.32435662  0.33295432  0.79691589  1.0
  H  H15  1  0.32003171  0.34226150  0.06238824  1.0
  H  H16  1  0.77214615  0.61371634  0.06938646  1.0
  H  H17  1  0.47783181  0.48057028  0.19567066  1.0
  H  H18  1  0.64178035  0.51508921  0.86781809  1.0
  H  H19  1  0.40966786  0.41519789  0.13880048  1.0
  H  H20  1  0.77412511  0.56348997  0.86490882  1.0
  H  H21  1  0.17623765  0.63909055  0.30998317  1.0
  H  H22  1  0.47872480  0.08488359  0.65736411  1.0
  H  H23  1  0.48157977  0.91855703  0.71718116  1.0
  H  H24  1  0.53966168  0.60991100  0.83157511  1.0
  H  H25  1  0.74855088  0.57665128  0.27731820  1.0
  C  C26  1  0.73250867  0.49396862  0.51458297  1.0
  C  C27  1  0.68219683  0.58066890  0.17476302  1.0
  C  C28  1  0.54216484  0.50841045  0.16601890  1.0
  C  C29  1  0.56601024  0.51146915  0.08636411  1.0
  C  C30  1  0.65107103  0.55054116  0.05059148  1.0
  C  C31  1  0.50656595  0.47566067  0.04166489  1.0
  C  C32  1  0.52967867  0.48664873  0.96069311  1.0
  C  C33  1  0.61749871  0.51908891  0.92803907  1.0
  C  C34  1  0.67748844  0.54930194  0.96972261  1.0
  C  C35  1  0.42774239  0.42553258  0.07688202  1.0
  C  C36  1  0.37691581  0.38509703  0.03427300  1.0
  C  C37  1  0.26620099  0.52090064  0.48216153  1.0
  C  C38  1  0.39587752  0.39831084  0.95294506  1.0
  C  C39  1  0.46842595  0.45614088  0.91514478  1.0
  C  C40  1  0.34425060  0.35515087  0.90917577  1.0
  C  C41  1  0.36256556  0.36854140  0.83031194  1.0
  C  C42  1  0.47808731  0.47883837  0.83396085  1.0
  C  C43  1  0.82992606  0.49128684  0.52005049  1.0
  C  C44  1  0.16849664  0.52663907  0.47591478  1.0
  C  C45  1  0.04905700  0.57318261  0.40330590  1.0
  C  C46  1  0.13939253  0.57001366  0.40836866  1.0
  C  C47  1  0.10621854  0.48723271  0.53611563  1.0
  C  C48  1  0.49856195  0.26567897  0.48619103  1.0
  C  C49  1  0.01349206  0.48673454  0.53180600  1.0
  C  C50  1  0.98436855  0.53179942  0.46409288  1.0
  C  C51  1  0.89141950  0.53411018  0.46053214  1.0
  C  C52  1  0.85909989  0.44447832  0.58603897  1.0
  C  C53  1  0.94888830  0.44335303  0.59185434  1.0
  C  C54  1  0.49994969  0.16822820  0.48209641  1.0
  C  C55  1  0.50614620  0.82931896  0.52496929  1.0
  C  C56  1  0.49204389  0.94401797  0.60660578  1.0
  C  C57  1  0.49294241  0.85494553  0.59874831  1.0
  C  C58  1  0.51643307  0.89302354  0.46083219  1.0
  C  C59  1  0.50519913  0.73269233  0.51729917  1.0
  C  C60  1  0.51047947  0.98489972  0.46776191  1.0
  C  C61  1  0.49905039  0.01250317  0.54232068  1.0
  C  C62  1  0.49459823  0.10586690  0.54831357  1.0
  C  C63  1  0.50770141  0.13920324  0.40970147  1.0
  C  C64  1  0.51434804  0.05025215  0.40216798  1.0
  C  C65  1  0.44135852  0.44914199  0.70647475  1.0
  C  C66  1  0.56379676  0.53671515  0.29392166  1.0
  C  C67  1  0.59787369  0.54155724  0.21019525  1.0
  C  C68  1  0.42800454  0.43205201  0.79247519  1.0
  C  C69  1  0.70696625  0.58494830  0.09611662  1.0
  C  C70  1  0.76761846  0.57411245  0.92619357  1.0
  C  C71  1  0.52784933  0.56009485  0.79385166  1.0
  C  C72  1  0.75003503  0.61143483  0.21822116  1.0
  O  O73  1  0.49719571  0.50070248  0.50080764  1.0
  O  O74  1  0.45167807  0.31329400  0.44248970  1.0
  O  O75  1  0.55631380  0.70825689  0.46015037  1.0
  O  O76  1  0.68103469  0.44029092  0.56374682  1.0
  O  O77  1  0.29054703  0.55654815  0.53606539  1.0
  O  O78  1  0.70804329  0.54950647  0.46115918  1.0
  O  O79  1  0.31474790  0.47871050  0.43453461  1.0
  O  O80  1  0.54595151  0.29393196  0.53087041  1.0
  O  O81  1  0.45229048  0.68298926  0.56859759  1.0
  O  O82  1  0.49864067  0.39948639  0.67367422  1.0
  O  O83  1  0.59877650  0.59033304  0.33011469  1.0
  O  O84  1  0.39039295  0.50580313  0.67614375  1.0
  O  O85  1  0.50161424  0.47955509  0.32198461  1.0
  O  O86  1  0.83161609  0.60272960  0.95028596  1.0
  O  O87  1  0.20465277  0.60940852  0.35168704  1.0
  O  O88  1  0.48144778  0.13622255  0.61674512  1.0
  O  O89  1  0.48368127  0.97067458  0.67833689  1.0
  O  O90  1  0.55021075  0.57729346  0.72436705  1.0
  O  O91  1  0.80668962  0.66916422  0.19034026  1.0
