# generated using pymatgen
data_Al6H77C96S3N15O37
_symmetry_space_group_name_H-M   'P 1'
_cell_length_a   13.38549934
_cell_length_b   13.44077215
_cell_length_c   27.34433331
_cell_angle_alpha   88.30235918
_cell_angle_beta   87.48697596
_cell_angle_gamma   61.40808508
_symmetry_Int_Tables_number   1
_chemical_formula_structural   Al6H77C96S3N15O37
_chemical_formula_sum   'Al6 H77 C96 S3 N15 O37'
_cell_volume   4315.25726508
_cell_formula_units_Z   1
loop_
 _symmetry_equiv_pos_site_id
 _symmetry_equiv_pos_as_xyz
  1  'x, y, z'
loop_
 _atom_site_type_symbol
 _atom_site_label
 _atom_site_symmetry_multiplicity
 _atom_site_fract_x
 _atom_site_fract_y
 _atom_site_fract_z
 _atom_site_occupancy
  Al  Al0  1  0.14754366  0.41135776  0.50135681  1.0
  Al  Al1  1  0.38946015  0.18430808  0.50408355  1.0
  Al  Al2  1  0.39008923  0.40706042  0.49757673  1.0
  Al  Al3  1  0.16212661  0.92188295  0.01343185  1.0
  Al  Al4  1  0.92969771  0.15385260  0.01673757  1.0
  Al  Al5  1  0.91917797  0.93744153  0.01297197  1.0
  H  H6  1  0.51941494  0.31777789  0.82399183  1.0
  H  H7  1  0.83080258  0.03606480  0.77247547  1.0
  H  H8  1  0.21021710  0.80684159  0.78300461  1.0
  H  H9  1  0.98731997  0.29321693  0.81062418  1.0
  H  H10  1  0.79571349  0.25473061  0.14488229  1.0
  H  H11  1  0.93143473  0.79032360  0.14586235  1.0
  H  H12  1  0.23554399  0.94990274  0.14898575  1.0
  H  H13  1  0.64298313  0.32213876  0.38530640  1.0
  H  H14  1  0.03404401  0.61275275  0.38138517  1.0
  H  H15  1  0.33516663  0.01502966  0.38311911  1.0
  H  H16  1  0.78883658  0.34155567  0.22416325  1.0
  H  H17  1  0.13067997  0.53474869  0.81128979  1.0
  H  H18  1  0.85987476  0.76407106  0.22781602  1.0
  H  H19  1  0.33625349  0.86611772  0.22572825  1.0
  H  H20  1  0.73425525  0.36553111  0.31243544  1.0
  H  H21  1  0.89695612  0.70012299  0.31425006  1.0
  H  H22  1  0.37265897  0.88957925  0.31159624  1.0
  H  H23  1  0.56814250  0.97921400  0.20778116  1.0
  H  H24  1  0.42228642  0.61446143  0.19081515  1.0
  H  H25  1  0.97495045  0.43587381  0.20985231  1.0
  H  H26  1  0.51631064  0.00268160  0.29432376  1.0
  H  H27  1  0.45672908  0.55162734  0.27540336  1.0
  H  H28  1  0.35113460  0.09778752  0.80721369  1.0
  H  H29  1  0.01107046  0.45669350  0.29409271  1.0
  H  H30  1  0.42587067  0.30913065  0.75507383  1.0
  H  H31  1  0.21627706  0.45243749  0.73615165  1.0
  H  H32  1  0.35872298  0.13630194  0.72350235  1.0
  H  H33  1  0.51661576  0.08319117  0.37545636  1.0
  H  H34  1  0.38564155  0.52673208  0.35785141  1.0
  H  H35  1  0.09597828  0.37033877  0.37388134  1.0
  H  H36  1  0.80730220  0.19811504  0.75569648  1.0
  H  H37  1  0.02733071  0.83737105  0.76504423  1.0
  H  H38  1  0.06863116  0.10194488  0.80108059  1.0
  H  H39  1  0.49142294  0.15890954  0.75714723  1.0
  H  H40  1  0.76326005  0.08741749  0.69762161  1.0
  H  H41  1  0.20228562  0.77423282  0.70404422  1.0
  H  H42  1  0.99817009  0.26288969  0.73212453  1.0
  H  H43  1  0.71218001  0.97355579  0.09500891  1.0
  H  H44  1  0.64590081  0.94223333  0.14513663  1.0
  H  H45  1  0.28847213  0.74525565  0.08201333  1.0
  H  H46  1  0.37840713  0.68607314  0.13090578  1.0
  H  H47  1  0.96701166  0.31277205  0.09882295  1.0
  H  H48  1  0.95365960  0.40528823  0.14536741  1.0
  H  H49  1  0.88826389  0.26189414  0.68581810  1.0
  H  H50  1  0.33273448  0.47727157  0.74315217  1.0
  H  H51  1  0.95688672  0.64420886  0.68935210  1.0
  H  H52  1  0.09929850  0.90343605  0.66235255  1.0
  H  H53  1  0.49414984  0.45795020  0.71374955  1.0
  H  H54  1  0.57664178  0.46511358  0.75394173  1.0
  H  H55  1  0.04873322  0.53503162  0.72389657  1.0
  H  H56  1  0.94774504  0.65838581  0.75409386  1.0
  H  H57  1  0.31643363  0.97247897  0.69219296  1.0
  H  H58  1  0.30568424  0.90667313  0.74354134  1.0
  H  H59  1  0.76251174  0.38474942  0.77731706  1.0
  H  H60  1  0.66759015  0.39002708  0.82007744  1.0
  H  H61  1  0.26558659  0.28262658  0.73122618  1.0
  H  H62  1  0.95188934  0.73622786  0.83224768  1.0
  H  H63  1  0.86714035  0.82990165  0.79182251  1.0
  H  H64  1  0.19265447  0.97068340  0.85345510  1.0
  H  H65  1  0.30775930  0.95562044  0.82279459  1.0
  H  H66  1  0.72175666  0.94056128  0.70034906  1.0
  H  H67  1  0.61049727  0.04455167  0.67572492  1.0
  H  H68  1  0.41478637  0.66666667  0.71989930  1.0
  H  H69  1  0.37325411  0.64660533  0.66633274  1.0
  H  H70  1  0.95259064  0.42812238  0.70246542  1.0
  H  H71  1  0.07969307  0.37215827  0.67858849  1.0
  H  H72  1  0.53541527  0.18119774  0.83666943  1.0
  H  H73  1  0.70706840  0.98878213  0.83607822  1.0
  H  H74  1  0.65188983  0.97613756  0.78400869  1.0
  H  H75  1  0.34543493  0.68204561  0.83626009  1.0
  H  H76  1  0.39127129  0.57333230  0.79848449  1.0
  H  H77  1  0.00200032  0.46584113  0.79728768  1.0
  H  H78  1  0.06028318  0.40037520  0.84821197  1.0
  H  H79  1  0.26587540  0.51352618  0.82508701  1.0
  H  H80  1  0.29204795  0.24581554  0.81515720  1.0
  H  H81  1  0.95822976  0.52801295  0.52877754  1.0
  H  H82  1  0.35894395  0.86370058  0.00120536  1.0
  C  C83  1  0.22846506  0.53257249  0.56652325  1.0
  C  C84  1  0.73050805  0.16122561  0.85348110  1.0
  C  C85  1  0.12713341  0.72490427  0.85201231  1.0
  C  C86  1  0.15683728  0.18233013  0.86765631  1.0
  C  C87  1  0.54755209  0.23611420  0.66978821  1.0
  C  C88  1  0.21515256  0.58314233  0.66012840  1.0
  C  C89  1  0.19181643  0.18562047  0.66733940  1.0
  C  C90  1  0.52166920  0.24074878  0.62730335  1.0
  C  C91  1  0.22293387  0.56350381  0.61672182  1.0
  C  C92  1  0.20634657  0.18944504  0.62336563  1.0
  C  C93  1  0.09257695  0.09864117  0.08978502  1.0
  C  C94  1  0.22349681  0.21507563  0.57336398  1.0
  C  C95  1  0.78442164  0.11601015  0.08272633  1.0
  C  C96  1  0.07265190  0.79862308  0.07854580  1.0
  C  C97  1  0.10364730  0.13789944  0.95556654  1.0
  C  C98  1  0.80199775  0.11273222  0.94432964  1.0
  C  C99  1  0.08540445  0.81694451  0.94008939  1.0
  C  C100  1  0.62898465  0.26388860  0.36327997  1.0
  C  C101  1  0.10148962  0.60979998  0.35657687  1.0
  C  C102  1  0.27622737  0.08703928  0.36132804  1.0
  C  C103  1  0.66131860  0.25111129  0.31344408  1.0
  C  C104  1  0.07817490  0.64788996  0.30808611  1.0
  C  C105  1  0.49460165  0.24959459  0.57639599  1.0
  C  C106  1  0.25909512  0.07181129  0.31251642  1.0
  C  C107  1  0.72387175  0.22417002  0.21174609  1.0
  C  C108  1  0.03522383  0.72122505  0.20878447  1.0
  C  C109  1  0.21840512  0.04471232  0.21383507  1.0
  C  C110  1  0.23458843  0.52086527  0.42508393  1.0
  C  C111  1  0.23503497  0.21383604  0.43395307  1.0
  C  C112  1  0.53484360  0.22430492  0.43709656  1.0
  C  C113  1  0.74585282  0.29741018  0.24145054  1.0
  C  C114  1  0.94568821  0.72834397  0.24171826  1.0
  C  C115  1  0.29550848  0.94979981  0.24246185  1.0
  C  C116  1  0.73873297  0.06617561  0.77559845  1.0
  C  C117  1  0.71581273  0.31068723  0.29010265  1.0
  C  C118  1  0.96582337  0.69335914  0.28931984  1.0
  C  C119  1  0.31537119  0.96256096  0.28978292  1.0
  C  C120  1  0.75431964  0.20916724  0.16207946  1.0
  C  C121  1  0.01659659  0.75624495  0.16010028  1.0
  C  C122  1  0.19415491  0.03299569  0.16607224  1.0
  C  C123  1  0.73818886  0.13305708  0.13330617  1.0
  C  C124  1  0.10321444  0.75273826  0.12804678  1.0
  C  C125  1  0.11472499  0.12483792  0.13872111  1.0
  C  C126  1  0.55803341  0.12838999  0.35790010  1.0
  C  C127  1  0.24325416  0.71531633  0.77794473  1.0
  C  C128  1  0.30047233  0.56102458  0.34363619  1.0
  C  C129  1  0.14094223  0.28827055  0.35601392  1.0
  C  C130  1  0.58605449  0.11583536  0.30746991  1.0
  C  C131  1  0.28110570  0.59646203  0.29448567  1.0
  C  C132  1  0.12464827  0.27745558  0.30660629  1.0
  C  C133  1  0.63921011  0.17656373  0.28476553  1.0
  C  C134  1  0.16917666  0.64070606  0.27615014  1.0
  C  C135  1  0.18236108  0.16823905  0.28453718  1.0
  C  C136  1  0.56149857  0.04510654  0.27766334  1.0
  C  C137  1  0.37068278  0.58845418  0.26177742  1.0
  C  C138  1  0.06443565  0.29506078  0.79544666  1.0
  C  C139  1  0.05125159  0.37288969  0.27763260  1.0
  C  C140  1  0.59174621  0.03203903  0.22887549  1.0
  C  C141  1  0.34989877  0.62453068  0.21416462  1.0
  C  C142  1  0.03189963  0.35990538  0.23017605  1.0
  C  C143  1  0.64912354  0.08807490  0.20550098  1.0
  C  C144  1  0.23853704  0.67117755  0.19488191  1.0
  C  C145  1  0.08413114  0.25096031  0.20763571  1.0
  C  C146  1  0.50642821  0.23179820  0.75997628  1.0
  C  C147  1  0.23972848  0.51656801  0.74667774  1.0
  C  C148  1  0.27864952  0.19773476  0.74121582  1.0
  C  C149  1  0.69327926  0.09403504  0.72207285  1.0
  C  C150  1  0.67022875  0.16288775  0.23384544  1.0
  C  C151  1  0.14826995  0.67740939  0.22638311  1.0
  C  C152  1  0.16193080  0.15524659  0.23507945  1.0
  C  C153  1  0.68674311  0.06963261  0.15505310  1.0
  C  C154  1  0.21645355  0.71200924  0.14512817  1.0
  C  C155  1  0.05798553  0.23570181  0.15915698  1.0
  C  C156  1  0.57871813  0.20231727  0.38546726  1.0
  C  C157  1  0.21160492  0.56700297  0.37420795  1.0
  C  C158  1  0.21629532  0.19400225  0.38286439  1.0
  C  C159  1  0.63769325  0.30582528  0.72914000  1.0
  C  C160  1  0.25162462  0.69221841  0.72199191  1.0
  C  C161  1  0.06364282  0.69147709  0.72061903  1.0
  C  C162  1  0.18729287  0.07230213  0.73951314  1.0
  C  C163  1  0.72317830  0.25629271  0.77182650  1.0
  C  C164  1  0.04112706  0.75068262  0.77168570  1.0
  C  C165  1  0.15824662  0.08120559  0.79545691  1.0
  C  C166  1  0.75754468  0.14198099  0.89613386  1.0
  C  C167  1  0.10768491  0.76097500  0.89358734  1.0
  C  C168  1  0.13952025  0.17208254  0.91102834  1.0
  C  C169  1  0.59398395  0.21918083  0.71844719  1.0
  C  C170  1  0.19324644  0.61874978  0.71070107  1.0
  C  C171  1  0.06392345  0.28633931  0.73877093  1.0
  C  C172  1  0.17893715  0.18601733  0.72009922  1.0
  C  C173  1  0.55563061  0.23157949  0.80965349  1.0
  C  C174  1  0.19697268  0.55672303  0.79928158  1.0
  C  C175  1  0.28059493  0.18059797  0.79691981  1.0
  C  C176  1  0.68721246  0.18014127  0.80439670  1.0
  C  C177  1  0.15128815  0.68602380  0.80184599  1.0
  C  C178  1  0.16754277  0.18629381  0.81509750  1.0
  S  S179  1  0.71314966  0.32505038  0.67061774  1.0
  S  S180  1  0.98471118  0.80145665  0.67125835  1.0
  S  S181  1  0.06845658  0.05123488  0.70872453  1.0
  N  N182  1  0.67190652  0.99421431  0.12842331  1.0
  N  N183  1  0.65146329  0.01643017  0.70799100  1.0
  N  N184  1  0.36919963  0.63521217  0.70327061  1.0
  N  N185  1  0.03605274  0.39302293  0.71180952  1.0
  N  N186  1  0.72011864  0.97701106  0.79915025  1.0
  N  N187  1  0.35386297  0.65965469  0.80036433  1.0
  N  N188  1  0.06976819  0.39555807  0.81086267  1.0
  N  N189  1  0.30175413  0.71110045  0.11651515  1.0
  N  N190  1  0.97761543  0.32590807  0.13415692  1.0
  N  N191  1  0.54563877  0.41412288  0.74217285  1.0
  N  N192  1  0.00220057  0.62349317  0.72152387  1.0
  N  N193  1  0.29687753  0.98086778  0.72881384  1.0
  N  N194  1  0.73865711  0.33753582  0.79994652  1.0
  N  N195  1  0.94025824  0.75204708  0.79558017  1.0
  N  N196  1  0.22542470  0.97272871  0.81930145  1.0
  O  O197  1  0.15367560  0.31243353  0.55841364  1.0
  O  O198  1  0.15934112  0.30239965  0.45448505  1.0
  O  O199  1  0.51179608  0.15198241  0.45925872  1.0
  O  O200  1  0.33137702  0.49856143  0.44250346  1.0
  O  O201  1  0.15968841  0.50304976  0.44717855  1.0
  O  O202  1  0.32986865  0.14190225  0.45296353  1.0
  O  O203  1  0.51538725  0.31852928  0.45581751  1.0
  O  O204  1  0.31100809  0.33321735  0.50130076  1.0
  O  O205  1  0.14734332  0.80492089  0.04996059  1.0
  O  O206  1  0.01071410  0.17832526  0.06497923  1.0
  O  O207  1  0.79666669  0.02992816  0.05797788  1.0
  O  O208  1  0.48212445  0.16932170  0.55840592  1.0
  O  O209  1  0.15315857  0.99896000  0.07384088  1.0
  O  O210  1  0.81636467  0.18650318  0.06470437  1.0
  O  O211  1  0.96851775  0.83517557  0.06491890  1.0
  O  O212  1  0.00222533  0.00605283  0.01326403  1.0
  O  O213  1  0.17159305  0.04268894  0.97382922  1.0
  O  O214  1  0.82324796  0.18283484  0.96632326  1.0
  O  O215  1  0.99975267  0.82411563  0.96635845  1.0
  O  O216  1  0.76305405  0.22491264  0.64070671  1.0
  O  O217  1  0.63628883  0.43457962  0.65060525  1.0
  O  O218  1  0.81708516  0.33751418  0.69232274  1.0
  O  O219  1  0.31149527  0.52859406  0.53925865  1.0
  O  O220  1  0.89674427  0.89506165  0.69903775  1.0
  O  O221  1  0.06741823  0.83034239  0.64499592  1.0
  O  O222  1  0.94538489  0.74227491  0.63979879  1.0
  O  O223  1  0.00589909  0.02366237  0.74684849  1.0
  O  O224  1  0.99930638  0.14719055  0.67658884  1.0
  O  O225  1  0.14293230  0.94879555  0.67598355  1.0
  O  O226  1  0.15075522  0.85644940  0.95041989  1.0
  O  O227  1  0.00097283  0.20513404  0.97088158  1.0
  O  O228  1  0.82061233  0.01524557  0.96134226  1.0
  O  O229  1  0.15384318  0.50777628  0.55361632  1.0
  O  O230  1  0.31131761  0.13953243  0.54964572  1.0
  O  O231  1  0.48209409  0.33852258  0.55331539  1.0
  O  O232  1  0.99860083  0.48111131  0.50096941  1.0
  O  O233  1  0.31118949  0.83405067  0.01553228  1.0
