# generated using pymatgen
data_Cu2H26C23(NO4)2
_symmetry_space_group_name_H-M   'P 1'
_cell_length_a   8.63111011
_cell_length_b   12.98569944
_cell_length_c   27.82590880
_cell_angle_alpha   89.97871688
_cell_angle_beta   90.01497999
_cell_angle_gamma   89.99877691
_symmetry_Int_Tables_number   1
_chemical_formula_structural   Cu2H26C23(NO4)2
_chemical_formula_sum   'Cu8 H104 C92 N8 O32'
_cell_volume   3118.75540965
_cell_formula_units_Z   4
loop_
 _symmetry_equiv_pos_site_id
 _symmetry_equiv_pos_as_xyz
  1  'x, y, z'
loop_
 _atom_site_type_symbol
 _atom_site_label
 _atom_site_symmetry_multiplicity
 _atom_site_fract_x
 _atom_site_fract_y
 _atom_site_fract_z
 _atom_site_occupancy
  Cu  Cu0  1  0.94790755  0.04684706  0.46180980  1.0
  Cu  Cu1  1  0.94849836  0.45346480  0.03785965  1.0
  Cu  Cu2  1  0.55147661  0.95349377  0.96214120  1.0
  Cu  Cu3  1  0.55160894  0.54653284  0.53781110  1.0
  Cu  Cu4  1  0.05207519  0.95317860  0.53817061  1.0
  Cu  Cu5  1  0.05151219  0.54654853  0.96213622  1.0
  Cu  Cu6  1  0.44850846  0.04650185  0.03785682  1.0
  Cu  Cu7  1  0.44838770  0.45342737  0.46216214  1.0
  H  H8  1  0.12409112  0.26614980  0.59869312  1.0
  H  H9  1  0.12445809  0.23389760  0.90129845  1.0
  H  H10  1  0.37542964  0.73375796  0.09867836  1.0
  H  H11  1  0.37508294  0.76621693  0.40132047  1.0
  H  H12  1  0.87589974  0.73383427  0.40130706  1.0
  H  H13  1  0.87553856  0.76610726  0.09870066  1.0
  H  H14  1  0.62457512  0.26625076  0.90132182  1.0
  H  H15  1  0.62495542  0.23378407  0.59869373  1.0
  H  H16  1  0.22501643  0.29370172  0.54475261  1.0
  H  H17  1  0.22489164  0.20661078  0.95538286  1.0
  H  H18  1  0.27508858  0.70655561  0.04458178  1.0
  H  H19  1  0.27523887  0.79352220  0.45543668  1.0
  H  H20  1  0.77498485  0.70630314  0.45524721  1.0
  H  H21  1  0.77509690  0.79338870  0.04461230  1.0
  H  H22  1  0.72491850  0.29344078  0.95542021  1.0
  H  H23  1  0.72477516  0.20646649  0.54454985  1.0
  H  H24  1  0.89174797  0.36214522  0.56753029  1.0
  H  H25  1  0.89169536  0.13809642  0.93249517  1.0
  H  H26  1  0.60827338  0.63803975  0.06749628  1.0
  H  H27  1  0.60817573  0.86184289  0.43235630  1.0
  H  H28  1  0.10829502  0.63785425  0.43246019  1.0
  H  H29  1  0.10830129  0.86190382  0.06749388  1.0
  H  H30  1  0.39173022  0.36196896  0.93250714  1.0
  H  H31  1  0.39182208  0.13817121  0.56764712  1.0
  H  H32  1  0.98128453  0.37360907  0.51086160  1.0
  H  H33  1  0.98134549  0.12658368  0.98917895  1.0
  H  H34  1  0.51861439  0.62656105  0.01080586  1.0
  H  H35  1  0.51899563  0.87340897  0.48907979  1.0
  H  H36  1  0.01871096  0.62636730  0.48913032  1.0
  H  H37  1  0.01863378  0.87342273  0.01081225  1.0
  H  H38  1  0.48139733  0.37344612  0.98919361  1.0
  H  H39  1  0.48096279  0.12657895  0.51092004  1.0
  H  H40  1  0.99954904  0.53647839  0.55651576  1.0
  H  H41  1  0.99934137  0.96373267  0.94352745  1.0
  H  H42  1  0.50059270  0.46367378  0.05649931  1.0
  H  H43  1  0.50043154  0.03635324  0.44379263  1.0
  H  H44  1  0.00044760  0.46352494  0.44346537  1.0
  H  H45  1  0.00065528  0.03626758  0.05646339  1.0
  H  H46  1  0.49942365  0.53632954  0.94350411  1.0
  H  H47  1  0.49956511  0.96365162  0.55621618  1.0
  H  H48  1  0.09560817  0.47493954  0.60478262  1.0
  H  H49  1  0.09523354  0.02513361  0.89526450  1.0
  H  H50  1  0.40466159  0.52507733  0.10474518  1.0
  H  H51  1  0.40571580  0.97522680  0.39518450  1.0
  H  H52  1  0.90439660  0.52507301  0.39523769  1.0
  H  H53  1  0.90477817  0.97487279  0.10473174  1.0
  H  H54  1  0.59534318  0.47492984  0.89525967  1.0
  H  H55  1  0.59432488  0.02477884  0.60480849  1.0
  H  H56  1  0.79463958  0.25409082  0.43431241  1.0
  H  H57  1  0.79458014  0.24569758  0.06593379  1.0
  H  H58  1  0.70533152  0.74570075  0.93411523  1.0
  H  H59  1  0.70542361  0.75423148  0.56583289  1.0
  H  H60  1  0.20537214  0.74591481  0.56568741  1.0
  H  H61  1  0.20544432  0.75429803  0.93407287  1.0
  H  H62  1  0.29466629  0.25429410  0.06588639  1.0
  H  H63  1  0.29456725  0.24575952  0.43416549  1.0
  H  H64  1  0.60445104  0.31991654  0.37498243  1.0
  H  H65  1  0.60437263  0.17993437  0.12523161  1.0
  H  H66  1  0.89555179  0.68001090  0.87481691  1.0
  H  H67  1  0.89556810  0.82000052  0.62515293  1.0
  H  H68  1  0.39554561  0.68009294  0.62502099  1.0
  H  H69  1  0.39564140  0.82005971  0.87477145  1.0
  H  H70  1  0.10444718  0.31998164  0.12518399  1.0
  H  H71  1  0.10443435  0.17998509  0.37484510  1.0
  H  H72  1  0.64007282  0.02690702  0.30173792  1.0
  H  H73  1  0.63959801  0.47296582  0.19837439  1.0
  H  H74  1  0.86051299  0.97315044  0.80165256  1.0
  H  H75  1  0.86050470  0.52688837  0.69836910  1.0
  H  H76  1  0.35993195  0.97309245  0.69826550  1.0
  H  H77  1  0.36039169  0.52702903  0.80162975  1.0
  H  H78  1  0.13948482  0.02683979  0.19834871  1.0
  H  H79  1  0.13946763  0.47311958  0.30163432  1.0
  H  H80  1  0.83133300  0.97368522  0.36489542  1.0
  H  H81  1  0.83091175  0.52615825  0.13526290  1.0
  H  H82  1  0.66917799  0.02625796  0.86475329  1.0
  H  H83  1  0.66916268  0.47373319  0.63523996  1.0
  H  H84  1  0.16867293  0.02632349  0.63510764  1.0
  H  H85  1  0.16908491  0.47384507  0.86474052  1.0
  H  H86  1  0.33082330  0.97373689  0.13524510  1.0
  H  H87  1  0.33081427  0.52626628  0.36476490  1.0
  H  H88  1  0.42698193  0.27924482  0.30653542  1.0
  H  H89  1  0.42676573  0.22059990  0.19364785  1.0
  H  H90  1  0.07322446  0.72075591  0.80642935  1.0
  H  H91  1  0.07327963  0.77931067  0.69358017  1.0
  H  H92  1  0.57301820  0.72076312  0.69346872  1.0
  H  H93  1  0.57325178  0.77938648  0.80635485  1.0
  H  H94  1  0.92676756  0.27923278  0.19357084  1.0
  H  H95  1  0.92671238  0.22067571  0.30641966  1.0
  H  H96  1  0.42071069  0.15255340  0.28282722  1.0
  H  H97  1  0.42068631  0.34732991  0.21735375  1.0
  H  H98  1  0.07935268  0.84750400  0.78267637  1.0
  H  H99  1  0.07934105  0.65257328  0.71735915  1.0
  H  H100  1  0.57928365  0.84744299  0.71717835  1.0
  H  H101  1  0.57931151  0.65265185  0.78264751  1.0
  H  H102  1  0.92065092  0.15248623  0.21732453  1.0
  H  H103  1  0.92064401  0.34742465  0.28263995  1.0
  H  H104  1  0.67179842  0.31331958  0.26118600  1.0
  H  H105  1  0.67178541  0.18656669  0.23896373  1.0
  H  H106  1  0.82821642  0.68670861  0.76112246  1.0
  H  H107  1  0.82824987  0.81339069  0.73884018  1.0
  H  H108  1  0.32820055  0.68667758  0.73881598  1.0
  H  H109  1  0.32821936  0.81343124  0.76104257  1.0
  H  H110  1  0.17176981  0.31329471  0.23887772  1.0
  H  H111  1  0.17175373  0.18660724  0.26116109  1.0
  C  C112  1  0.05980474  0.17738016  0.53711820  1.0
  C  C113  1  0.05944698  0.32272668  0.96263890  1.0
  C  C114  1  0.44054768  0.82269365  0.03736064  1.0
  C  C115  1  0.44059699  0.67736127  0.46262079  1.0
  C  C116  1  0.94019887  0.82260390  0.46288558  1.0
  C  C117  1  0.94054388  0.67727510  0.03736308  1.0
  C  C118  1  0.55944781  0.17730505  0.96263955  1.0
  C  C119  1  0.55942515  0.32264744  0.53738048  1.0
  C  C120  1  0.10917481  0.27871761  0.55995487  1.0
  C  C121  1  0.10913265  0.22150246  0.94006062  1.0
  C  C122  1  0.39081809  0.72143821  0.05991797  1.0
  C  C123  1  0.39082026  0.77859271  0.44006055  1.0
  C  C124  1  0.89083807  0.72127801  0.44004459  1.0
  C  C125  1  0.89085705  0.77849778  0.05993776  1.0
  C  C126  1  0.60918668  0.27856511  0.94008258  1.0
  C  C127  1  0.60921694  0.22141139  0.55994180  1.0
  C  C128  1  0.00437342  0.37084608  0.54954484  1.0
  C  C129  1  0.00436424  0.12936840  0.95048561  1.0
  C  C130  1  0.49560134  0.62931419  0.04950316  1.0
  C  C131  1  0.49565312  0.87068076  0.45040434  1.0
  C  C132  1  0.99565452  0.62915801  0.45045103  1.0
  C  C133  1  0.99562314  0.87063185  0.04950810  1.0
  C  C134  1  0.50440922  0.37068990  0.95049738  1.0
  C  C135  1  0.50435627  0.12934028  0.54959621  1.0
  C  C136  1  0.07786847  0.47241090  0.56570164  1.0
  C  C137  1  0.07767419  0.02776951  0.93435016  1.0
  C  C138  1  0.42227067  0.52770645  0.06565511  1.0
  C  C139  1  0.42251946  0.97232484  0.43429502  1.0
  C  C140  1  0.92213630  0.52760627  0.43430825  1.0
  C  C141  1  0.92232826  0.97223535  0.06564464  1.0
  C  C142  1  0.57774105  0.47229302  0.93434759  1.0
  C  C143  1  0.57747488  0.02768464  0.56570336  1.0
  C  C144  1  0.23347281  0.49228139  0.54154846  1.0
  C  C145  1  0.23334845  0.00783006  0.95846121  1.0
  C  C146  1  0.26660406  0.50780054  0.04153853  1.0
  C  C147  1  0.26602220  0.99203645  0.45821905  1.0
  C  C148  1  0.76654239  0.50772732  0.45846035  1.0
  C  C149  1  0.76664820  0.99217250  0.04153646  1.0
  C  C150  1  0.73340187  0.49219893  0.95846597  1.0
  C  C151  1  0.73396982  0.00796995  0.54177861  1.0
  C  C152  1  0.75816760  0.20627432  0.40414141  1.0
  C  C153  1  0.75808003  0.29355846  0.09607958  1.0
  C  C154  1  0.74182067  0.79358752  0.90395792  1.0
  C  C155  1  0.74193087  0.70636735  0.59599780  1.0
  C  C156  1  0.24183832  0.79373671  0.59585734  1.0
  C  C157  1  0.24193053  0.70643870  0.90392456  1.0
  C  C158  1  0.25818757  0.20640656  0.09604406  1.0
  C  C159  1  0.25805883  0.29362674  0.40400059  1.0
  C  C160  1  0.65094057  0.24243193  0.37073453  1.0
  C  C161  1  0.65084333  0.25740838  0.12946527  1.0
  C  C162  1  0.84908993  0.75748273  0.87057776  1.0
  C  C163  1  0.84916589  0.74250773  0.62939879  1.0
  C  C164  1  0.34905261  0.75757524  0.62926817  1.0
  C  C165  1  0.34916375  0.74258801  0.87053599  1.0
  C  C166  1  0.15091252  0.24251289  0.12942423  1.0
  C  C167  1  0.15082381  0.25749021  0.37060140  1.0
  C  C168  1  0.60552349  0.17859174  0.33276570  1.0
  C  C169  1  0.60529644  0.32123530  0.16742111  1.0
  C  C170  1  0.89471219  0.82138092  0.83263388  1.0
  C  C171  1  0.89475670  0.67864821  0.66736249  1.0
  C  C172  1  0.39446390  0.82141389  0.66724023  1.0
  C  C173  1  0.39470600  0.67875647  0.83258339  1.0
  C  C174  1  0.10527983  0.17860931  0.16736415  1.0
  C  C175  1  0.10521446  0.32134818  0.33263697  1.0
  C  C176  1  0.67182163  0.08015471  0.33046464  1.0
  C  C177  1  0.67147139  0.41969614  0.16967573  1.0
  C  C178  1  0.82860558  0.91985211  0.83035504  1.0
  C  C179  1  0.82864857  0.58016246  0.66964214  1.0
  C  C180  1  0.32817966  0.91984553  0.66953662  1.0
  C  C181  1  0.32852526  0.58030718  0.83032589  1.0
  C  C182  1  0.17139107  0.08013966  0.16964479  1.0
  C  C183  1  0.17132723  0.41983701  0.33036092  1.0
  C  C184  1  0.77875826  0.05009872  0.36508029  1.0
  C  C185  1  0.77846785  0.44971380  0.13508125  1.0
  C  C186  1  0.72160111  0.94982198  0.86495116  1.0
  C  C187  1  0.72162032  0.55017548  0.63504211  1.0
  C  C188  1  0.22124766  0.94990846  0.63491846  1.0
  C  C189  1  0.22152648  0.55028721  0.86492468  1.0
  C  C190  1  0.27839555  0.05017441  0.13505046  1.0
  C  C191  1  0.27835664  0.44982322  0.36495916  1.0
  C  C192  1  0.49916642  0.21528915  0.29361561  1.0
  C  C193  1  0.49905049  0.28454079  0.20656447  1.0
  C  C194  1  0.00098378  0.78471419  0.79349915  1.0
  C  C195  1  0.00101399  0.71535948  0.70651176  1.0
  C  C196  1  0.50082328  0.78471032  0.70638997  1.0
  C  C197  1  0.50096006  0.71544790  0.79343967  1.0
  C  C198  1  0.99901519  0.21527296  0.20649996  1.0
  C  C199  1  0.99897571  0.28463461  0.29348771  1.0
  C  C200  1  0.59499589  0.24992475  0.25009191  1.0
  C  C201  1  0.90511260  0.75005609  0.74999303  1.0
  C  C202  1  0.40500656  0.75007164  0.74991439  1.0
  C  C203  1  0.09488289  0.24994107  0.25000608  1.0
  N  N204  1  0.82208922  0.11202052  0.40146290  1.0
  N  N205  1  0.82200754  0.38780066  0.09874093  1.0
  N  N206  1  0.67798714  0.88786116  0.90128494  1.0
  N  N207  1  0.67805430  0.61211223  0.59868650  1.0
  N  N208  1  0.17792249  0.88799127  0.59853512  1.0
  N  N209  1  0.17800417  0.61219881  0.90126393  1.0
  N  N210  1  0.32200952  0.11213446  0.09871632  1.0
  N  N211  1  0.32192382  0.38788108  0.40131296  1.0
  O  O212  1  0.00180236  0.18030048  0.49511052  1.0
  O  O213  1  0.00084137  0.32036382  0.00463819  1.0
  O  O214  1  0.49916265  0.82037597  0.99536104  1.0
  O  O215  1  0.49934888  0.67968749  0.50461079  1.0
  O  O216  1  0.99822441  0.81972671  0.50488571  1.0
  O  O217  1  0.99917730  0.67963873  0.99536524  1.0
  O  O218  1  0.50083401  0.17961811  0.00464023  1.0
  O  O219  1  0.50065705  0.32029427  0.49539155  1.0
  O  O220  1  0.08715743  0.09711944  0.56208859  1.0
  O  O221  1  0.08652302  0.40325500  0.93777058  1.0
  O  O222  1  0.41354758  0.90320248  0.06222833  1.0
  O  O223  1  0.41334104  0.59685047  0.43777571  1.0
  O  O224  1  0.91279056  0.90286386  0.43790261  1.0
  O  O225  1  0.91345857  0.59674447  0.06222853  1.0
  O  O226  1  0.58644444  0.09680623  0.93776970  1.0
  O  O227  1  0.58666256  0.40316903  0.56221477  1.0
  O  O228  1  0.24844982  0.45841721  0.49886300  1.0
  O  O229  1  0.24854064  0.04167167  0.00114494  1.0
  O  O230  1  0.25145817  0.54167727  0.99884930  1.0
  O  O231  1  0.25109734  0.95792589  0.50085110  1.0
  O  O232  1  0.75155147  0.54157610  0.50114186  1.0
  O  O233  1  0.75144790  0.95833858  0.99885309  1.0
  O  O234  1  0.74855586  0.45831296  0.00115160  1.0
  O  O235  1  0.74886107  0.04210670  0.49914656  1.0
  O  O236  1  0.33697886  0.53915955  0.56583851  1.0
  O  O237  1  0.33667874  0.96088289  0.93414292  1.0
  O  O238  1  0.16323225  0.46083138  0.06585319  1.0
  O  O239  1  0.16337086  0.03867046  0.43360278  1.0
  O  O240  1  0.66305139  0.46082914  0.43416132  1.0
  O  O241  1  0.66331676  0.03911967  0.06585798  1.0
  O  O242  1  0.83676093  0.53918426  0.93415022  1.0
  O  O243  1  0.83663505  0.96133055  0.56638159  1.0
