# generated using pymatgen
data_ZnH18C25(N2O3)2
_symmetry_space_group_name_H-M   'P 1'
_cell_length_a   9.55644063
_cell_length_b   10.79587951
_cell_length_c   23.74044900
_cell_angle_alpha   90.32248701
_cell_angle_beta   89.50506490
_cell_angle_gamma   89.80894336
_symmetry_Int_Tables_number   1
_chemical_formula_structural   ZnH18C25(N2O3)2
_chemical_formula_sum   'Zn2 H36 C50 N8 O12'
_cell_volume   2449.16223906
_cell_formula_units_Z   2
loop_
 _symmetry_equiv_pos_site_id
 _symmetry_equiv_pos_as_xyz
  1  'x, y, z'
loop_
 _atom_site_type_symbol
 _atom_site_label
 _atom_site_symmetry_multiplicity
 _atom_site_fract_x
 _atom_site_fract_y
 _atom_site_fract_z
 _atom_site_occupancy
  Zn  Zn0  1  0.64362597  0.49663641  0.50056712  1.0
  Zn  Zn1  1  0.35661651  0.49375353  0.50111388  1.0
  H  H2  1  0.52271241  0.83614202  0.94163197  1.0
  H  H3  1  0.26475445  0.47856369  0.67779343  1.0
  H  H4  1  0.71186319  0.51508103  0.68087137  1.0
  H  H5  1  0.70411392  0.53004288  0.78611704  1.0
  H  H6  1  0.70644194  0.90208490  0.52944788  1.0
  H  H7  1  0.27334681  0.88022322  0.48414889  1.0
  H  H8  1  0.58055483  0.88944081  0.58358226  1.0
  H  H9  1  0.31963393  0.90584305  0.55502567  1.0
  H  H10  1  0.52761952  0.10128116  0.58199510  1.0
  H  H11  1  0.30042252  0.11801957  0.53640898  1.0
  H  H12  1  0.68590594  0.11743323  0.54450406  1.0
  H  H13  1  0.28485290  0.09125539  0.46373386  1.0
  H  H14  1  0.63570946  0.86824716  0.42607780  1.0
  H  H15  1  0.45719337  0.88965040  0.40942522  1.0
  H  H16  1  0.12760566  0.69108137  0.49214739  1.0
  H  H17  1  0.88450364  0.69019146  0.48606217  1.0
  H  H18  1  0.12561613  0.54119186  0.41821124  1.0
  H  H19  1  0.87646793  0.53668015  0.41720122  1.0
  H  H20  1  0.11948745  0.31406533  0.52919649  1.0
  H  H21  1  0.87035394  0.31961392  0.53361144  1.0
  H  H22  1  0.12478194  0.42183948  0.58557627  1.0
  H  H23  1  0.87533505  0.43460237  0.58702291  1.0
  H  H24  1  0.12645453  0.38180633  0.43420653  1.0
  H  H25  1  0.87892802  0.37927581  0.43551946  1.0
  H  H26  1  0.40858554  0.23004717  0.05730067  1.0
  H  H27  1  0.41089588  0.22190687  0.95101548  1.0
  H  H28  1  0.67247984  0.43712545  0.20697182  1.0
  H  H29  1  0.30593493  0.63133108  0.32791479  1.0
  H  H30  1  0.29154113  0.64873863  0.22297412  1.0
  H  H31  1  0.25541675  0.49658771  0.78282183  1.0
  H  H32  1  0.78159570  0.04707934  0.46512127  1.0
  H  H33  1  0.76007196  0.04510139  0.39091001  1.0
  H  H34  1  0.74169797  0.18648683  0.42869739  1.0
  H  H35  1  0.51282809  0.21223563  0.37906405  1.0
  H  H36  1  0.53305338  0.06541272  0.34593336  1.0
  H  H37  1  0.37812476  0.09952788  0.38477447  1.0
  C  C38  1  0.50147532  0.73494279  0.50181356  1.0
  C  C39  1  0.50663872  0.75263885  0.96642411  1.0
  C  C40  1  0.50396955  0.75949073  0.02610367  1.0
  C  C41  1  0.48527975  0.65160050  0.05801699  1.0
  C  C42  1  0.46527145  0.53672466  0.03005343  1.0
  C  C43  1  0.44284664  0.42590111  0.06066210  1.0
  C  C44  1  0.42348060  0.31397456  0.03262117  1.0
  C  C45  1  0.42554270  0.30916947  0.97347576  1.0
  C  C46  1  0.48989327  0.65675475  0.12045228  1.0
  C  C47  1  0.44064783  0.42775756  0.12291607  1.0
  C  C48  1  0.59299289  0.48146949  0.23339974  1.0
  C  C49  1  0.49798959  0.51725846  0.38966336  1.0
  C  C50  1  0.60263401  0.47420663  0.29228852  1.0
  C  C51  1  0.49674065  0.52766411  0.32656171  1.0
  C  C52  1  0.38636790  0.59040456  0.30082799  1.0
  C  C53  1  0.37799901  0.59955534  0.24252246  1.0
  C  C54  1  0.48093122  0.54317733  0.20912895  1.0
  C  C55  1  0.35519334  0.49896670  0.76029040  1.0
  C  C56  1  0.36043282  0.48808050  0.70189929  1.0
  C  C57  1  0.48911690  0.49213891  0.67326439  1.0
  C  C58  1  0.61283646  0.50843126  0.70365631  1.0
  C  C59  1  0.60838278  0.51788379  0.76213799  1.0
  C  C60  1  0.50023479  0.25731182  0.49104645  1.0
  C  C61  1  0.47943872  0.51277484  0.78996198  1.0
  C  C62  1  0.59973104  0.92966572  0.54182185  1.0
  C  C63  1  0.34942140  0.92722689  0.51134943  1.0
  C  C64  1  0.58385452  0.07158628  0.54356263  1.0
  C  C65  1  0.34821186  0.06822495  0.50056311  1.0
  C  C66  1  0.53966438  0.91724416  0.43912107  1.0
  C  C67  1  0.49616223  0.87531337  0.49875500  1.0
  C  C68  1  0.49889338  0.11633075  0.49239024  1.0
  C  C69  1  0.56344864  0.06020803  0.43630773  1.0
  C  C70  1  0.08405036  0.62410902  0.52225985  1.0
  C  C71  1  0.91770169  0.62739038  0.51976842  1.0
  C  C72  1  0.08192341  0.47166218  0.44681220  1.0
  C  C73  1  0.92058120  0.47030756  0.44701337  1.0
  C  C74  1  0.07910195  0.40374286  0.54415192  1.0
  C  C75  1  0.91724432  0.40853275  0.54542905  1.0
  C  C76  1  0.49378554  0.48258692  0.61037253  1.0
  C  C77  1  0.44979241  0.40834350  0.87985571  1.0
  C  C78  1  0.49487580  0.63696612  0.87609614  1.0
  C  C79  1  0.48952252  0.64055931  0.93884718  1.0
  C  C80  1  0.46715966  0.53099955  0.97002200  1.0
  C  C81  1  0.44707128  0.41604945  0.94235367  1.0
  C  C82  1  0.72103209  0.08670083  0.43044444  1.0
  C  C83  1  0.49200754  0.11273325  0.38378721  1.0
  C  C84  1  0.51950062  0.88062414  0.05004186  1.0
  C  C85  1  0.13568231  0.65818827  0.57799238  1.0
  C  C86  1  0.85631755  0.67455857  0.57221754  1.0
  C  C87  1  0.72146002  0.40982865  0.31405754  1.0
  N  N88  1  0.47443894  0.52013260  0.85082614  1.0
  N  N89  1  0.47082458  0.54343132  0.14863091  1.0
  N  N90  1  0.13462179  0.49891273  0.50453279  1.0
  N  N91  1  0.86552861  0.50180786  0.50432371  1.0
  N  N92  1  0.53024170  0.98560760  0.06147323  1.0
  N  N93  1  0.16949235  0.68862602  0.62296931  1.0
  N  N94  1  0.81507744  0.71728890  0.61434696  1.0
  N  N95  1  0.82335334  0.35606908  0.32590573  1.0
  O  O96  1  0.61923889  0.68293422  0.49167421  1.0
  O  O97  1  0.38945962  0.67753139  0.51422167  1.0
  O  O98  1  0.61336149  0.48794746  0.41220563  1.0
  O  O99  1  0.38255754  0.53853798  0.41502677  1.0
  O  O100  1  0.61627672  0.31077232  0.50098559  1.0
  O  O101  1  0.38558942  0.31349298  0.48070022  1.0
  O  O102  1  0.61103081  0.50193182  0.58608087  1.0
  O  O103  1  0.38004434  0.45647488  0.58519328  1.0
  O  O104  1  0.43256800  0.31060736  0.85430616  1.0
  O  O105  1  0.51578117  0.72990624  0.84783309  1.0
  O  O106  1  0.51115540  0.75298777  0.14679081  1.0
  O  O107  1  0.41573799  0.33642308  0.15169165  1.0
