# generated using pymatgen
data_AlHC4O5F2
_symmetry_space_group_name_H-M   'P 1'
_cell_length_a   6.68153478
_cell_length_b   8.84070394
_cell_length_c   8.84050797
_cell_angle_alpha   72.92424294
_cell_angle_beta   75.44104214
_cell_angle_gamma   75.43926784
_symmetry_Int_Tables_number   1
_chemical_formula_structural   AlHC4O5F2
_chemical_formula_sum   'Al2 H2 C8 O10 F4'
_cell_volume   474.17086681
_cell_formula_units_Z   2
loop_
 _symmetry_equiv_pos_site_id
 _symmetry_equiv_pos_as_xyz
  1  'x, y, z'
loop_
 _atom_site_type_symbol
 _atom_site_label
 _atom_site_symmetry_multiplicity
 _atom_site_fract_x
 _atom_site_fract_y
 _atom_site_fract_z
 _atom_site_occupancy
  Al  Al0  1  0.50001820  0.49998657  0.49999483  1.0
  Al  Al1  1  0.00000324  0.49999722  0.49999217  1.0
  H  H2  1  0.74998309  0.33109573  0.66903643  1.0
  H  H3  1  0.24993856  0.66909356  0.33111832  1.0
  C  C4  1  0.16436753  0.48902865  0.78227454  1.0
  C  C5  1  0.33563823  0.21767963  0.51095807  1.0
  C  C6  1  0.83567424  0.51096316  0.21769692  1.0
  C  C7  1  0.66433385  0.78232833  0.48901594  1.0
  C  C8  1  0.59810285  0.95377958  0.50024769  1.0
  C  C9  1  0.40190154  0.04621842  0.49973101  1.0
  C  C10  1  0.09810032  0.50025935  0.95376840  1.0
  C  C11  1  0.90187918  0.49974982  0.04621533  1.0
  O  O12  1  0.35222573  0.50531143  0.71687338  1.0
  O  O13  1  0.14783382  0.28312572  0.49466310  1.0
  O  O14  1  0.97070765  0.53650867  0.28125318  1.0
  O  O15  1  0.52928279  0.71875921  0.46347744  1.0
  O  O16  1  0.64780961  0.49468683  0.28312317  1.0
  O  O17  1  0.85215300  0.71687899  0.50526880  1.0
  O  O18  1  0.02933655  0.46345881  0.71872464  1.0
  O  O19  1  0.47067076  0.28124878  0.53651610  1.0
  O  O20  1  0.74999846  0.42319703  0.57682866  1.0
  O  O21  1  0.25000134  0.57682225  0.42315946  1.0
  F  F22  1  0.75503388  0.01601408  0.51373039  1.0
  F  F23  1  0.24496191  0.98396593  0.48628069  1.0
  F  F24  1  0.25503684  0.51368677  0.01606586  1.0
  F  F25  1  0.74495174  0.48627539  0.98394654  1.0
