# generated using pymatgen
data_ZnH19C19(NO2)2
_symmetry_space_group_name_H-M   'P 1'
_cell_length_a   11.03079271
_cell_length_b   13.86180566
_cell_length_c   15.39100023
_cell_angle_alpha   90.03213223
_cell_angle_beta   92.16481517
_cell_angle_gamma   107.30071487
_symmetry_Int_Tables_number   1
_chemical_formula_structural   ZnH19C19(NO2)2
_chemical_formula_sum   'Zn2 H38 C38 N4 O8'
_cell_volume   2245.13785522
_cell_formula_units_Z   2
loop_
 _symmetry_equiv_pos_site_id
 _symmetry_equiv_pos_as_xyz
  1  'x, y, z'
loop_
 _atom_site_type_symbol
 _atom_site_label
 _atom_site_symmetry_multiplicity
 _atom_site_fract_x
 _atom_site_fract_y
 _atom_site_fract_z
 _atom_site_occupancy
  Zn  Zn0  1  0.48155296  0.39194943  0.50511707  1.0
  Zn  Zn1  1  0.50016375  0.59664093  0.50559923  1.0
  H  H2  1  0.12940475  0.57475404  0.51007201  1.0
  H  H3  1  0.56705136  0.36893789  0.22976716  1.0
  H  H4  1  0.57634770  0.66271770  0.94500201  1.0
  H  H5  1  0.57873574  0.37175878  0.06830179  1.0
  H  H6  1  0.66654002  0.77536474  0.58710875  1.0
  H  H7  1  0.48891322  0.24642514  0.37027440  1.0
  H  H8  1  0.34035451  0.72326936  0.43065066  1.0
  H  H9  1  0.53134721  0.24918651  0.63800269  1.0
  H  H10  1  0.94600843  0.13574319  0.36553793  1.0
  H  H11  1  0.81703370  0.18784766  0.36895282  1.0
  H  H12  1  0.89574505  0.18764695  0.27028038  1.0
  H  H13  1  0.85579151  0.42273573  0.49594292  1.0
  H  H14  1  0.96541241  0.36066871  0.33931979  1.0
  H  H15  1  0.09486035  0.31042897  0.33728782  1.0
  H  H16  1  0.06738450  0.26121531  0.49175497  1.0
  H  H17  1  0.92887921  0.30172956  0.49415705  1.0
  H  H18  1  0.99357336  0.88692242  0.44455888  1.0
  H  H19  1  0.13420010  0.85463707  0.42529998  1.0
  H  H20  1  0.03647977  0.87316558  0.33617892  1.0
  H  H21  1  0.00054853  0.68670037  0.35928931  1.0
  H  H22  1  0.86105878  0.71929393  0.38015581  1.0
  H  H23  1  0.91929234  0.73117919  0.53939580  1.0
  H  H24  1  0.36862903  0.91005253  0.41975926  1.0
  H  H25  1  0.05676495  0.69488782  0.51846973  1.0
  H  H26  1  0.78004290  0.92974468  0.62813860  1.0
  H  H27  1  0.91030561  0.08454830  0.60064106  1.0
  H  H28  1  0.78526482  0.12713158  0.55593879  1.0
  H  H29  1  0.84992293  0.04788393  0.49267517  1.0
  H  H30  1  0.51536109  0.11999295  0.28923332  1.0
  H  H31  1  0.63109200  0.02289136  0.24444723  1.0
  H  H32  1  0.53817579  0.92415695  0.30990947  1.0
  H  H33  1  0.68134952  0.00980866  0.35359669  1.0
  H  H34  1  0.56541172  0.07676385  0.63683984  1.0
  H  H35  1  0.44322395  0.33734517  0.94639074  1.0
  H  H36  1  0.44150009  0.63206857  0.06159505  1.0
  H  H37  1  0.44042932  0.33456667  0.78456557  1.0
  H  H38  1  0.43539178  0.63028596  0.22343220  1.0
  H  H39  1  0.57032385  0.65831330  0.78294590  1.0
  C  C40  1  0.50156545  0.49451700  0.67611778  1.0
  C  C41  1  0.52988311  0.20676742  0.57815319  1.0
  C  C42  1  0.43733132  0.88259780  0.45714952  1.0
  C  C43  1  0.54984622  0.11276255  0.57622676  1.0
  C  C44  1  0.54138889  0.95300774  0.49976598  1.0
  C  C45  1  0.54544312  0.06054211  0.49732051  1.0
  C  C46  1  0.73892953  0.55448702  0.50324641  1.0
  C  C47  1  0.24492590  0.44169259  0.49709389  1.0
  C  C48  1  0.88008402  0.57728571  0.49948962  1.0
  C  C49  1  0.10392589  0.42141978  0.48853908  1.0
  C  C50  1  0.92688079  0.49693076  0.49690375  1.0
  C  C51  1  0.49101355  0.49553038  0.33344862  1.0
  C  C52  1  0.05821319  0.50170336  0.49819755  1.0
  C  C53  1  0.47348885  0.40801714  0.91085386  1.0
  C  C54  1  0.47108413  0.57503292  0.09832303  1.0
  C  C55  1  0.47109980  0.40603640  0.82045683  1.0
  C  C56  1  0.46631472  0.57387355  0.18855886  1.0
  C  C57  1  0.50570979  0.49625102  0.77375613  1.0
  C  C58  1  0.49890304  0.49855483  0.23634077  1.0
  C  C59  1  0.54303272  0.58846350  0.81963577  1.0
  C  C60  1  0.53905922  0.42586863  0.19202260  1.0
  C  C61  1  0.54525270  0.59046199  0.91005654  1.0
  C  C62  1  0.51022432  0.50022431  0.95738589  1.0
  C  C63  1  0.54474958  0.42743123  0.10193977  1.0
  C  C64  1  0.02240319  0.31643662  0.46523276  1.0
  C  C65  1  0.00213438  0.30065717  0.36604909  1.0
  C  C66  1  0.91033999  0.19730366  0.34120964  1.0
  C  C67  1  0.95832491  0.68612173  0.49550874  1.0
  C  C68  1  0.95974116  0.73020799  0.40358479  1.0
  C  C69  1  0.03501423  0.84217743  0.40203081  1.0
  C  C70  1  0.82368164  0.06275343  0.55873044  1.0
  C  C71  1  0.59782457  0.00349928  0.31025184  1.0
  C  C72  1  0.50947025  0.50139367  0.05325587  1.0
  C  C73  1  0.62780618  0.91495180  0.54931087  1.0
  C  C74  1  0.52828240  0.11037463  0.41928950  1.0
  C  C75  1  0.60202835  0.80927143  0.55161251  1.0
  C  C76  1  0.50582013  0.20506360  0.42773289  1.0
  C  C77  1  0.41969959  0.77966122  0.46321188  1.0
  N  N78  1  0.50261257  0.74450544  0.51014821  1.0
  N  N79  1  0.50506213  0.25044406  0.50389806  1.0
  N  N80  1  0.73449131  0.97375877  0.59602296  1.0
  N  N81  1  0.52968499  0.07323917  0.33646289  1.0
  O  O82  1  0.46975662  0.40810332  0.63829319  1.0
  O  O83  1  0.47532300  0.57246541  0.37117334  1.0
  O  O84  1  0.52967705  0.57956896  0.63836910  1.0
  O  O85  1  0.50079257  0.41590990  0.37083085  1.0
  O  O86  1  0.67412700  0.46359758  0.51726364  1.0
  O  O87  1  0.31137220  0.53214472  0.51586103  1.0
  O  O88  1  0.69298356  0.62844990  0.49273338  1.0
  O  O89  1  0.28942478  0.36755501  0.48580932  1.0
