# generated using pymatgen
data_InH12C22O5
_symmetry_space_group_name_H-M   'P 1'
_cell_length_a   14.31779913
_cell_length_b   15.70021375
_cell_length_c   16.36020071
_cell_angle_alpha   90.00000388
_cell_angle_beta   90.00011500
_cell_angle_gamma   103.38486309
_symmetry_Int_Tables_number   1
_chemical_formula_structural   InH12C22O5
_chemical_formula_sum   'In4 H48 C88 O20'
_cell_volume   3577.75476310
_cell_formula_units_Z   4
loop_
 _symmetry_equiv_pos_site_id
 _symmetry_equiv_pos_as_xyz
  1  'x, y, z'
loop_
 _atom_site_type_symbol
 _atom_site_label
 _atom_site_symmetry_multiplicity
 _atom_site_fract_x
 _atom_site_fract_y
 _atom_site_fract_z
 _atom_site_occupancy
  In  In0  1  0.49999953  0.50000123  0.99999919  1.0
  In  In1  1  0.99999968  0.50000005  0.00000151  1.0
  In  In2  1  0.75000258  0.50000046  0.99739125  1.0
  In  In3  1  0.24999999  0.50000106  0.00260901  1.0
  H  H4  1  0.68208090  0.69819045  0.50076832  1.0
  H  H5  1  0.73021602  0.91958415  0.70868391  1.0
  H  H6  1  0.73087038  0.91956357  0.29225320  1.0
  H  H7  1  0.79892493  0.63728486  0.77450039  1.0
  H  H8  1  0.82523789  0.72364143  0.64452157  1.0
  H  H9  1  0.55272547  0.79108055  0.67713890  1.0
  H  H10  1  0.52523091  0.70141901  0.80473022  1.0
  H  H11  1  0.81008746  0.63930409  0.23000708  1.0
  H  H12  1  0.83132616  0.72730891  0.35867056  1.0
  H  H13  1  0.55404124  0.78381072  0.32268360  1.0
  H  H14  1  0.53083754  0.69117631  0.19672302  1.0
  H  H15  1  0.09467326  0.38164993  0.96254513  1.0
  H  H16  1  0.81791972  0.30181084  0.50076842  1.0
  H  H17  1  0.76978215  0.08041660  0.70868392  1.0
  H  H18  1  0.76912813  0.08043956  0.29225443  1.0
  H  H19  1  0.70107549  0.36271594  0.77450030  1.0
  H  H20  1  0.67476064  0.27635863  0.64452081  1.0
  H  H21  1  0.94727434  0.20892150  0.67713679  1.0
  H  H22  1  0.97477131  0.29858311  0.80472816  1.0
  H  H23  1  0.68991060  0.36069507  0.23000574  1.0
  H  H24  1  0.66867312  0.27268837  0.35866979  1.0
  H  H25  1  0.94595741  0.21618719  0.32268209  1.0
  H  H26  1  0.96916237  0.30882218  0.19672217  1.0
  H  H27  1  0.40532672  0.61834620  0.96254114  1.0
  H  H28  1  0.31792048  0.30180911  0.49923072  1.0
  H  H29  1  0.26978413  0.08041607  0.29131451  1.0
  H  H30  1  0.26912887  0.08043860  0.70774584  1.0
  H  H31  1  0.20107747  0.36271601  0.22549926  1.0
  H  H32  1  0.17476398  0.27636010  0.35547930  1.0
  H  H33  1  0.44727660  0.20891902  0.32286258  1.0
  H  H34  1  0.47477240  0.29857990  0.19527004  1.0
  H  H35  1  0.18991252  0.36069547  0.76999196  1.0
  H  H36  1  0.16867366  0.27268999  0.64132848  1.0
  H  H37  1  0.44595754  0.21618688  0.67731911  1.0
  H  H38  1  0.46916174  0.30882325  0.80327847  1.0
  H  H39  1  0.90532655  0.61834897  0.03745390  1.0
  H  H40  1  0.18208092  0.69819133  0.49923061  1.0
  H  H41  1  0.23021660  0.91958361  0.29131451  1.0
  H  H42  1  0.23087128  0.91956327  0.70774522  1.0
  H  H43  1  0.29892256  0.63728427  0.22549996  1.0
  H  H44  1  0.32523827  0.72364223  0.35547945  1.0
  H  H45  1  0.05272318  0.79107936  0.32286408  1.0
  H  H46  1  0.02522674  0.70141709  0.19527149  1.0
  H  H47  1  0.31008938  0.63930448  0.76999329  1.0
  H  H48  1  0.33132616  0.72731119  0.64132986  1.0
  H  H49  1  0.05404203  0.78381302  0.67731939  1.0
  H  H50  1  0.03083917  0.69117803  0.80327870  1.0
  H  H51  1  0.59467359  0.38165467  0.03745912  1.0
  C  C52  1  0.64585638  0.61039590  0.87340308  1.0
  C  C53  1  0.65578455  0.60653615  0.12885965  1.0
  C  C54  1  0.66083863  0.66433979  0.79730256  1.0
  C  C55  1  0.66945727  0.66047387  0.20523831  1.0
  C  C56  1  0.74532009  0.67077543  0.75204463  1.0
  C  C57  1  0.75418492  0.67089545  0.25089981  1.0
  C  C58  1  0.75962106  0.71893887  0.67987316  1.0
  C  C59  1  0.76582311  0.72003854  0.32265138  1.0
  C  C60  1  0.69070774  0.76296918  0.65238138  1.0
  C  C61  1  0.69436188  0.76174186  0.34896335  1.0
  C  C62  1  0.60652238  0.75697710  0.69835935  1.0
  C  C63  1  0.60999611  0.75172274  0.30248218  1.0
  C  C64  1  0.59113789  0.70729023  0.76966347  1.0
  C  C65  1  0.59694191  0.70049871  0.23208266  1.0
  C  C66  1  0.70578989  0.81400692  0.57523687  1.0
  C  C67  1  0.70712721  0.81372126  0.42576499  1.0
  C  C68  1  0.72675357  0.90659419  0.57625032  1.0
  C  C69  1  0.72734834  0.90636352  0.42460854  1.0
  C  C70  1  0.73883870  0.95532381  0.65103609  1.0
  C  C71  1  0.73923486  0.95527861  0.34994810  1.0
  C  C72  1  0.69827658  0.76961955  0.50060024  1.0
  C  C73  1  0.73847686  0.95321391  0.50037841  1.0
  C  C74  1  0.85414046  0.38960363  0.87340142  1.0
  C  C75  1  0.84421552  0.39346361  0.12886287  1.0
  C  C76  1  0.83916217  0.33566233  0.79730209  1.0
  C  C77  1  0.83054320  0.33952397  0.20524089  1.0
  C  C78  1  0.75468130  0.32922665  0.75204340  1.0
  C  C79  1  0.74581377  0.32910046  0.25089918  1.0
  C  C80  1  0.74037859  0.28106252  0.67987251  1.0
  C  C81  1  0.73417608  0.27995871  0.32265012  1.0
  C  C82  1  0.80929045  0.23703219  0.65238147  1.0
  C  C83  1  0.80563754  0.23825606  0.34896282  1.0
  C  C84  1  0.89347818  0.24302496  0.69835897  1.0
  C  C85  1  0.89000217  0.24827385  0.30248241  1.0
  C  C86  1  0.90886231  0.29271252  0.76966252  1.0
  C  C87  1  0.90305771  0.29950112  0.23208414  1.0
  C  C88  1  0.79420639  0.18599310  0.57523692  1.0
  C  C89  1  0.79287483  0.18627803  0.42576443  1.0
  C  C90  1  0.77324513  0.09340714  0.57624911  1.0
  C  C91  1  0.77265386  0.09363642  0.42460794  1.0
  C  C92  1  0.76115808  0.04467756  0.65103669  1.0
  C  C93  1  0.76076543  0.04471998  0.34994809  1.0
  C  C94  1  0.80172177  0.23038108  0.50059971  1.0
  C  C95  1  0.76152133  0.04678606  0.50037778  1.0
  C  C96  1  0.35414417  0.38960038  0.12659413  1.0
  C  C97  1  0.34421349  0.39346406  0.87113816  1.0
  C  C98  1  0.33916344  0.33565977  0.20269587  1.0
  C  C99  1  0.33054218  0.33952634  0.79476011  1.0
  C  C100  1  0.25468281  0.32922740  0.24795502  1.0
  C  C101  1  0.24581560  0.32910345  0.74910045  1.0
  C  C102  1  0.24038201  0.28106462  0.32012771  1.0
  C  C103  1  0.23417756  0.27996101  0.67734948  1.0
  C  C104  1  0.30929241  0.23703103  0.34761826  1.0
  C  C105  1  0.30563707  0.23825638  0.65103630  1.0
  C  C106  1  0.39348019  0.24302442  0.30164091  1.0
  C  C107  1  0.39000403  0.24827748  0.69751869  1.0
  C  C108  1  0.40886435  0.29270998  0.23033617  1.0
  C  C109  1  0.40305770  0.29950216  0.76791698  1.0
  C  C110  1  0.29421112  0.18599395  0.42476278  1.0
  C  C111  1  0.29287364  0.18627895  0.57423466  1.0
  C  C112  1  0.27324813  0.09340668  0.42374993  1.0
  C  C113  1  0.27265460  0.09363670  0.57539049  1.0
  C  C114  1  0.26116317  0.04467771  0.34896355  1.0
  C  C115  1  0.26076405  0.04472226  0.65005094  1.0
  C  C116  1  0.30172529  0.23038197  0.49940001  1.0
  C  C117  1  0.26152538  0.04678630  0.49962124  1.0
  C  C118  1  0.14585710  0.61039461  0.12660006  1.0
  C  C119  1  0.15578709  0.60653530  0.87113861  1.0
  C  C120  1  0.16083382  0.66433526  0.20270122  1.0
  C  C121  1  0.16945855  0.66047428  0.79476181  1.0
  C  C122  1  0.24531679  0.67077094  0.24795747  1.0
  C  C123  1  0.25418674  0.67089845  0.74910108  1.0
  C  C124  1  0.25961843  0.71893637  0.32012958  1.0
  C  C125  1  0.26582320  0.72004084  0.67734953  1.0
  C  C126  1  0.19070846  0.76296867  0.34761940  1.0
  C  C127  1  0.19436347  0.76174480  0.65103744  1.0
  C  C128  1  0.10651970  0.75697460  0.30164312  1.0
  C  C129  1  0.10999765  0.75172505  0.69751968  1.0
  C  C130  1  0.09113331  0.70728637  0.23034019  1.0
  C  C131  1  0.09694486  0.70050041  0.76791856  1.0
  C  C132  1  0.20579203  0.81400580  0.42476272  1.0
  C  C133  1  0.20712602  0.81372219  0.57423522  1.0
  C  C134  1  0.22675658  0.90659373  0.42375053  1.0
  C  C135  1  0.22734785  0.90636445  0.57539109  1.0
  C  C136  1  0.23884136  0.95532265  0.34896295  1.0
  C  C137  1  0.23923805  0.95527959  0.65005095  1.0
  C  C138  1  0.19827767  0.76961913  0.49940055  1.0
  C  C139  1  0.23847968  0.95321480  0.49962125  1.0
  O  O140  1  0.39351197  0.57461533  0.00588232  1.0
  O  O141  1  0.56344663  0.59743855  0.90763486  1.0
  O  O142  1  0.73106858  0.59034392  0.09627760  1.0
  O  O143  1  0.71654693  0.58103707  0.89804037  1.0
  O  O144  1  0.57019814  0.58128502  0.10256650  1.0
  O  O145  1  0.10648737  0.42538417  0.00588268  1.0
  O  O146  1  0.93655132  0.40256232  0.90763701  1.0
  O  O147  1  0.76893414  0.40966106  0.09628068  1.0
  O  O148  1  0.78345190  0.41896183  0.89804103  1.0
  O  O149  1  0.92980270  0.41871800  0.10257170  1.0
  O  O150  1  0.60648781  0.42538619  0.99411794  1.0
  O  O151  1  0.43655203  0.40255577  0.09235746  1.0
  O  O152  1  0.26893219  0.40966153  0.90371899  1.0
  O  O153  1  0.28345535  0.41896053  0.10195745  1.0
  O  O154  1  0.42980164  0.41871650  0.89743315  1.0
  O  O155  1  0.89351314  0.57461473  0.99411636  1.0
  O  O156  1  0.06344517  0.59743723  0.09236447  1.0
  O  O157  1  0.23106658  0.59033588  0.90371713  1.0
  O  O158  1  0.21654290  0.58103379  0.10196228  1.0
  O  O159  1  0.07019728  0.58128155  0.89743284  1.0
