# generated using pymatgen
data_AlH6C27N7(OF)6
_symmetry_space_group_name_H-M   'P 1'
_cell_length_a   3.94755086
_cell_length_b   18.06841754
_cell_length_c   18.17829599
_cell_angle_alpha   119.68929086
_cell_angle_beta   92.21559272
_cell_angle_gamma   91.11863260
_symmetry_Int_Tables_number   1
_chemical_formula_structural   AlH6C27N7(OF)6
_chemical_formula_sum   'Al1 H6 C27 N7 O6 F6'
_cell_volume   1124.41532371
_cell_formula_units_Z   1
loop_
 _symmetry_equiv_pos_site_id
 _symmetry_equiv_pos_as_xyz
  1  'x, y, z'
loop_
 _atom_site_type_symbol
 _atom_site_label
 _atom_site_symmetry_multiplicity
 _atom_site_fract_x
 _atom_site_fract_y
 _atom_site_fract_z
 _atom_site_occupancy
  Al  Al0  1  0.00315171  0.00048983  0.50028908  1.0
  H  H1  1  0.49385402  0.31471134  0.41571283  1.0
  H  H2  1  0.55126675  0.08053866  0.89504400  1.0
  H  H3  1  0.50668673  0.60804609  0.18366603  1.0
  H  H4  1  0.53810544  0.31896660  0.89305466  1.0
  H  H5  1  0.47984899  0.60131997  0.41799574  1.0
  H  H6  1  0.53404025  0.07540830  0.18101743  1.0
  C  C7  1  0.49853929  0.06491567  0.43343330  1.0
  C  C8  1  0.52956572  0.06660551  0.63065689  1.0
  C  C9  1  0.48160190  0.86935073  0.43563185  1.0
  C  C10  1  0.50124707  0.24548171  0.38210818  1.0
  C  C11  1  0.51526046  0.19992312  0.29348242  1.0
  C  C12  1  0.55025565  0.11522919  0.86031728  1.0
  C  C13  1  0.54570452  0.20457246  0.90377771  1.0
  C  C14  1  0.49493550  0.59491366  0.29590106  1.0
  C  C15  1  0.49867272  0.64090914  0.25239608  1.0
  C  C16  1  0.53940781  0.24964152  0.85927627  1.0
  C  C17  1  0.53427266  0.20392067  0.77156934  1.0
  C  C18  1  0.54107417  0.11462439  0.72540889  1.0
  C  C19  1  0.55076231  0.07249148  0.77270427  1.0
  C  C20  1  0.49188217  0.72890799  0.29884949  1.0
  C  C21  1  0.47598309  0.77406813  0.38747090  1.0
  C  C22  1  0.46750711  0.72521985  0.42802176  1.0
  C  C23  1  0.48001819  0.63719923  0.38446876  1.0
  C  C24  1  0.52174016  0.11058723  0.24965622  1.0
  C  C25  1  0.51178382  0.06846215  0.29581466  1.0
  C  C26  1  0.50111375  0.11134962  0.38436772  1.0
  C  C27  1  0.49717548  0.20051158  0.42540859  1.0
  C  C28  1  0.51100138  0.37682384  0.25289952  1.0
  C  C29  1  0.54005225  0.24353770  0.11924780  1.0
  C  C30  1  0.52162771  0.24715578  0.24671727  1.0
  C  C31  1  0.50576952  0.50117975  0.24837434  1.0
  C  C32  1  0.52735744  0.37909753  0.11992481  1.0
  C  C33  1  0.54421983  0.25103144  0.99712449  1.0
  N  N34  1  0.52624767  0.33315076  0.16397760  1.0
  N  N35  1  0.54093114  0.20118684  0.16197532  1.0
  N  N36  1  0.50626148  0.33248912  0.29346912  1.0
  N  N37  1  0.49973441  0.46151191  0.29442219  1.0
  N  N38  1  0.51922729  0.46388241  0.16353505  1.0
  N  N39  1  0.55098048  0.20324335  0.03512004  1.0
  N  N40  1  0.53505781  0.33659831  0.03563593  1.0
  O  O41  1  0.25541610  0.90542102  0.48844432  1.0
  O  O42  1  0.25223220  0.01202160  0.41754949  1.0
  O  O43  1  0.28964030  0.08256341  0.59262612  1.0
  O  O44  1  0.71674351  0.90746346  0.41959544  1.0
  O  O45  1  0.75697868  0.01342569  0.59497603  1.0
  O  O46  1  0.74408923  0.08226908  0.48748506  1.0
  F  F47  1  0.52042986  0.98234305  0.25429557  1.0
  F  F48  1  0.48134201  0.24399393  0.51084179  1.0
  F  F49  1  0.45706615  0.76604537  0.51349446  1.0
  F  F50  1  0.49265190  0.77332064  0.25693239  1.0
  F  F51  1  0.53009960  0.24715619  0.72845115  1.0
  F  F52  1  0.55037985  0.98629918  0.73071427  1.0
