# generated using pymatgen
data_CoH20(C13N5)2
_symmetry_space_group_name_H-M   'P 1'
_cell_length_a   9.72690452
_cell_length_b   16.01335783
_cell_length_c   16.01421543
_cell_angle_alpha   115.95177359
_cell_angle_beta   101.68737962
_cell_angle_gamma   101.72759383
_symmetry_Int_Tables_number   1
_chemical_formula_structural   CoH20(C13N5)2
_chemical_formula_sum   'Co3 H60 C78 N30'
_cell_volume   2072.14892376
_cell_formula_units_Z   3
loop_
 _symmetry_equiv_pos_site_id
 _symmetry_equiv_pos_as_xyz
  1  'x, y, z'
loop_
 _atom_site_type_symbol
 _atom_site_label
 _atom_site_symmetry_multiplicity
 _atom_site_fract_x
 _atom_site_fract_y
 _atom_site_fract_z
 _atom_site_occupancy
  Co  Co0  1  0.49999640  0.99999262  0.49999418  1.0
  Co  Co1  1  0.49999869  0.50000428  0.00000064  1.0
  Co  Co2  1  0.00000579  0.49999803  0.50000144  1.0
  H  H3  1  0.48861271  0.14900725  0.42907954  1.0
  H  H4  1  0.62989877  0.21027870  0.34081462  1.0
  H  H5  1  0.82103919  0.13690693  0.28511463  1.0
  H  H6  1  0.76868072  0.78340114  0.60409886  1.0
  H  H7  1  0.88283678  0.66348104  0.62273520  1.0
  H  H8  1  0.04618308  0.62523371  0.39343970  1.0
  H  H9  1  0.94506189  0.74742082  0.36893574  1.0
  H  H10  1  0.93582354  0.95661324  0.34834265  1.0
  H  H11  1  0.99586067  0.05010482  0.31792936  1.0
  H  H12  1  0.85101049  0.93820016  0.22984030  1.0
  H  H13  1  0.33915213  0.28003603  0.85131703  1.0
  H  H14  1  0.41920454  0.13067238  0.78984517  1.0
  H  H15  1  0.68390477  0.14836727  0.86323245  1.0
  H  H16  1  0.98491890  0.82061403  0.21687798  1.0
  H  H17  1  0.21936692  0.95913285  0.33647666  1.0
  H  H18  1  0.42178846  0.76820649  0.37430595  1.0
  H  H19  1  0.19821496  0.62154644  0.25230544  1.0
  H  H20  1  0.97944251  0.39173052  0.04318026  1.0
  H  H21  1  0.94560783  0.26780239  0.95000325  1.0
  H  H22  1  0.91324048  0.29194196  0.06209454  1.0
  H  H23  1  0.05957778  0.57123360  0.71995410  1.0
  H  H24  1  0.28926383  0.65940730  0.86931284  1.0
  H  H25  1  0.53619982  0.71526272  0.85153563  1.0
  H  H26  1  0.16403606  0.39575970  0.17928375  1.0
  H  H27  1  0.25967993  0.37715626  0.04076722  1.0
  H  H28  1  0.65319629  0.60598857  0.23159451  1.0
  H  H29  1  0.57650496  0.63038159  0.37825442  1.0
  H  H30  1  0.58757183  0.65219863  0.60801830  1.0
  H  H31  1  0.67817799  0.68244159  0.73176555  1.0
  H  H32  1  0.62156258  0.77066229  0.70812032  1.0
  H  H33  1  0.51136223  0.85097443  0.57089400  1.0
  H  H34  1  0.37006976  0.78970024  0.65915451  1.0
  H  H35  1  0.17895008  0.86307921  0.71487069  1.0
  H  H36  1  0.23132677  0.21658937  0.39589971  1.0
  H  H37  1  0.11716760  0.33651662  0.37726779  1.0
  H  H38  1  0.95378493  0.37474422  0.60655740  1.0
  H  H39  1  0.05493038  0.25255807  0.63106358  1.0
  H  H40  1  0.06415476  0.04337567  0.65165224  1.0
  H  H41  1  0.00413289  0.94987859  0.68206848  1.0
  H  H42  1  0.14896627  0.06179992  0.77016636  1.0
  H  H43  1  0.66084870  0.71997452  0.14867933  1.0
  H  H44  1  0.58079238  0.86933652  0.21016002  1.0
  H  H45  1  0.31609337  0.85164466  0.13677936  1.0
  H  H46  1  0.01509575  0.17940764  0.78311690  1.0
  H  H47  1  0.78066687  0.04088089  0.66351013  1.0
  H  H48  1  0.57820644  0.23179420  0.62568673  1.0
  H  H49  1  0.80176408  0.37846033  0.74768724  1.0
  H  H50  1  0.02055621  0.60828095  0.95683891  1.0
  H  H51  1  0.05439592  0.73221059  0.05000930  1.0
  H  H52  1  0.08675142  0.70806010  0.93791507  1.0
  H  H53  1  0.94043929  0.42876415  0.28005110  1.0
  H  H54  1  0.71074516  0.34059818  0.13069530  1.0
  H  H55  1  0.46381440  0.28475473  0.14847693  1.0
  H  H56  1  0.83596306  0.60424562  0.82071114  1.0
  H  H57  1  0.74031667  0.62285624  0.95922913  1.0
  H  H58  1  0.34680049  0.39401681  0.76840406  1.0
  H  H59  1  0.42349897  0.36961597  0.62174562  1.0
  H  H60  1  0.41242257  0.34780395  0.39198174  1.0
  H  H61  1  0.32183736  0.31756210  0.26823228  1.0
  H  H62  1  0.37844344  0.22934150  0.29188193  1.0
  C  C63  1  0.57380490  0.11984677  0.40425661  1.0
  C  C64  1  0.65174463  0.15252849  0.35427377  1.0
  C  C65  1  0.75791794  0.11175017  0.32366466  1.0
  C  C66  1  0.78658370  0.03893496  0.34338783  1.0
  C  C67  1  0.70468103  0.01054649  0.39527656  1.0
  C  C68  1  0.72199377  0.94065140  0.42724796  1.0
  C  C69  1  0.77863967  0.84228209  0.47019399  1.0
  C  C70  1  0.84661405  0.77450127  0.48404006  1.0
  C  C71  1  0.83090582  0.75037957  0.55684587  1.0
  C  C72  1  0.89360644  0.68349433  0.56683262  1.0
  C  C73  1  0.98536992  0.66261331  0.43966867  1.0
  C  C74  1  0.92857611  0.73009952  0.42554325  1.0
  C  C75  1  0.89939459  0.99357527  0.30886994  1.0
  C  C76  1  0.45364909  0.28438435  0.88042019  1.0
  C  C77  1  0.49889475  0.20180905  0.84768307  1.0
  C  C78  1  0.64595750  0.21200912  0.88842000  1.0
  C  C79  1  0.74761924  0.30449178  0.96118164  1.0
  C  C80  1  0.69411398  0.38471446  0.98952584  1.0
  C  C81  1  0.78147360  0.48653429  0.05931115  1.0
  C  C82  1  0.93650059  0.62780440  0.15765113  1.0
  C  C83  1  0.07227160  0.70947841  0.22542406  1.0
  C  C84  1  0.08046745  0.80637152  0.24968251  1.0
  C  C85  1  0.21021972  0.88323814  0.31643604  1.0
  C  C86  1  0.32334166  0.77705336  0.33707706  1.0
  C  C87  1  0.19893512  0.69545411  0.26967535  1.0
  C  C88  1  0.90594232  0.31538316  0.00650156  1.0
  C  C89  1  0.16968501  0.59607859  0.71556835  1.0
  C  C90  1  0.29768579  0.64604161  0.79814646  1.0
  C  C91  1  0.43449623  0.67670114  0.78790996  1.0
  C  C92  1  0.44342627  0.65696714  0.69538485  1.0
  C  C93  1  0.30956767  0.60495346  0.61517506  1.0
  C  C94  1  0.29491904  0.57282019  0.51332062  1.0
  C  C95  1  0.30850422  0.52953549  0.37201170  1.0
  C  C96  1  0.36256151  0.51555998  0.29033856  1.0
  C  C97  1  0.27377068  0.44292639  0.19350352  1.0
  C  C98  1  0.32651725  0.43296876  0.11663777  1.0
  C  C99  1  0.54594327  0.55984777  0.22278800  1.0
  C  C100  1  0.50325540  0.57390860  0.30436796  1.0
  C  C101  1  0.59075979  0.69157999  0.68443796  1.0
  C  C102  1  0.42617495  0.88014100  0.59573092  1.0
  C  C103  1  0.34823410  0.84745880  0.64571155  1.0
  C  C104  1  0.24208034  0.88823943  0.67633023  1.0
  C  C105  1  0.21342603  0.96106122  0.65661737  1.0
  C  C106  1  0.29532836  0.98945624  0.60473231  1.0
  C  C107  1  0.27800335  0.05935853  0.57276386  1.0
  C  C108  1  0.22137112  0.15770356  0.52980679  1.0
  C  C109  1  0.15338934  0.22548310  0.51595852  1.0
  C  C110  1  0.16908965  0.24961010  0.44316006  1.0
  C  C111  1  0.10639210  0.31649602  0.43317110  1.0
  C  C112  1  0.01461864  0.33736785  0.56032549  1.0
  C  C113  1  0.07142501  0.26987697  0.57444650  1.0
  C  C114  1  0.10059675  0.00641534  0.69112789  1.0
  C  C115  1  0.54634670  0.71562531  0.11958279  1.0
  C  C116  1  0.50110789  0.79819937  0.15232507  1.0
  C  C117  1  0.35403429  0.78799571  0.11158740  1.0
  C  C118  1  0.25236976  0.69551834  0.03882870  1.0
  C  C119  1  0.30588238  0.61529536  0.01048450  1.0
  C  C120  1  0.21852519  0.51347865  0.94069992  1.0
  C  C121  1  0.06348768  0.37220204  0.84234523  1.0
  C  C122  1  0.92772319  0.29053918  0.77457303  1.0
  C  C123  1  0.91954479  0.19364578  0.75031164  1.0
  C  C124  1  0.78979664  0.11677119  0.68355149  1.0
  C  C125  1  0.67666023  0.22295199  0.66291709  1.0
  C  C126  1  0.80105621  0.30455426  0.73031880  1.0
  C  C127  1  0.09405056  0.68462402  0.99350805  1.0
  C  C128  1  0.83032455  0.40392001  0.28443243  1.0
  C  C129  1  0.70232628  0.35396456  0.20185947  1.0
  C  C130  1  0.56551689  0.32330924  0.21209817  1.0
  C  C131  1  0.55657836  0.34303428  0.30461666  1.0
  C  C132  1  0.69044697  0.39504586  0.38483161  1.0
  C  C133  1  0.70508842  0.42716874  0.48667575  1.0
  C  C134  1  0.69151590  0.47045772  0.62799939  1.0
  C  C135  1  0.63744339  0.48442983  0.70965486  1.0
  C  C136  1  0.72623104  0.55707368  0.80649431  1.0
  C  C137  1  0.67348194  0.56703566  0.88335933  1.0
  C  C138  1  0.45406219  0.44015819  0.77721941  1.0
  C  C139  1  0.49674925  0.42608687  0.69563135  1.0
  C  C140  1  0.40925012  0.30842493  0.31556576  1.0
  N  N141  1  0.59871417  0.05017128  0.42463710  1.0
  N  N142  1  0.63840741  0.93101263  0.48342601  1.0
  N  N143  1  0.67501068  0.86893156  0.51198424  1.0
  N  N144  1  0.81037391  0.88474697  0.41621388  1.0
  N  N145  1  0.96808581  0.63832713  0.50850161  1.0
  N  N146  1  0.54838165  0.37442950  0.94999271  1.0
  N  N147  1  0.70739819  0.55225631  0.06897418  1.0
  N  N148  1  0.80608645  0.64286788  0.13103640  1.0
  N  N149  1  0.92586089  0.53144762  0.11517404  1.0
  N  N150  1  0.33017136  0.87012834  0.36143038  1.0
  N  N151  1  0.17418444  0.57562705  0.62551065  1.0
  N  N152  1  0.15501002  0.51678164  0.44766129  1.0
  N  N153  1  0.16298967  0.48801970  0.35703681  1.0
  N  N154  1  0.39439631  0.58353515  0.46834936  1.0
  N  N155  1  0.45956028  0.49120315  0.12972780  1.0
  N  N156  1  0.40127718  0.94982342  0.57536294  1.0
  N  N157  1  0.36158342  0.06898289  0.51656888  1.0
  N  N158  1  0.32497472  0.13105691  0.48800182  1.0
  N  N159  1  0.18964150  0.11526064  0.58379868  1.0
  N  N160  1  0.03190619  0.36166512  0.49149549  1.0
  N  N161  1  0.45161597  0.62557792  0.05001174  1.0
  N  N162  1  0.29260242  0.44775268  0.93102585  1.0
  N  N163  1  0.19391113  0.35714504  0.86895775  1.0
  N  N164  1  0.07413121  0.46856602  0.88483630  1.0
  N  N165  1  0.66983882  0.12988086  0.63856156  1.0
  N  N166  1  0.82583551  0.42437329  0.37449823  1.0
  N  N167  1  0.84500575  0.48321159  0.55234538  1.0
  N  N168  1  0.83702015  0.51196963  0.64296839  1.0
  N  N169  1  0.60560444  0.41644568  0.53164186  1.0
  N  N170  1  0.54043746  0.50879855  0.87026636  1.0
