# generated using pymatgen
data_AlH5C13Br2NClO5
_symmetry_space_group_name_H-M   'P 1'
_cell_length_a   6.62662369
_cell_length_b   11.10175121
_cell_length_c   16.97134760
_cell_angle_alpha   84.21079788
_cell_angle_beta   82.31679241
_cell_angle_gamma   73.64559840
_symmetry_Int_Tables_number   1
_chemical_formula_structural   AlH5C13Br2NClO5
_chemical_formula_sum   'Al2 H10 C26 Br4 N2 Cl2 O10'
_cell_volume   1184.63335452
_cell_formula_units_Z   2
loop_
 _symmetry_equiv_pos_site_id
 _symmetry_equiv_pos_as_xyz
  1  'x, y, z'
loop_
 _atom_site_type_symbol
 _atom_site_label
 _atom_site_symmetry_multiplicity
 _atom_site_fract_x
 _atom_site_fract_y
 _atom_site_fract_z
 _atom_site_occupancy
  Al  Al0  1  0.49205872  0.50417910  0.49824688  1.0
  Al  Al1  1  0.99213530  0.50330713  0.50004704  1.0
  H  H2  1  0.18503290  0.65668307  0.45220704  1.0
  H  H3  1  0.74546971  0.42483607  0.59324727  1.0
  H  H4  1  0.90592843  0.41939142  0.74439293  1.0
  H  H5  1  0.86084672  0.40577615  0.89340475  1.0
  H  H6  1  0.40180731  0.54923884  0.89035515  1.0
  H  H7  1  0.57394386  0.55643420  0.09978242  1.0
  H  H8  1  0.23861803  0.40319779  0.12217081  1.0
  H  H9  1  0.16012067  0.41982887  0.26989232  1.0
  H  H10  1  0.82206432  0.77147433  0.61415564  1.0
  H  H11  1  0.62391306  0.23898196  0.58877871  1.0
  C  C12  1  0.62125256  0.73078494  0.50505572  1.0
  C  C13  1  0.79894923  0.50512506  0.35698551  1.0
  C  C14  1  0.36033634  0.28079708  0.48877330  1.0
  C  C15  1  0.19415150  0.49303064  0.64409630  1.0
  C  C16  1  0.17868040  0.48978097  0.73286074  1.0
  C  C17  1  0.01483016  0.44645125  0.77720252  1.0
  C  C18  1  0.98831415  0.43936389  0.85969032  1.0
  C  C19  1  0.12866114  0.47754832  0.90037845  1.0
  C  C20  1  0.29547228  0.51903276  0.85789634  1.0
  C  C21  1  0.31967548  0.52599674  0.77481785  1.0
  C  C22  1  0.70199210  0.52642557  0.13759233  1.0
  C  C23  1  0.90975470  0.48089994  0.10234123  1.0
  C  C24  1  0.07763912  0.44040848  0.14985413  1.0
  C  C25  1  0.03341507  0.44948214  0.23150148  1.0
  C  C26  1  0.82635858  0.49845823  0.26856114  1.0
  C  C27  1  0.65963967  0.53708299  0.21967749  1.0
  C  C28  1  0.55368691  0.87243044  0.50088079  1.0
  C  C29  1  0.63616990  0.93807596  0.55137944  1.0
  C  C30  1  0.41623075  0.93955191  0.44686970  1.0
  C  C31  1  0.77625759  0.87375609  0.60780451  1.0
  C  C32  1  0.85988575  0.93874611  0.65415926  1.0
  C  C33  1  0.42907927  0.13931736  0.49082676  1.0
  C  C34  1  0.35133565  0.07330825  0.44252022  1.0
  C  C35  1  0.57607907  0.07288267  0.54520168  1.0
  C  C36  1  0.66392166  0.13702292  0.59395322  1.0
  C  C37  1  0.80491057  0.07211207  0.64623740  1.0
  Br  Br38  1  0.16577571  0.16187861  0.36738804  1.0
  Br  Br39  1  0.32787875  0.85304717  0.37263877  1.0
  Br  Br40  1  0.04914200  0.84664737  0.72680001  1.0
  Br  Br41  1  0.92458966  0.16563953  0.70543069  1.0
  N  N42  1  0.11297661  0.47897917  0.98435834  1.0
  N  N43  1  0.93046616  0.48035884  0.01849169  1.0
  Cl  Cl44  1  0.51971273  0.58782041  0.72744890  1.0
  Cl  Cl45  1  0.39736910  0.60038076  0.25441848  1.0
  O  O46  1  0.47574410  0.67541214  0.52005586  1.0
  O  O47  1  0.96609566  0.48727766  0.39102304  1.0
  O  O48  1  0.16513092  0.33269450  0.50674001  1.0
  O  O49  1  0.37882511  0.46924972  0.60635374  1.0
  O  O50  1  0.50501406  0.33681772  0.47298012  1.0
  O  O51  1  0.02156681  0.51563237  0.61267123  1.0
  O  O52  1  0.81914564  0.67832549  0.49300620  1.0
  O  O53  1  0.61274855  0.52838430  0.39281649  1.0
  O  O54  1  0.22175801  0.56723661  0.46810712  1.0
  O  O55  1  0.75642717  0.44598305  0.53614666  1.0
