# generated using pymatgen
data_Eu2Cu3H30C24(NO4)6
_symmetry_space_group_name_H-M   'P 1'
_cell_length_a   13.35665101
_cell_length_b   13.35724286
_cell_length_c   14.54661439
_cell_angle_alpha   89.99887906
_cell_angle_beta   89.99986455
_cell_angle_gamma   60.00177922
_symmetry_Int_Tables_number   1
_chemical_formula_structural   Eu2Cu3H30C24(NO4)6
_chemical_formula_sum   'Eu4 Cu6 H60 C48 N12 O48'
_cell_volume   2247.57785798
_cell_formula_units_Z   2
loop_
 _symmetry_equiv_pos_site_id
 _symmetry_equiv_pos_as_xyz
  1  'x, y, z'
loop_
 _atom_site_type_symbol
 _atom_site_label
 _atom_site_symmetry_multiplicity
 _atom_site_fract_x
 _atom_site_fract_y
 _atom_site_fract_z
 _atom_site_occupancy
  Eu  Eu0  1  0.66666667  0.66666667  0.83174909  1.0
  Eu  Eu1  1  0.33333333  0.33333333  0.66824838  1.0
  Eu  Eu2  1  0.66666667  0.66666667  0.33175165  1.0
  Eu  Eu3  1  0.33333333  0.33333333  0.16825094  1.0
  Cu  Cu4  1  0.49999959  0.00000015  0.99999986  1.0
  Cu  Cu5  1  0.99999975  0.50000004  0.99999968  1.0
  Cu  Cu6  1  0.49999940  0.50000052  0.00000049  1.0
  Cu  Cu7  1  0.49999959  0.99999992  0.49999967  1.0
  Cu  Cu8  1  0.49999966  0.50000081  0.50000003  1.0
  Cu  Cu9  1  0.99999975  0.49999981  0.50000086  1.0
  H  H10  1  0.64009934  0.03798171  0.08273095  1.0
  H  H11  1  0.03796867  0.32193885  0.08273388  1.0
  H  H12  1  0.32190928  0.64009860  0.08272933  1.0
  H  H13  1  0.67808478  0.96201112  0.41727060  1.0
  H  H14  1  0.64009462  0.32191419  0.58273753  1.0
  H  H15  1  0.03801326  0.64008238  0.58272778  1.0
  H  H16  1  0.35990059  0.96201812  0.91726908  1.0
  H  H17  1  0.96203082  0.67806185  0.91726547  1.0
  H  H18  1  0.67809096  0.35990210  0.91727001  1.0
  H  H19  1  0.32191396  0.03798959  0.58273012  1.0
  H  H20  1  0.35990487  0.67808651  0.41726181  1.0
  H  H21  1  0.96198710  0.35991659  0.41727225  1.0
  H  H22  1  0.83256148  0.86206871  0.02627382  1.0
  H  H23  1  0.86206210  0.30539217  0.02627672  1.0
  H  H24  1  0.30537716  0.83255174  0.02627329  1.0
  H  H25  1  0.69464059  0.13792565  0.47372819  1.0
  H  H26  1  0.83256127  0.30537329  0.52627901  1.0
  H  H27  1  0.86208103  0.83255806  0.52627493  1.0
  H  H28  1  0.16743801  0.13793199  0.97372621  1.0
  H  H29  1  0.13793814  0.69460853  0.97372331  1.0
  H  H30  1  0.69462277  0.16744809  0.97372674  1.0
  H  H31  1  0.30535816  0.86207505  0.52627115  1.0
  H  H32  1  0.16743984  0.69462568  0.47372171  1.0
  H  H33  1  0.13792007  0.16744092  0.47372579  1.0
  H  H34  1  0.74178064  0.97246853  0.94731680  1.0
  H  H35  1  0.97246778  0.28575607  0.94732752  1.0
  H  H36  1  0.28574587  0.74178046  0.94731593  1.0
  H  H37  1  0.71425968  0.02752519  0.55268224  1.0
  H  H38  1  0.74177518  0.28574993  0.44732345  1.0
  H  H39  1  0.97248542  0.74177117  0.44731567  1.0
  H  H40  1  0.25821885  0.02753217  0.05268323  1.0
  H  H41  1  0.02753290  0.71424376  0.05267251  1.0
  H  H42  1  0.71425406  0.25821937  0.05268479  1.0
  H  H43  1  0.28573907  0.97247550  0.44731711  1.0
  H  H44  1  0.25822592  0.71424905  0.55267726  1.0
  H  H45  1  0.02751568  0.25822781  0.55268505  1.0
  H  H46  1  0.68878686  0.91737842  0.20381101  1.0
  H  H47  1  0.91736746  0.39383731  0.20381202  1.0
  H  H48  1  0.39382924  0.68878200  0.20380926  1.0
  H  H49  1  0.60616862  0.08261694  0.29619056  1.0
  H  H50  1  0.68878562  0.39383423  0.70381659  1.0
  H  H51  1  0.91739685  0.68877178  0.70380750  1.0
  H  H52  1  0.31121264  0.08262228  0.79618902  1.0
  H  H53  1  0.08263203  0.60616339  0.79618732  1.0
  H  H54  1  0.60617068  0.31121784  0.79619077  1.0
  H  H55  1  0.39383130  0.91738291  0.70380878  1.0
  H  H56  1  0.31121387  0.60616648  0.29618344  1.0
  H  H57  1  0.08260308  0.31122806  0.29619321  1.0
  H  H58  1  0.74125226  0.79684601  0.13133400  1.0
  H  H59  1  0.79684188  0.46189951  0.13134588  1.0
  H  H60  1  0.46190412  0.74124732  0.13133000  1.0
  H  H61  1  0.53810267  0.20315101  0.36866690  1.0
  H  H62  1  0.74126424  0.46189092  0.63133308  1.0
  H  H63  1  0.79684623  0.74124083  0.63131676  1.0
  H  H64  1  0.25874724  0.20315468  0.86866603  1.0
  H  H65  1  0.20315836  0.53810119  0.86865415  1.0
  H  H66  1  0.53809581  0.25875251  0.86867072  1.0
  H  H67  1  0.46189683  0.79684969  0.63133244  1.0
  H  H68  1  0.25873600  0.53810978  0.36866695  1.0
  H  H69  1  0.20315531  0.25875728  0.36868396  1.0
  C  C70  1  0.73666478  0.81687955  0.93252644  1.0
  C  C71  1  0.81688621  0.44645564  0.93252418  1.0
  C  C72  1  0.44645625  0.73666356  0.93251992  1.0
  C  C73  1  0.55355121  0.18310934  0.56747140  1.0
  C  C74  1  0.73666137  0.44645170  0.43252751  1.0
  C  C75  1  0.81687944  0.73666882  0.43252275  1.0
  C  C76  1  0.26333590  0.18312028  0.06747359  1.0
  C  C77  1  0.18311371  0.55354420  0.06747517  1.0
  C  C78  1  0.55354400  0.26333714  0.06748011  1.0
  C  C79  1  0.44644871  0.81689051  0.43252863  1.0
  C  C80  1  0.26333973  0.55354728  0.56747252  1.0
  C  C81  1  0.18312123  0.26333102  0.56747796  1.0
  C  C82  1  0.74672710  0.90487658  0.99330610  1.0
  C  C83  1  0.90490146  0.34838718  0.99332949  1.0
  C  C84  1  0.34839608  0.74672217  0.99330384  1.0
  C  C85  1  0.65161397  0.09511696  0.50669643  1.0
  C  C86  1  0.74672332  0.34839596  0.49331022  1.0
  C  C87  1  0.90486412  0.74672802  0.49328447  1.0
  C  C88  1  0.25327208  0.09512325  0.00669324  1.0
  C  C89  1  0.09509803  0.65161352  0.00666986  1.0
  C  C90  1  0.65160384  0.25327767  0.00669619  1.0
  C  C91  1  0.34838553  0.90488374  0.49330429  1.0
  C  C92  1  0.25327617  0.65160474  0.50668981  1.0
  C  C93  1  0.09513667  0.25327009  0.50671625  1.0
  C  C94  1  0.66800617  0.88470861  0.14153223  1.0
  C  C95  1  0.88470832  0.44725482  0.14152973  1.0
  C  C96  1  0.44728086  0.66800221  0.14152823  1.0
  C  C97  1  0.55271931  0.11528737  0.35847080  1.0
  C  C98  1  0.66801062  0.44727684  0.64153360  1.0
  C  C99  1  0.88471750  0.66797271  0.64152932  1.0
  C  C100  1  0.33199375  0.11529123  0.85846780  1.0
  C  C101  1  0.11529160  0.55274503  0.85847030  1.0
  C  C102  1  0.55271982  0.33199762  0.85847180  1.0
  C  C103  1  0.44728062  0.88471246  0.64152992  1.0
  C  C104  1  0.33198930  0.55272300  0.35846574  1.0
  C  C105  1  0.11528168  0.33202713  0.35847140  1.0
  C  C106  1  0.56161932  0.87419271  0.16060767  1.0
  C  C107  1  0.87418878  0.56416424  0.16061011  1.0
  C  C108  1  0.56418021  0.56162262  0.16060772  1.0
  C  C109  1  0.43580860  0.12581639  0.33938942  1.0
  C  C110  1  0.56163628  0.56418164  0.66060996  1.0
  C  C111  1  0.87418910  0.56160480  0.66061032  1.0
  C  C112  1  0.43838061  0.12580712  0.83939236  1.0
  C  C113  1  0.12580996  0.43583646  0.83938855  1.0
  C  C114  1  0.43581928  0.43837809  0.83939231  1.0
  C  C115  1  0.56419133  0.87418344  0.66061130  1.0
  C  C116  1  0.43836514  0.43581820  0.33938938  1.0
  C  C117  1  0.12581083  0.43839503  0.33938971  1.0
  N  N118  1  0.65309529  0.95824847  0.06111494  1.0
  N  N119  1  0.95824153  0.38864912  0.06113346  1.0
  N  N120  1  0.38865134  0.65309202  0.06111247  1.0
  N  N121  1  0.61135141  0.04174765  0.43888736  1.0
  N  N122  1  0.65309741  0.38864838  0.56112230  1.0
  N  N123  1  0.95826716  0.65306984  0.56109485  1.0
  N  N124  1  0.34690464  0.04175136  0.93888509  1.0
  N  N125  1  0.04175839  0.61135072  0.93886657  1.0
  N  N126  1  0.61134933  0.34690782  0.93888756  1.0
  N  N127  1  0.38864808  0.95825306  0.56111267  1.0
  N  N128  1  0.34690283  0.61135232  0.43887773  1.0
  N  N129  1  0.04173363  0.34692827  0.43890518  1.0
  O  O130  1  0.64475640  0.81010956  0.94055252  1.0
  O  O131  1  0.81011774  0.54513114  0.94053891  1.0
  O  O132  1  0.54513150  0.64476118  0.94054449  1.0
  O  O133  1  0.45487147  0.18988218  0.55944759  1.0
  O  O134  1  0.64475717  0.54512693  0.44054990  1.0
  O  O135  1  0.81010391  0.64476784  0.44055432  1.0
  O  O136  1  0.35524546  0.18988941  0.05944751  1.0
  O  O137  1  0.18988069  0.45486869  0.05946043  1.0
  O  O138  1  0.45486767  0.35523866  0.05945554  1.0
  O  O139  1  0.54512846  0.81011765  0.44055313  1.0
  O  O140  1  0.35524351  0.45487290  0.55945013  1.0
  O  O141  1  0.18989601  0.35523200  0.55944571  1.0
  O  O142  1  0.81654707  0.75645559  0.87642381  1.0
  O  O143  1  0.75644446  0.42701360  0.87641720  1.0
  O  O144  1  0.42698953  0.81655688  0.87642370  1.0
  O  O145  1  0.57299871  0.24353879  0.62357668  1.0
  O  O146  1  0.81655012  0.42698936  0.37642726  1.0
  O  O147  1  0.75646295  0.81655942  0.37643139  1.0
  O  O148  1  0.18345360  0.24354425  0.12357623  1.0
  O  O149  1  0.24355590  0.57298537  0.12358214  1.0
  O  O150  1  0.57301146  0.18344382  0.12357633  1.0
  O  O151  1  0.42700079  0.75646190  0.37642335  1.0
  O  O152  1  0.18345055  0.57301048  0.62357277  1.0
  O  O153  1  0.24353772  0.18344042  0.62356933  1.0
  O  O154  1  0.47565264  0.92228401  0.10569765  1.0
  O  O155  1  0.92227143  0.60205532  0.10569522  1.0
  O  O156  1  0.60205991  0.47566578  0.10569258  1.0
  O  O157  1  0.39793112  0.07772557  0.39430851  1.0
  O  O158  1  0.47566732  0.60205933  0.60569041  1.0
  O  O159  1  0.92228124  0.47564887  0.60569930  1.0
  O  O160  1  0.52434740  0.07771410  0.89430238  1.0
  O  O161  1  0.07772657  0.39794537  0.89430275  1.0
  O  O162  1  0.39793926  0.52433406  0.89430814  1.0
  O  O163  1  0.60206912  0.92227514  0.60569220  1.0
  O  O164  1  0.52433367  0.39794137  0.39430894  1.0
  O  O165  1  0.07771837  0.52435011  0.39430211  1.0
  O  O166  1  0.56254887  0.81665154  0.22976517  1.0
  O  O167  1  0.81667404  0.62079744  0.22976527  1.0
  O  O168  1  0.62078397  0.56254684  0.22977289  1.0
  O  O169  1  0.37920451  0.18334789  0.27023748  1.0
  O  O170  1  0.56256066  0.62078476  0.72976094  1.0
  O  O171  1  0.81664225  0.56258140  0.72977149  1.0
  O  O172  1  0.43745148  0.18334744  0.77023486  1.0
  O  O173  1  0.18332470  0.37920326  0.77023338  1.0
  O  O174  1  0.37921746  0.43745299  0.77022646  1.0
  O  O175  1  0.62079617  0.81665194  0.72976255  1.0
  O  O176  1  0.43744088  0.37921335  0.27023909  1.0
  O  O177  1  0.18335693  0.43741843  0.27022923  1.0
