# generated using pymatgen
data_ZnH16C28NO8
_symmetry_space_group_name_H-M   'P 1'
_cell_length_a   14.32016945
_cell_length_b   14.35377610
_cell_length_c   15.10025252
_cell_angle_alpha   88.73071202
_cell_angle_beta   86.89168755
_cell_angle_gamma   88.42786781
_symmetry_Int_Tables_number   1
_chemical_formula_structural   ZnH16C28NO8
_chemical_formula_sum   'Zn2 H32 C56 N2 O16'
_cell_volume   3097.43743995
_cell_formula_units_Z   2
loop_
 _symmetry_equiv_pos_site_id
 _symmetry_equiv_pos_as_xyz
  1  'x, y, z'
loop_
 _atom_site_type_symbol
 _atom_site_label
 _atom_site_symmetry_multiplicity
 _atom_site_fract_x
 _atom_site_fract_y
 _atom_site_fract_z
 _atom_site_occupancy
  Zn  Zn0  1  0.50828222  0.38803466  0.51292331  1.0
  Zn  Zn1  1  0.49404713  0.60995376  0.50536120  1.0
  H  H2  1  0.63846379  0.55325906  0.77170702  1.0
  H  H3  1  0.37129713  0.47548779  0.24675296  1.0
  H  H4  1  0.73687361  0.52926660  0.90258185  1.0
  H  H5  1  0.27724960  0.47569509  0.11537152  1.0
  H  H6  1  0.30620681  0.50052414  0.72696138  1.0
  H  H7  1  0.73190665  0.59664567  0.18415262  1.0
  H  H8  1  0.77775436  0.45768858  0.13171164  1.0
  H  H9  1  0.18078620  0.48910993  0.00592220  1.0
  H  H10  1  0.57186496  0.27497351  0.67147395  1.0
  H  H11  1  0.49490602  0.27462536  0.76795227  1.0
  H  H12  1  0.53506865  0.16704139  0.72087207  1.0
  H  H13  1  0.40184899  0.31397493  0.63877252  1.0
  H  H14  1  0.37023919  0.20666252  0.68759968  1.0
  H  H15  1  0.67107280  0.73628571  0.56489723  1.0
  H  H16  1  0.77111715  0.73032350  0.49059254  1.0
  H  H17  1  0.71733743  0.84093618  0.51621864  1.0
  H  H18  1  0.63439402  0.68383620  0.41035587  1.0
  H  H19  1  0.67672199  0.79052547  0.36665289  1.0
  H  H20  1  0.56423859  0.30375109  0.28659360  1.0
  H  H21  1  0.66197707  0.36685105  0.31596231  1.0
  H  H22  1  0.67827589  0.26436139  0.25251171  1.0
  H  H23  1  0.67027543  0.28450617  0.44464485  1.0
  H  H24  1  0.69797668  0.18368739  0.38482213  1.0
  H  H25  1  0.30872840  0.70856480  0.43073416  1.0
  H  H26  1  0.20644228  0.70138949  0.50171093  1.0
  H  H27  1  0.24383678  0.81244950  0.46038966  1.0
  H  H28  1  0.34359901  0.68284360  0.59372873  1.0
  H  H29  1  0.28159798  0.78845818  0.61770710  1.0
  H  H30  1  0.69366282  0.09823933  0.25065169  1.0
  H  H31  1  0.35847839  0.83809250  0.70799418  1.0
  H  H32  1  0.26514649  0.18299922  0.61735003  1.0
  H  H33  1  0.58477485  0.82648608  0.26590376  1.0
  C  C34  1  0.51365641  0.51677158  0.34123580  1.0
  C  C35  1  0.48883490  0.52464030  0.67699755  1.0
  C  C36  1  0.50273240  0.50754560  0.96156133  1.0
  C  C37  1  0.50995373  0.50312343  0.05539741  1.0
  C  C38  1  0.41519475  0.49510454  0.92279302  1.0
  C  C39  1  0.59787405  0.51426994  0.09401850  1.0
  C  C40  1  0.67278426  0.52613577  0.94507412  1.0
  C  C41  1  0.34061315  0.48106939  0.07200253  1.0
  C  C42  1  0.68100429  0.51695248  0.03535237  1.0
  C  C43  1  0.33259767  0.48663704  0.98158027  1.0
  C  C44  1  0.44879403  0.19517612  0.56209758  1.0
  C  C45  1  0.54874702  0.80476275  0.44638281  1.0
  C  C46  1  0.55966365  0.19288155  0.43873564  1.0
  C  C47  1  0.41227630  0.80544765  0.54217163  1.0
  C  C48  1  0.54150009  0.09781777  0.42380479  1.0
  C  C49  1  0.41598223  0.90413267  0.55040147  1.0
  C  C50  1  0.42253576  0.10215396  0.54800487  1.0
  C  C51  1  0.53350086  0.90023080  0.42572058  1.0
  C  C52  1  0.47717641  0.05103614  0.48358682  1.0
  C  C53  1  0.47297415  0.95171636  0.48477740  1.0
  C  C54  1  0.58374660  0.04530043  0.35099717  1.0
  C  C55  1  0.36025545  0.95749265  0.61432816  1.0
  C  C56  1  0.35299336  0.05430818  0.60377865  1.0
  C  C57  1  0.57917202  0.94919707  0.35194427  1.0
  C  C58  1  0.32514242  0.47056795  0.50229563  1.0
  C  C59  1  0.67954190  0.48826337  0.51571187  1.0
  C  C60  1  0.22490063  0.47315269  0.49630584  1.0
  C  C61  1  0.78010495  0.49295239  0.51002907  1.0
  C  C62  1  0.13938512  0.47927673  0.49461191  1.0
  C  C63  1  0.86584733  0.49297098  0.50369644  1.0
  C  C64  1  0.04583791  0.48531992  0.49494759  1.0
  C  C65  1  0.95957689  0.49033540  0.49808947  1.0
  C  C66  1  0.41291175  0.49451643  0.82933629  1.0
  C  C67  1  0.59932421  0.52266112  0.18762808  1.0
  C  C68  1  0.49221432  0.52052233  0.77647885  1.0
  C  C69  1  0.51725849  0.50765223  0.24180513  1.0
  C  C70  1  0.57684818  0.53602469  0.81405132  1.0
  C  C71  1  0.43399629  0.48760358  0.20415718  1.0
  C  C72  1  0.58472906  0.52503862  0.90600845  1.0
  C  C73  1  0.42797214  0.48849447  0.11160269  1.0
  C  C74  1  0.33379998  0.45600593  0.78141396  1.0
  C  C75  1  0.68289861  0.55596825  0.22902992  1.0
  C  C76  1  0.77617826  0.49608631  0.06653638  1.0
  C  C77  1  0.23636372  0.50112519  0.95260179  1.0
  C  C78  1  0.42630256  0.24178221  0.64915185  1.0
  C  C79  1  0.51292512  0.23924892  0.70543962  1.0
  C  C80  1  0.64162635  0.75754076  0.42513899  1.0
  C  C81  1  0.70399060  0.76730789  0.50433077  1.0
  C  C82  1  0.64404552  0.23914375  0.39446103  1.0
  C  C83  1  0.63625474  0.29679735  0.30686466  1.0
  C  C84  1  0.32552623  0.75230715  0.56703363  1.0
  C  C85  1  0.26781059  0.74352707  0.48440444  1.0
  C  C86  1  0.61709130  0.09413410  0.26549933  1.0
  C  C87  1  0.33264622  0.91174602  0.70219846  1.0
  C  C88  1  0.26453105  0.10680709  0.63218972  1.0
  C  C89  1  0.60737434  0.89975777  0.26965491  1.0
  N  N90  1  0.51243012  0.23814784  0.50617107  1.0
  N  N91  1  0.48321257  0.75925664  0.49765512  1.0
  O  O92  1  0.51176992  0.44104891  0.38541147  1.0
  O  O93  1  0.48726639  0.60548707  0.64078264  1.0
  O  O94  1  0.48875114  0.44692423  0.63907599  1.0
  O  O95  1  0.50524404  0.59899259  0.37095241  1.0
  O  O96  1  0.36517232  0.39028415  0.50562776  1.0
  O  O97  1  0.63336045  0.56470661  0.51461542  1.0
  O  O98  1  0.64729160  0.40607936  0.52190696  1.0
  O  O99  1  0.36300241  0.54948102  0.50432645  1.0
  O  O100  1  0.30936819  0.37561858  0.79457059  1.0
  O  O101  1  0.69801208  0.54592580  0.30804815  1.0
  O  O102  1  0.84920730  0.51277715  0.02390896  1.0
  O  O103  1  0.21519026  0.52941218  0.87885200  1.0
  O  O104  1  0.55954679  0.13100615  0.21824852  1.0
  O  O105  1  0.29794215  0.95119224  0.76704496  1.0
  O  O106  1  0.19208366  0.06942174  0.65738769  1.0
  O  O107  1  0.64965043  0.93746739  0.20617956  1.0
