# generated using pymatgen
data_Al2H5C10ClO10
_symmetry_space_group_name_H-M   'P 1'
_cell_length_a   6.67787428
_cell_length_b   11.61055039
_cell_length_c   16.00566334
_cell_angle_alpha   101.05194975
_cell_angle_beta   89.99937272
_cell_angle_gamma   89.99951101
_symmetry_Int_Tables_number   1
_chemical_formula_structural   Al2H5C10ClO10
_chemical_formula_sum   'Al4 H10 C20 Cl2 O20'
_cell_volume   1217.96434157
_cell_formula_units_Z   2
loop_
 _symmetry_equiv_pos_site_id
 _symmetry_equiv_pos_as_xyz
  1  'x, y, z'
loop_
 _atom_site_type_symbol
 _atom_site_label
 _atom_site_symmetry_multiplicity
 _atom_site_fract_x
 _atom_site_fract_y
 _atom_site_fract_z
 _atom_site_occupancy
  Al  Al0  1  0.01509389  0.49749245  0.49476384  1.0
  Al  Al1  1  0.98492729  0.99747610  0.99475322  1.0
  Al  Al2  1  0.51502987  0.49880553  0.49779587  1.0
  Al  Al3  1  0.48497174  0.99880975  0.99779239  1.0
  H  H4  1  0.95764808  0.69289768  0.31443041  1.0
  H  H5  1  0.04235902  0.19291255  0.81442992  1.0
  H  H6  1  0.41509043  0.73176039  0.31321653  1.0
  H  H7  1  0.58491463  0.23177496  0.81322300  1.0
  H  H8  1  0.37450145  0.76202175  0.17910223  1.0
  H  H9  1  0.62547423  0.26203152  0.67909257  1.0
  H  H10  1  0.76756501  0.64385967  0.54767691  1.0
  H  H11  1  0.23239537  0.14385787  0.04766971  1.0
  H  H12  1  0.26543175  0.35706040  0.51618597  1.0
  H  H13  1  0.73455638  0.85705006  0.01618251  1.0
  C  C14  1  0.76839740  0.36720334  0.59802707  1.0
  C  C15  1  0.23160761  0.86720324  0.09803440  1.0
  C  C16  1  0.76111420  0.35831941  0.36436970  1.0
  C  C17  1  0.23891592  0.85832557  0.86436171  1.0
  C  C18  1  0.26588080  0.62811004  0.39598298  1.0
  C  C19  1  0.73411134  0.12812020  0.89598487  1.0
  C  C20  1  0.26259773  0.64317333  0.62857748  1.0
  C  C21  1  0.73740068  0.14318991  0.12857521  1.0
  C  C22  1  0.25581233  0.71900759  0.71162944  1.0
  C  C23  1  0.74420045  0.21903511  0.21163367  1.0
  C  C24  1  0.24536738  0.78135372  0.78164691  1.0
  C  C25  1  0.75466934  0.28134696  0.28164097  1.0
  C  C26  1  0.09758558  0.72421141  0.29129993  1.0
  C  C27  1  0.90242174  0.22421245  0.79129960  1.0
  C  C28  1  0.26871151  0.70045174  0.32921130  1.0
  C  C29  1  0.73131151  0.20046046  0.82921064  1.0
  C  C30  1  0.08024229  0.78978532  0.22254241  1.0
  C  C31  1  0.91975116  0.28978981  0.72253128  1.0
  C  C32  1  0.23169539  0.80256459  0.16860285  1.0
  C  C33  1  0.76830397  0.30256643  0.66859555  1.0
  Cl  Cl34  1  0.84386817  0.84948843  0.21675629  1.0
  Cl  Cl35  1  0.15613355  0.34947037  0.71673884  1.0
  O  O36  1  0.59243255  0.38960011  0.39775163  1.0
  O  O37  1  0.40760211  0.88963312  0.89772938  1.0
  O  O38  1  0.93567095  0.39276120  0.56799243  1.0
  O  O39  1  0.06431062  0.89277785  0.06800147  1.0
  O  O40  1  0.09394299  0.61506856  0.59365208  1.0
  O  O41  1  0.90601345  0.11509689  0.09361500  1.0
  O  O42  1  0.93296163  0.38710746  0.39531642  1.0
  O  O43  1  0.06705217  0.88710351  0.89532427  1.0
  O  O44  1  0.09610808  0.59661098  0.42000618  1.0
  O  O45  1  0.90390177  0.09657978  0.91998942  1.0
  O  O46  1  0.59537699  0.39140323  0.57135271  1.0
  O  O47  1  0.40458953  0.89137628  0.07133720  1.0
  O  O48  1  0.76513424  0.56980639  0.50745274  1.0
  O  O49  1  0.23485239  0.06979625  0.00745426  1.0
  O  O50  1  0.43545697  0.60333914  0.42454150  1.0
  O  O51  1  0.56456463  0.10335617  0.92455445  1.0
  O  O52  1  0.43530605  0.61222623  0.59873983  1.0
  O  O53  1  0.56468472  0.11223434  0.09873442  1.0
  O  O54  1  0.26550198  0.42743316  0.49183802  1.0
  O  O55  1  0.73449936  0.92743287  0.99184661  1.0
