# generated using pymatgen
data_NdH20C24NO10
_symmetry_space_group_name_H-M   'P 1'
_cell_length_a   9.05084044
_cell_length_b   23.15624829
_cell_length_c   23.15312907
_cell_angle_alpha   118.29984538
_cell_angle_beta   97.50337700
_cell_angle_gamma   97.48105063
_symmetry_Int_Tables_number   1
_chemical_formula_structural   NdH20C24NO10
_chemical_formula_sum   'Nd6 H120 C144 N6 O60'
_cell_volume   4132.10294698
_cell_formula_units_Z   6
loop_
 _symmetry_equiv_pos_site_id
 _symmetry_equiv_pos_as_xyz
  1  'x, y, z'
loop_
 _atom_site_type_symbol
 _atom_site_label
 _atom_site_symmetry_multiplicity
 _atom_site_fract_x
 _atom_site_fract_y
 _atom_site_fract_z
 _atom_site_occupancy
  Nd  Nd0  1  0.35934072  0.56428798  0.55168118  1.0
  Nd  Nd1  1  0.80771098  0.44826787  0.01260692  1.0
  Nd  Nd2  1  0.79512514  0.98743283  0.43566567  1.0
  Nd  Nd3  1  0.64065712  0.43571217  0.44831928  1.0
  Nd  Nd4  1  0.19229022  0.55173289  0.98739355  1.0
  Nd  Nd5  1  0.20488087  0.01256704  0.56433329  1.0
  H  H6  1  0.21146881  0.78556380  0.66277540  1.0
  H  H7  1  0.54898270  0.33728258  0.12284710  1.0
  H  H8  1  0.42588763  0.87743967  0.21459867  1.0
  H  H9  1  0.78853076  0.21443684  0.33722406  1.0
  H  H10  1  0.45101576  0.66271540  0.87715236  1.0
  H  H11  1  0.57411258  0.12256440  0.78540431  1.0
  H  H12  1  0.89266817  0.62723522  0.48490642  1.0
  H  H13  1  0.40787113  0.51510922  0.14223264  1.0
  H  H14  1  0.26514859  0.85797406  0.37295056  1.0
  H  H15  1  0.10733363  0.37276380  0.51509304  1.0
  H  H16  1  0.59213117  0.48488987  0.85776782  1.0
  H  H17  1  0.73485112  0.14202907  0.62705141  1.0
  H  H18  1  0.80050206  0.82581021  0.58542337  1.0
  H  H19  1  0.21562345  0.41463126  0.24047713  1.0
  H  H20  1  0.97486573  0.75971838  0.17420088  1.0
  H  H21  1  0.19949600  0.17418805  0.41457307  1.0
  H  H22  1  0.78437835  0.58536819  0.75952233  1.0
  H  H23  1  0.02513646  0.24028382  0.82580160  1.0
  H  H24  1  0.65739505  0.49565186  0.24802832  1.0
  H  H25  1  0.40855234  0.75206712  0.24748412  1.0
  H  H26  1  0.16155831  0.75256937  0.50458558  1.0
  H  H27  1  0.34260812  0.50434704  0.75197165  1.0
  H  H28  1  0.59144677  0.24793516  0.75251886  1.0
  H  H29  1  0.83844115  0.24743092  0.49541589  1.0
  H  H30  1  0.82737164  0.70634363  0.39282436  1.0
  H  H31  1  0.43463351  0.60740023  0.31359703  1.0
  H  H32  1  0.12124491  0.68669090  0.29386293  1.0
  H  H33  1  0.17263139  0.29365494  0.60717309  1.0
  H  H34  1  0.56536940  0.39260101  0.68640243  1.0
  H  H35  1  0.87875704  0.31331062  0.70613905  1.0
  H  H36  1  0.51766161  0.48326483  0.32824130  1.0
  H  H37  1  0.18879474  0.67172025  0.15492542  1.0
  H  H38  1  0.03406621  0.84508632  0.51682426  1.0
  H  H39  1  0.48234044  0.51673530  0.67175866  1.0
  H  H40  1  0.81120746  0.32828325  0.84507706  1.0
  H  H41  1  0.96593401  0.15491472  0.48317872  1.0
  H  H42  1  0.81257164  0.60773299  0.27952725  1.0
  H  H43  1  0.53257540  0.72070075  0.32815308  1.0
  H  H44  1  0.20492055  0.67205884  0.39258480  1.0
  H  H45  1  0.18743524  0.39226366  0.72047121  1.0
  H  H46  1  0.46742742  0.27930058  0.67184840  1.0
  H  H47  1  0.79508089  0.32794174  0.60741617  1.0
  H  H48  1  0.08263016  0.44185355  0.46827036  1.0
  H  H49  1  0.61452710  0.53185545  0.97379189  1.0
  H  H50  1  0.64083101  0.02619832  0.55797766  1.0
  H  H51  1  0.91736855  0.55814598  0.53172960  1.0
  H  H52  1  0.38547768  0.46814574  0.02620908  1.0
  H  H53  1  0.35916968  0.97380194  0.44202180  1.0
  H  H54  1  0.22995467  0.41916504  0.43745302  1.0
  H  H55  1  0.79261136  0.56267493  0.98184754  1.0
  H  H56  1  0.81089943  0.01815630  0.58078914  1.0
  H  H57  1  0.77004378  0.58083467  0.56254644  1.0
  H  H58  1  0.20739292  0.43732618  0.01815242  1.0
  H  H59  1  0.18910051  0.98184278  0.41920882  1.0
  H  H60  1  0.79833983  0.03937345  0.69546978  1.0
  H  H61  1  0.10322821  0.30456425  0.34409061  1.0
  H  H62  1  0.75936484  0.65609000  0.96045606  1.0
  H  H63  1  0.20166049  0.96062708  0.30453119  1.0
  H  H64  1  0.89676640  0.69543478  0.65590784  1.0
  H  H65  1  0.24064091  0.34391004  0.03954239  1.0
  H  H66  1  0.86912701  0.86146819  0.75146972  1.0
  H  H67  1  0.11763438  0.24860023  0.11020720  1.0
  H  H68  1  0.00778368  0.88983882  0.13840908  1.0
  H  H69  1  0.13087307  0.13853122  0.24853075  1.0
  H  H70  1  0.88236321  0.75140054  0.88979276  1.0
  H  H71  1  0.99220860  0.11015804  0.86159139  1.0
  H  H72  1  0.63192794  0.01579039  0.76260962  1.0
  H  H73  1  0.86948940  0.23739830  0.25342901  1.0
  H  H74  1  0.61627364  0.74674676  0.98406445  1.0
  H  H75  1  0.36807512  0.98421118  0.23739235  1.0
  H  H76  1  0.13050607  0.76259968  0.74656894  1.0
  H  H77  1  0.38372406  0.25325090  0.01593350  1.0
  H  H78  1  0.66738856  0.92612699  0.79140152  1.0
  H  H79  1  0.87594975  0.20867222  0.13495277  1.0
  H  H80  1  0.74135368  0.86516160  0.07376666  1.0
  H  H81  1  0.33261364  0.07387391  0.20860096  1.0
  H  H82  1  0.12404907  0.79132723  0.86504518  1.0
  H  H83  1  0.25863960  0.13483583  0.92623582  1.0
  H  H84  1  0.28391692  0.60751731  0.71116667  1.0
  H  H85  1  0.57301768  0.28885154  0.89625789  1.0
  H  H86  1  0.67662419  0.10373255  0.39250739  1.0
  H  H87  1  0.71608078  0.39248078  0.28883128  1.0
  H  H88  1  0.42698153  0.71114980  0.10374308  1.0
  H  H89  1  0.32336930  0.89626600  0.60749106  1.0
  H  H90  1  0.96358529  0.46947638  0.60561263  1.0
  H  H91  1  0.35756557  0.39431192  0.86383570  1.0
  H  H92  1  0.49399726  0.13603628  0.53042199  1.0
  H  H93  1  0.03641489  0.53052250  0.39438582  1.0
  H  H94  1  0.64243537  0.60568817  0.13616427  1.0
  H  H95  1  0.50600059  0.86396432  0.46957848  1.0
  H  H96  1  0.84525964  0.50952386  0.66180317  1.0
  H  H97  1  0.18323196  0.33802779  0.84773192  1.0
  H  H98  1  0.33558428  0.15215405  0.49030938  1.0
  H  H99  1  0.15473994  0.49047548  0.33819629  1.0
  H  H100  1  0.81677145  0.66197351  0.15226854  1.0
  H  H101  1  0.66441357  0.84784611  0.50969109  1.0
  H  H102  1  0.94746328  0.45392882  0.67406265  1.0
  H  H103  1  0.27298533  0.32590596  0.77986633  1.0
  H  H104  1  0.49333133  0.21999845  0.54596815  1.0
  H  H105  1  0.05253468  0.54606953  0.32593581  1.0
  H  H106  1  0.72701722  0.67409640  0.22013464  1.0
  H  H107  1  0.50666762  0.78000176  0.45403231  1.0
  H  H108  1  0.08635508  0.54180020  0.78935511  1.0
  H  H109  1  0.29740641  0.21067130  0.75239098  1.0
  H  H110  1  0.54454117  0.24753432  0.45817494  1.0
  H  H111  1  0.91364337  0.45819908  0.21064435  1.0
  H  H112  1  0.70259367  0.78932898  0.24760949  1.0
  H  H113  1  0.45546052  0.75246608  0.54182653  1.0
  H  H114  1  0.01748162  0.61093472  0.79063520  1.0
  H  H115  1  0.22715385  0.20920014  0.82014599  1.0
  H  H116  1  0.40657735  0.17974114  0.38898463  1.0
  H  H117  1  0.98251684  0.38906500  0.20936426  1.0
  H  H118  1  0.77284784  0.79080156  0.17985548  1.0
  H  H119  1  0.59342273  0.82026087  0.61101584  1.0
  H  H120  1  0.21588810  0.61180503  0.79779301  1.0
  H  H121  1  0.41855140  0.20225936  0.81401782  1.0
  H  H122  1  0.60407768  0.18601273  0.38815436  1.0
  H  H123  1  0.78411122  0.38819362  0.20220595  1.0
  H  H124  1  0.58144978  0.79774139  0.18598264  1.0
  H  H125  1  0.39592129  0.81398792  0.61184611  1.0
  C  C126  1  0.58861829  0.58752721  0.40439748  1.0
  C  C127  1  0.18402568  0.59557849  0.18310285  1.0
  C  C128  1  0.00089862  0.81696179  0.41252240  1.0
  C  C129  1  0.41138710  0.41247266  0.59560248  1.0
  C  C130  1  0.81597464  0.40442246  0.81689811  1.0
  C  C131  1  0.99910531  0.18303916  0.58747908  1.0
  C  C132  1  0.10503746  0.76895830  0.62582284  1.0
  C  C133  1  0.47952480  0.37421563  0.14320810  1.0
  C  C134  1  0.33601794  0.85707131  0.23115540  1.0
  C  C135  1  0.89496101  0.23104013  0.37417663  1.0
  C  C136  1  0.52047538  0.62578283  0.85679035  1.0
  C  C137  1  0.66397955  0.14293214  0.76884657  1.0
  C  C138  1  0.92311698  0.67922655  0.52554736  1.0
  C  C139  1  0.39772208  0.47447844  0.15363722  1.0
  C  C140  1  0.24366866  0.84660490  0.32093164  1.0
  C  C141  1  0.07688235  0.32077124  0.47445160  1.0
  C  C142  1  0.60227947  0.52551990  0.84636174  1.0
  C  C143  1  0.75633044  0.15339998  0.67907134  1.0
  C  C144  1  0.15905856  0.65423916  0.56890662  1.0
  C  C145  1  0.59021809  0.43110588  0.08532053  1.0
  C  C146  1  0.50464666  0.91487187  0.34591632  1.0
  C  C147  1  0.84093904  0.34576032  0.43109335  1.0
  C  C148  1  0.40978942  0.56889419  0.91468144  1.0
  C  C149  1  0.49535220  0.08513146  0.65408616  1.0
  C  C150  1  0.00835603  0.81257187  0.63073117  1.0
  C  C151  1  0.37801653  0.36930092  0.18194131  1.0
  C  C152  1  0.19592721  0.81824602  0.18743727  1.0
  C  C153  1  0.99164095  0.18742762  0.36926980  1.0
  C  C154  1  0.62198218  0.63069904  0.81805865  1.0
  C  C155  1  0.80407002  0.18175631  0.81256420  1.0
  C  C156  1  0.06000315  0.70229457  0.57351948  1.0
  C  C157  1  0.48666190  0.42652074  0.12880098  1.0
  C  C158  1  0.35748412  0.87151033  0.29787538  1.0
  C  C159  1  0.93999445  0.29770491  0.42648049  1.0
  C  C160  1  0.51334077  0.57347809  0.87119798  1.0
  C  C161  1  0.64251336  0.12849355  0.70212659  1.0
  C  C162  1  0.67906734  0.64990075  0.42192523  1.0
  C  C163  1  0.25715492  0.57810037  0.22797215  1.0
  C  C164  1  0.02912055  0.77215903  0.35017915  1.0
  C  C165  1  0.32093370  0.35009881  0.57807272  1.0
  C  C166  1  0.74284774  0.42190019  0.77202681  1.0
  C  C167  1  0.97088225  0.22784143  0.64982232  1.0
  C  C168  1  0.87197800  0.79090693  0.58306689  1.0
  C  C169  1  0.28941710  0.41699545  0.20791889  1.0
  C  C170  1  0.08119807  0.79227833  0.20912127  1.0
  C  C171  1  0.12802269  0.20909376  0.41693257  1.0
  C  C172  1  0.71058186  0.58300649  0.79208157  1.0
  C  C173  1  0.91880215  0.20772574  0.79088171  1.0
  C  C174  1  0.83038118  0.72424309  0.53056910  1.0
  C  C175  1  0.30017539  0.46948395  0.19370909  1.0
  C  C176  1  0.10609707  0.80651232  0.27582896  1.0
  C  C177  1  0.16961849  0.27575572  0.46942834  1.0
  C  C178  1  0.69982641  0.53051680  0.80629037  1.0
  C  C179  1  0.89390203  0.19349168  0.72417402  1.0
  C  C180  1  0.66421886  0.53912535  0.29681985  1.0
  C  C181  1  0.36681387  0.70326253  0.24221284  1.0
  C  C182  1  0.12492382  0.75787667  0.46108045  1.0
  C  C183  1  0.33578269  0.46087342  0.70317911  1.0
  C  C184  1  0.63318560  0.29673949  0.75778863  1.0
  C  C185  1  0.87507924  0.24212403  0.53892152  1.0
  C  C186  1  0.94275185  0.91428501  0.70176149  1.0
  C  C187  1  0.24101321  0.29831400  0.21268577  1.0
  C  C188  1  0.02870537  0.78738345  0.08558554  1.0
  C  C189  1  0.05724524  0.08571525  0.29823746  1.0
  C  C190  1  0.75898413  0.70168565  0.78731369  1.0
  C  C191  1  0.97129619  0.21261445  0.91441342  1.0
  C  C192  1  0.75850091  0.65716914  0.37722965  1.0
  C  C193  1  0.38114697  0.62290219  0.27995485  1.0
  C  C194  1  0.10138239  0.72024198  0.34300389  1.0
  C  C195  1  0.24150262  0.34282906  0.62276881  1.0
  C  C196  1  0.61885185  0.37709726  0.72004310  1.0
  C  C197  1  0.89861845  0.27975862  0.65699809  1.0
  C  C198  1  0.58445643  0.53218250  0.34148411  1.0
  C  C199  1  0.24249449  0.65851379  0.19062945  1.0
  C  C200  1  0.05203097  0.80942743  0.46792536  1.0
  C  C201  1  0.41554538  0.46781610  0.65851536  1.0
  C  C202  1  0.75750498  0.34148823  0.80937203  1.0
  C  C203  1  0.94797148  0.19057372  0.53207762  1.0
  C  C204  1  0.75066313  0.60185008  0.31444177  1.0
  C  C205  1  0.43580755  0.68571034  0.28737361  1.0
  C  C206  1  0.14884562  0.71281595  0.39839451  1.0
  C  C207  1  0.24933903  0.39814738  0.68555618  1.0
  C  C208  1  0.56419364  0.31429041  0.71262685  1.0
  C  C209  1  0.85115608  0.28718489  0.60160697  1.0
  C  C210  1  0.01390343  0.97930339  0.64144976  1.0
  C  C211  1  0.37257880  0.35869292  0.33799110  1.0
  C  C212  1  0.03496057  0.66212615  0.02062758  1.0
  C  C213  1  0.98609452  0.02069798  0.35854869  1.0
  C  C214  1  0.62742017  0.64130687  0.66200937  1.0
  C  C215  1  0.96504320  0.33787445  0.97937137  1.0
  C  C216  1  0.49758187  0.57691370  0.44919865  1.0
  C  C217  1  0.04837203  0.55069990  0.12767474  1.0
  C  C218  1  0.92060201  0.87237783  0.42308186  1.0
  C  C219  1  0.50242565  0.42308637  0.55080333  1.0
  C  C220  1  0.95162780  0.44930141  0.87232522  1.0
  C  C221  1  0.07940440  0.12762435  0.57692012  1.0
  C  C222  1  0.92411639  0.96398880  0.68450338  1.0
  C  C223  1  0.23972721  0.31557832  0.27964684  1.0
  C  C224  1  0.96048524  0.72046879  0.03587410  1.0
  C  C225  1  0.07588318  0.03601226  0.31549608  1.0
  C  C226  1  0.76027150  0.68442165  0.72035312  1.0
  C  C227  1  0.03951530  0.27953071  0.96412285  1.0
  C  C228  1  0.81138969  0.00026114  0.70797978  1.0
  C  C229  1  0.10360488  0.29207575  0.29247333  1.0
  C  C230  1  0.81143861  0.70767343  0.99958810  1.0
  C  C231  1  0.18861039  0.99973957  0.29202069  1.0
  C  C232  1  0.89639110  0.70792360  0.70752563  1.0
  C  C233  1  0.18856219  0.29232674  0.00040935  1.0
  C  C234  1  0.85096193  0.90084178  0.73990588  1.0
  C  C235  1  0.11097962  0.26018808  0.16114300  1.0
  C  C236  1  0.95026134  0.83893383  0.09902246  1.0
  C  C237  1  0.14903591  0.09915924  0.26009458  1.0
  C  C238  1  0.88901513  0.73981389  0.83885797  1.0
  C  C239  1  0.04973417  0.16106285  0.90098002  1.0
  C  C240  1  0.71913235  0.98710526  0.74583141  1.0
  C  C241  1  0.97339025  0.25423545  0.24150973  1.0
  C  C242  1  0.73218119  0.75863806  0.01276347  1.0
  C  C243  1  0.28086934  0.01289687  0.25417006  1.0
  C  C244  1  0.02660882  0.74576295  0.75848872  1.0
  C  C245  1  0.26781059  0.24135958  0.98723599  1.0
  C  C246  1  0.73890705  0.93704610  0.76182275  1.0
  C  C247  1  0.97701925  0.23827905  0.17545680  1.0
  C  C248  1  0.80195202  0.82466169  0.06283445  1.0
  C  C249  1  0.26109079  0.06295492  0.23817771  1.0
  C  C250  1  0.02297860  0.76172198  0.82454367  1.0
  C  C251  1  0.19803792  0.17533556  0.93716803  1.0
  C  C252  1  0.18877529  0.56563555  0.67426563  1.0
  C  C253  1  0.51459450  0.32573145  0.89130741  1.0
  C  C254  1  0.62322226  0.10866176  0.43434742  1.0
  C  C255  1  0.81122403  0.43436268  0.32573333  1.0
  C  C256  1  0.48540756  0.67426955  0.10869256  1.0
  C  C257  1  0.37677098  0.89133395  0.56565053  1.0
  C  C258  1  0.95212255  0.49158338  0.65791634  1.0
  C  C259  1  0.29392304  0.34199321  0.83365194  1.0
  C  C260  1  0.46039268  0.16623144  0.50829720  1.0
  C  C261  1  0.04787651  0.50841502  0.34208211  1.0
  C  C262  1  0.70607926  0.65800804  0.16634852  1.0
  C  C263  1  0.53960628  0.83376877  0.49170326  1.0
  C  C264  1  0.10112692  0.57960563  0.77351117  1.0
  C  C265  1  0.32793008  0.22645330  0.80602541  1.0
  C  C266  1  0.52151886  0.19392177  0.42034512  1.0
  C  C267  1  0.89887154  0.42039365  0.22648829  1.0
  C  C268  1  0.67207136  0.77354772  0.19397556  1.0
  C  C269  1  0.47848147  0.80607876  0.57965585  1.0
  N  N270  1  0.08261050  0.54712197  0.70072203  1.0
  N  N271  1  0.38192063  0.29924047  0.84636111  1.0
  N  N272  1  0.53543893  0.15357377  0.45280069  1.0
  N  N273  1  0.91738883  0.45287669  0.29927693  1.0
  N  N274  1  0.61808081  0.70076140  0.15363986  1.0
  N  N275  1  0.46455730  0.84642583  0.54719877  1.0
  O  O276  1  0.10723764  0.59145785  0.52554063  1.0
  O  O277  1  0.58188781  0.47448363  0.06587643  1.0
  O  O278  1  0.51579161  0.93423073  0.40870673  1.0
  O  O279  1  0.89276193  0.40854149  0.47445883  1.0
  O  O280  1  0.41812132  0.52551743  0.93412655  1.0
  O  O281  1  0.48420846  0.06576997  0.59129373  1.0
  O  O282  1  0.29137117  0.67594985  0.60743376  1.0
  O  O283  1  0.68390512  0.39254665  0.06849949  1.0
  O  O284  1  0.61517702  0.93164474  0.32414694  1.0
  O  O285  1  0.70862556  0.32405069  0.39256671  1.0
  O  O286  1  0.31610290  0.60745393  0.93150349  1.0
  O  O287  1  0.38482083  0.06835586  0.67585353  1.0
  O  O288  1  0.69421673  0.70602393  0.48514381  1.0
  O  O289  1  0.20943165  0.51487110  0.22093482  1.0
  O  O290  1  0.98817841  0.77922275  0.29399288  1.0
  O  O291  1  0.30578542  0.29397699  0.51485414  1.0
  O  O292  1  0.79056879  0.48512805  0.77906414  1.0
  O  O293  1  0.01182268  0.22077939  0.70600960  1.0
  O  O294  1  0.05525572  0.87759705  0.68350601  1.0
  O  O295  1  0.37182784  0.31650236  0.19421459  1.0
  O  O296  1  0.17790411  0.80582789  0.12232778  1.0
  O  O297  1  0.94474189  0.12240373  0.31649396  1.0
  O  O298  1  0.62817000  0.68349736  0.80578587  1.0
  O  O299  1  0.82209571  0.19417212  0.87767218  1.0
  O  O300  1  0.49840196  0.52303297  0.45325582  1.0
  O  O301  1  0.04515213  0.54669316  0.06974701  1.0
  O  O302  1  0.97535010  0.93026959  0.47698337  1.0
  O  O303  1  0.50160070  0.47696586  0.54674314  1.0
  O  O304  1  0.95484187  0.45330849  0.93025245  1.0
  O  O305  1  0.02465332  0.06973085  0.52301709  1.0
  O  O306  1  0.98687535  0.02598289  0.62906342  1.0
  O  O307  1  0.35791417  0.37113460  0.39706106  1.0
  O  O308  1  0.96111476  0.60308166  0.97403513  1.0
  O  O309  1  0.01312718  0.97401604  0.37093303  1.0
  O  O310  1  0.64208480  0.62886475  0.60293941  1.0
  O  O311  1  0.03888804  0.39691923  0.02596634  1.0
  O  O312  1  0.18533200  0.45801336  0.46393649  1.0
  O  O313  1  0.72159081  0.53620612  0.99426522  1.0
  O  O314  1  0.72744666  0.00574045  0.54189206  1.0
  O  O315  1  0.81466833  0.54198674  0.53606448  1.0
  O  O316  1  0.27841225  0.46379674  0.00573675  1.0
  O  O317  1  0.27255439  0.99425868  0.45810589  1.0
  O  O318  1  0.11392221  0.94646310  0.61736929  1.0
  O  O319  1  0.49665636  0.38279118  0.32921856  1.0
  O  O320  1  0.16787046  0.67086995  0.05345026  1.0
  O  O321  1  0.88607589  0.05353731  0.38263168  1.0
  O  O322  1  0.50333764  0.61721004  0.67078090  1.0
  O  O323  1  0.83213195  0.32912991  0.94654819  1.0
  O  O324  1  0.41940770  0.61800813  0.48094132  1.0
  O  O325  1  0.93852553  0.51886019  0.13698710  1.0
  O  O326  1  0.80139154  0.86308882  0.38194523  1.0
  O  O327  1  0.58060280  0.38199368  0.51906217  1.0
  O  O328  1  0.06147702  0.48114044  0.86301386  1.0
  O  O329  1  0.19861594  0.13691213  0.61805222  1.0
  O  O330  1  0.18540501  0.53802222  0.61238953  1.0
  O  O331  1  0.57294073  0.38762088  0.92560014  1.0
  O  O332  1  0.64747720  0.07440403  0.46198556  1.0
  O  O333  1  0.81459294  0.46197569  0.38760892  1.0
  O  O334  1  0.42706133  0.61238099  0.07439983  1.0
  O  O335  1  0.35251453  0.92559146  0.53800937  1.0
