# generated using pymatgen
data_AlH5C10O5F2
_symmetry_space_group_name_H-M   'P 1'
_cell_length_a   6.66745812
_cell_length_b   13.55232794
_cell_length_c   16.57523790
_cell_angle_alpha   90.00220991
_cell_angle_beta   89.72220623
_cell_angle_gamma   89.65078790
_symmetry_Int_Tables_number   1
_chemical_formula_structural   AlH5C10O5F2
_chemical_formula_sum   'Al4 H20 C40 O20 F8'
_cell_volume   1497.68609250
_cell_formula_units_Z   4
loop_
 _symmetry_equiv_pos_site_id
 _symmetry_equiv_pos_as_xyz
  1  'x, y, z'
loop_
 _atom_site_type_symbol
 _atom_site_label
 _atom_site_symmetry_multiplicity
 _atom_site_fract_x
 _atom_site_fract_y
 _atom_site_fract_z
 _atom_site_occupancy
  Al  Al0  1  0.98182712  0.99721339  0.49706052  1.0
  Al  Al1  1  0.48154151  0.00167975  0.49787170  1.0
  Al  Al2  1  0.01291907  0.49755619  0.99863458  1.0
  Al  Al3  1  0.51337821  0.50194512  0.99767895  1.0
  H  H4  1  0.72761746  0.88054059  0.53381998  1.0
  H  H5  1  0.22362057  0.11516564  0.54013734  1.0
  H  H6  1  0.76671309  0.62629858  0.02260206  1.0
  H  H7  1  0.27121671  0.37476975  0.02607101  1.0
  H  H8  1  0.77965429  0.65331649  0.21015281  1.0
  H  H9  1  0.91702137  0.56719018  0.26973028  1.0
  H  H10  1  0.90916559  0.68397823  0.38707917  1.0
  H  H11  1  0.77272375  0.77201628  0.32886823  1.0
  H  H12  1  0.28263497  0.36006756  0.78789714  1.0
  H  H13  1  0.42253483  0.44328809  0.72627641  1.0
  H  H14  1  0.40079986  0.32544623  0.60939415  1.0
  H  H15  1  0.26452446  0.24062136  0.67114282  1.0
  H  H16  1  0.22971507  0.34157892  0.22198489  1.0
  H  H17  1  0.09569808  0.43292746  0.27803628  1.0
  H  H18  1  0.07640451  0.31919782  0.39714928  1.0
  H  H19  1  0.21131300  0.22648556  0.34265704  1.0
  H  H20  1  0.91607318  0.55467207  0.72652898  1.0
  H  H21  1  0.77903950  0.64128565  0.78673883  1.0
  H  H22  1  0.76349997  0.75787557  0.66795594  1.0
  H  H23  1  0.89681674  0.66970317  0.60758885  1.0
  C  C24  1  0.23143171  0.88065162  0.60759444  1.0
  C  C25  1  0.23941860  0.89141848  0.38314127  1.0
  C  C26  1  0.73408408  0.11454687  0.38786526  1.0
  C  C27  1  0.73033942  0.11265282  0.61177548  1.0
  C  C28  1  0.25409245  0.61540301  0.88882729  1.0
  C  C29  1  0.26473101  0.62146318  0.10530249  1.0
  C  C30  1  0.76706808  0.38104983  0.10747657  1.0
  C  C31  1  0.75695618  0.38239370  0.89012743  1.0
  C  C32  1  0.25446613  0.69362207  0.17302571  1.0
  C  C33  1  0.24279495  0.82835994  0.30979783  1.0
  C  C34  1  0.09725941  0.69534147  0.22899187  1.0
  C  C35  1  0.39914196  0.82937962  0.25228293  1.0
  C  C36  1  0.09234806  0.75991925  0.29440867  1.0
  C  C37  1  0.40422195  0.76433531  0.18655328  1.0
  C  C38  1  0.90281662  0.64545691  0.25333874  1.0
  C  C39  1  0.89772046  0.71907623  0.32747742  1.0
  C  C40  1  0.75273701  0.31148851  0.82159117  1.0
  C  C41  1  0.73451261  0.17666474  0.68473849  1.0
  C  C42  1  0.59638739  0.31229841  0.76574140  1.0
  C  C43  1  0.89113143  0.17378159  0.74141163  1.0
  C  C44  1  0.58689464  0.24754547  0.70065146  1.0
  C  C45  1  0.89993742  0.23842395  0.80740399  1.0
  C  C46  1  0.40394195  0.36541924  0.74316159  1.0
  C  C47  1  0.39227064  0.29128732  0.66946206  1.0
  C  C48  1  0.75910686  0.31134683  0.17679969  1.0
  C  C49  1  0.74025662  0.17972239  0.31565143  1.0
  C  C50  1  0.90671989  0.30848452  0.23640350  1.0
  C  C51  1  0.59200071  0.18075355  0.25561578  1.0
  C  C52  1  0.89751427  0.24529277  0.30258874  1.0
  C  C53  1  0.60151284  0.24388226  0.18869945  1.0
  C  C54  1  0.10292109  0.35396875  0.26319879  1.0
  C  C55  1  0.09176070  0.28216425  0.33839566  1.0
  C  C56  1  0.24903232  0.68545200  0.81974566  1.0
  C  C57  1  0.23435560  0.81705492  0.68074371  1.0
  C  C58  1  0.09346457  0.68463376  0.76359698  1.0
  C  C59  1  0.38957546  0.82032989  0.73795935  1.0
  C  C60  1  0.08565753  0.74782618  0.69739647  1.0
  C  C61  1  0.39671864  0.75723940  0.80494946  1.0
  C  C62  1  0.89982545  0.63319827  0.74199004  1.0
  C  C63  1  0.88979651  0.70556294  0.66703918  1.0
  O  O64  1  0.05900254  0.90368463  0.58042827  1.0
  O  O65  1  0.40669575  0.91961103  0.41053440  1.0
  O  O66  1  0.56435328  0.09514493  0.41877154  1.0
  O  O67  1  0.89888409  0.08931384  0.58073801  1.0
  O  O68  1  0.90373602  0.08613232  0.41392856  1.0
  O  O69  1  0.55787353  0.08979752  0.58508216  1.0
  O  O70  1  0.39997833  0.90427517  0.57718779  1.0
  O  O71  1  0.06788885  0.90884991  0.41427007  1.0
  O  O72  1  0.73071225  0.93872261  0.49973131  1.0
  O  O73  1  0.22925579  0.06011322  0.50273672  1.0
  O  O74  1  0.08705286  0.57654933  0.90751964  1.0
  O  O75  1  0.43682625  0.58760650  0.08619552  1.0
  O  O76  1  0.60269669  0.40199001  0.07261477  1.0
  O  O77  1  0.92271704  0.39834788  0.92514456  1.0
  O  O78  1  0.93963176  0.41469247  0.08932974  1.0
  O  O79  1  0.58894916  0.42212338  0.90757272  1.0
  O  O80  1  0.42122866  0.59914962  0.92293187  1.0
  O  O81  1  0.09778498  0.59925297  0.07329502  1.0
  O  O82  1  0.76422109  0.56051741  0.99964986  1.0
  O  O83  1  0.26543931  0.43920360  0.00066811  1.0
  F  F84  1  0.55047464  0.89506780  0.25706348  1.0
  F  F85  1  0.55984241  0.77408804  0.13410863  1.0
  F  F86  1  0.03984961  0.10549605  0.73556879  1.0
  F  F87  1  0.05624407  0.22597312  0.85817024  1.0
  F  F88  1  0.43523971  0.11794455  0.25888879  1.0
  F  F89  1  0.45183417  0.23479965  0.13409796  1.0
  F  F90  1  0.53818360  0.88771520  0.73173407  1.0
  F  F91  1  0.55178003  0.77019669  0.85611921  1.0
