# generated using pymatgen
data_Zn2H11C24S2N(ClO4)2
_symmetry_space_group_name_H-M   'P 1'
_cell_length_a   7.52838943
_cell_length_b   12.53744383
_cell_length_c   34.93185201
_cell_angle_alpha   89.82690235
_cell_angle_beta   89.90030419
_cell_angle_gamma   89.78071273
_symmetry_Int_Tables_number   1
_chemical_formula_structural   Zn2H11C24S2N(ClO4)2
_chemical_formula_sum   'Zn4 H22 C48 S4 N2 Cl4 O16'
_cell_volume   3297.06019848
_cell_formula_units_Z   2
loop_
 _symmetry_equiv_pos_site_id
 _symmetry_equiv_pos_as_xyz
  1  'x, y, z'
loop_
 _atom_site_type_symbol
 _atom_site_label
 _atom_site_symmetry_multiplicity
 _atom_site_fract_x
 _atom_site_fract_y
 _atom_site_fract_z
 _atom_site_occupancy
  Zn  Zn0  1  0.78498365  0.00001162  0.49988384  1.0
  Zn  Zn1  1  0.42683792  0.00004572  0.50006143  1.0
  Zn  Zn2  1  0.12421110  0.99897499  0.00002948  1.0
  Zn  Zn3  1  0.48228273  0.99746783  0.99988774  1.0
  H  H4  1  0.66056480  0.99680240  0.88218978  1.0
  H  H5  1  0.67896167  0.99712788  0.81181441  1.0
  H  H6  1  0.10519865  0.99585622  0.80725605  1.0
  H  H7  1  0.80495611  0.99811364  0.69258085  1.0
  H  H8  1  0.23116198  0.99677955  0.68822123  1.0
  H  H9  1  0.24903618  0.99657989  0.61784443  1.0
  H  H10  1  0.25096208  0.99644538  0.75000731  1.0
  H  H11  1  0.65955144  0.99809993  0.74991229  1.0
  H  H12  1  0.66010329  0.99661324  0.11752053  1.0
  H  H13  1  0.67867412  0.99744085  0.18789248  1.0
  H  H14  1  0.10492095  0.99875799  0.19291780  1.0
  H  H15  1  0.80441427  0.00261562  0.30711121  1.0
  H  H16  1  0.23067876  0.99984530  0.31195510  1.0
  H  H17  1  0.24875316  0.00024731  0.38233442  1.0
  H  H18  1  0.25058214  0.99883609  0.25003773  1.0
  H  H19  1  0.65913621  0.00073465  0.24991703  1.0
  H  H20  1  0.40528793  0.64606213  0.50146622  1.0
  H  H21  1  0.50318969  0.64348722  0.99828388  1.0
  H  H22  1  0.10369992  0.39707408  0.49527486  1.0
  H  H23  1  0.02102828  0.26755126  0.49874160  1.0
  H  H24  1  0.80518052  0.39704507  0.00480158  1.0
  H  H25  1  0.88824951  0.26733937  0.00126556  1.0
  C  C26  1  0.68089885  0.79859567  0.49982215  1.0
  C  C27  1  0.52848351  0.99752230  0.57201317  1.0
  C  C28  1  0.67584936  0.20225973  0.50057872  1.0
  C  C29  1  0.52837469  0.00121142  0.42794577  1.0
  C  C30  1  0.22749941  0.79712957  0.99998843  1.0
  C  C31  1  0.38084726  0.99645616  0.92792379  1.0
  C  C32  1  0.23332341  0.20079642  0.99943355  1.0
  C  C33  1  0.38027194  0.99727236  0.07199932  1.0
  C  C34  1  0.37729970  0.99622229  0.88526845  1.0
  C  C35  1  0.53976757  0.99661235  0.86516254  1.0
  C  C36  1  0.54896286  0.99683535  0.82559384  1.0
  C  C37  1  0.39161165  0.99668293  0.80366356  1.0
  C  C38  1  0.22905554  0.99614264  0.82339404  1.0
  C  C39  1  0.22005191  0.99588245  0.86323384  1.0
  C  C40  1  0.38500967  0.99691243  0.76204295  1.0
  C  C41  1  0.52543362  0.99756512  0.73790106  1.0
  C  C42  1  0.68099942  0.99782486  0.67648811  1.0
  C  C43  1  0.51858843  0.99748697  0.69627363  1.0
  C  C44  1  0.36107218  0.99701479  0.67439950  1.0
  C  C45  1  0.36998049  0.99691822  0.63482170  1.0
  C  C46  1  0.53229181  0.99731407  0.61466486  1.0
  C  C47  1  0.68971341  0.99775988  0.63664838  1.0
  C  C48  1  0.37686444  0.99749421  0.11467916  1.0
  C  C49  1  0.53935372  0.99722870  0.13465878  1.0
  C  C50  1  0.54864592  0.99766759  0.17422941  1.0
  C  C51  1  0.39136634  0.99835043  0.19629517  1.0
  C  C52  1  0.22877555  0.99836991  0.17668910  1.0
  C  C53  1  0.21968071  0.99800853  0.13685413  1.0
  C  C54  1  0.38467211  0.99910774  0.23792909  1.0
  C  C55  1  0.52498589  0.00028761  0.26200436  1.0
  C  C56  1  0.68046752  0.00213922  0.32329836  1.0
  C  C57  1  0.51806059  0.00102997  0.30364006  1.0
  C  C58  1  0.36061944  0.00059395  0.32566395  1.0
  C  C59  1  0.36962249  0.00092063  0.36523789  1.0
  C  C60  1  0.53196900  0.00180616  0.38526771  1.0
  C  C61  1  0.68928293  0.00262448  0.36313728  1.0
  C  C62  1  0.83141362  0.38314699  0.50049611  1.0
  C  C63  1  0.54043638  0.61512502  0.50097899  1.0
  C  C64  1  0.68057392  0.31711311  0.50102465  1.0
  C  C65  1  0.68679117  0.68153494  0.50022822  1.0
  C  C66  1  0.59221950  0.50696246  0.50104413  1.0
  C  C67  1  0.77751811  0.49250158  0.50038102  1.0
  C  C68  1  0.07743412  0.38229820  0.99942649  1.0
  C  C69  1  0.36805855  0.61310677  0.99880867  1.0
  C  C70  1  0.22842296  0.31568930  0.99887873  1.0
  C  C71  1  0.22162195  0.68010364  0.99961601  1.0
  C  C72  1  0.31641660  0.50516002  0.99877017  1.0
  C  C73  1  0.13112359  0.49143308  0.99950587  1.0
  S  S74  1  0.47969680  0.38768733  0.50200863  1.0
  S  S75  1  0.88804168  0.61273279  0.49982709  1.0
  S  S76  1  0.42915774  0.38546137  0.99778943  1.0
  S  S77  1  0.02049733  0.61214631  0.00010097  1.0
  N  N78  1  0.00155274  0.34750974  0.50101859  1.0
  N  N79  1  0.90740005  0.34726579  0.99893165  1.0
  Cl  Cl80  1  0.00787113  0.99485237  0.88222147  1.0
  Cl  Cl81  1  0.90175276  0.99833075  0.61759393  1.0
  Cl  Cl82  1  0.00742455  0.99819203  0.11806593  1.0
  Cl  Cl83  1  0.90141975  0.00441034  0.38197319  1.0
  O  O84  1  0.83181021  0.84799957  0.49965573  1.0
  O  O85  1  0.52862893  0.84255510  0.49967182  1.0
  O  O86  1  0.37544602  0.99770523  0.55518514  1.0
  O  O87  1  0.67529879  0.99748279  0.55424542  1.0
  O  O88  1  0.52455722  0.15640500  0.50055239  1.0
  O  O89  1  0.82857736  0.15169952  0.50013908  1.0
  O  O90  1  0.67528527  0.00041662  0.44554243  1.0
  O  O91  1  0.37541814  0.00117054  0.44492720  1.0
  O  O92  1  0.07660190  0.84724485  0.00014718  1.0
  O  O93  1  0.37973870  0.84041967  0.00010930  1.0
  O  O94  1  0.53384016  0.99574202  0.94478667  1.0
  O  O95  1  0.23395696  0.99739071  0.94565636  1.0
  O  O96  1  0.38467329  0.15431341  0.99955920  1.0
  O  O97  1  0.08064889  0.15087934  0.99988132  1.0
  O  O98  1  0.23331930  0.99758542  0.05442086  1.0
  O  O99  1  0.53322939  0.99673736  0.05501470  1.0
