# generated using pymatgen
data_ZnH10C11SN4O5
_symmetry_space_group_name_H-M   'P 1'
_cell_length_a   4.84999179
_cell_length_b   16.18972371
_cell_length_c   23.67345074
_cell_angle_alpha   90.00001402
_cell_angle_beta   91.08482021
_cell_angle_gamma   89.99999377
_symmetry_Int_Tables_number   1
_chemical_formula_structural   ZnH10C11SN4O5
_chemical_formula_sum   'Zn4 H40 C44 S4 N16 O20'
_cell_volume   1858.50682046
_cell_formula_units_Z   4
loop_
 _symmetry_equiv_pos_site_id
 _symmetry_equiv_pos_as_xyz
  1  'x, y, z'
loop_
 _atom_site_type_symbol
 _atom_site_label
 _atom_site_symmetry_multiplicity
 _atom_site_fract_x
 _atom_site_fract_y
 _atom_site_fract_z
 _atom_site_occupancy
  Zn  Zn0  1  0.51837426  0.51425202  0.31946467  1.0
  Zn  Zn1  1  0.98162602  0.01425210  0.18053565  1.0
  Zn  Zn2  1  0.48162615  0.48574820  0.68053552  1.0
  Zn  Zn3  1  0.01837439  0.98574812  0.81946454  1.0
  H  H4  1  0.13434571  0.96212200  0.69625273  1.0
  H  H5  1  0.36565483  0.46212151  0.80374733  1.0
  H  H6  1  0.86565676  0.03787761  0.30374747  1.0
  H  H7  1  0.63434558  0.53787810  0.19625244  1.0
  H  H8  1  0.93286186  0.87792412  0.61711915  1.0
  H  H9  1  0.56713821  0.37792429  0.88288100  1.0
  H  H10  1  0.06713855  0.12207549  0.38288104  1.0
  H  H11  1  0.43286220  0.62207594  0.11711919  1.0
  H  H12  1  0.41748954  0.75848542  0.73971347  1.0
  H  H13  1  0.08251107  0.25848554  0.76028698  1.0
  H  H14  1  0.58251293  0.24151481  0.26028715  1.0
  H  H15  1  0.91748934  0.74151468  0.23971321  1.0
  H  H16  1  0.64068465  0.84754563  0.81367082  1.0
  H  H17  1  0.85931750  0.34754510  0.68632892  1.0
  H  H18  1  0.35931577  0.15245398  0.18632895  1.0
  H  H19  1  0.14068291  0.65245451  0.31367085  1.0
  H  H20  1  0.37426440  0.72461886  0.64961131  1.0
  H  H21  1  0.12573624  0.22461902  0.85038871  1.0
  H  H22  1  0.62573601  0.27538075  0.35038888  1.0
  H  H23  1  0.87426417  0.77538059  0.14961148  1.0
  H  H24  1  0.29272736  0.65904268  0.57687668  1.0
  H  H25  1  0.20727536  0.15904286  0.92312333  1.0
  H  H26  1  0.70727305  0.34095754  0.42312308  1.0
  H  H27  1  0.79272711  0.84095736  0.07687687  1.0
  H  H28  1  0.77944296  0.73704090  0.46567381  1.0
  H  H29  1  0.72055725  0.23704094  0.03432612  1.0
  H  H30  1  0.22055746  0.26295871  0.53432596  1.0
  H  H31  1  0.27943904  0.76295867  0.96567363  1.0
  H  H32  1  0.78959755  0.66448992  0.37305792  1.0
  H  H33  1  0.71040268  0.16448999  0.12694200  1.0
  H  H34  1  0.21040493  0.33551030  0.62694228  1.0
  H  H35  1  0.28959360  0.83550961  0.87305775  1.0
  H  H36  1  0.19453249  0.49576933  0.42196898  1.0
  H  H37  1  0.30546813  0.99576916  0.07803088  1.0
  H  H38  1  0.80546999  0.50423089  0.57803122  1.0
  H  H39  1  0.69453022  0.00423107  0.92196887  1.0
  H  H40  1  0.15434437  0.56321955  0.51579502  1.0
  H  H41  1  0.34565632  0.06321912  0.98420497  1.0
  H  H42  1  0.84565604  0.43678068  0.48420517  1.0
  H  H43  1  0.65434203  0.93678049  0.01579479  1.0
  C  C44  1  0.97317439  0.91666352  0.70386193  1.0
  C  C45  1  0.52682567  0.41666366  0.79613823  1.0
  C  C46  1  0.02682602  0.08333609  0.29613826  1.0
  C  C47  1  0.47317474  0.58333657  0.20386196  1.0
  C  C48  1  0.86109451  0.87030757  0.65994477  1.0
  C  C49  1  0.63890557  0.37030710  0.84005538  1.0
  C  C50  1  0.13890384  0.12969266  0.34005541  1.0
  C  C51  1  0.36109691  0.62969251  0.15994482  1.0
  C  C52  1  0.65388618  0.81214475  0.67201646  1.0
  C  C53  1  0.84611598  0.31214489  0.82798370  1.0
  C  C54  1  0.34611836  0.18785486  0.32798375  1.0
  C  C55  1  0.15388649  0.68785534  0.17201608  1.0
  C  C56  1  0.57335971  0.80387656  0.72873163  1.0
  C  C57  1  0.92664245  0.30387667  0.77126852  1.0
  C  C58  1  0.42664070  0.19612367  0.27126898  1.0
  C  C59  1  0.07335796  0.69612355  0.22873125  1.0
  C  C60  1  0.69718438  0.85262106  0.76947697  1.0
  C  C61  1  0.80281777  0.35262055  0.73052319  1.0
  C  C62  1  0.30281603  0.14737916  0.23052322  1.0
  C  C63  1  0.19718264  0.64737906  0.26947700  1.0
  C  C64  1  0.60034380  0.74930858  0.57725671  1.0
  C  C65  1  0.89965838  0.24930875  0.92274343  1.0
  C  C66  1  0.39965661  0.25069165  0.42274348  1.0
  C  C67  1  0.10034203  0.75069086  0.07725634  1.0
  C  C68  1  0.46508581  0.65569054  0.49911242  1.0
  C  C69  1  0.03491492  0.15569057  0.00088738  1.0
  C  C70  1  0.53491460  0.34430907  0.50088777  1.0
  C  C71  1  0.96508549  0.84430904  0.99911239  1.0
  C  C72  1  0.64615933  0.68436489  0.45733165  1.0
  C  C73  1  0.85383883  0.18436493  0.04266827  1.0
  C  C74  1  0.35384108  0.31563533  0.54266854  1.0
  C  C75  1  0.14615952  0.81563468  0.95733149  1.0
  C  C76  1  0.65202732  0.64339507  0.40601548  1.0
  C  C77  1  0.84797291  0.14339450  0.09398486  1.0
  C  C78  1  0.34797309  0.35660516  0.59398471  1.0
  C  C79  1  0.15202544  0.85660510  0.90601532  1.0
  C  C80  1  0.31961506  0.54961707  0.43309479  1.0
  C  C81  1  0.18038571  0.04961712  0.06690542  1.0
  C  C82  1  0.68038741  0.45038315  0.56690541  1.0
  C  C83  1  0.81961470  0.95038249  0.93309477  1.0
  C  C84  1  0.29757854  0.58713903  0.48501207  1.0
  C  C85  1  0.20242221  0.08713845  0.01498815  1.0
  C  C86  1  0.70242187  0.41286119  0.51498812  1.0
  C  C87  1  0.79757613  0.91286116  0.98501203  1.0
  S  S88  1  0.01027363  0.40128222  0.32956658  1.0
  S  S89  1  0.48972496  0.90128207  0.17043368  1.0
  S  S90  1  0.98972678  0.59871800  0.67043361  1.0
  S  S91  1  0.51027545  0.09871815  0.82956651  1.0
  N  N92  1  0.89398003  0.90902782  0.75800637  1.0
  N  N93  1  0.60602209  0.40902794  0.74199380  1.0
  N  N94  1  0.10602038  0.09097178  0.24199340  1.0
  N  N95  1  0.39397832  0.59097228  0.25800639  1.0
  N  N96  1  0.52242237  0.76258491  0.63276918  1.0
  N  N97  1  0.97757775  0.26258506  0.86723096  1.0
  N  N98  1  0.47757804  0.23741531  0.36723101  1.0
  N  N99  1  0.02242267  0.73741516  0.13276881  1.0
  N  N100  1  0.43860739  0.68835263  0.55214320  1.0
  N  N101  1  0.06139325  0.18835220  0.94785681  1.0
  N  N102  1  0.56139302  0.31164760  0.44785699  1.0
  N  N103  1  0.93860510  0.81164741  0.05214337  1.0
  N  N104  1  0.49525694  0.57659899  0.39326737  1.0
  N  N105  1  0.00474176  0.07659968  0.10673199  1.0
  N  N106  1  0.50474347  0.42340000  0.60673240  1.0
  N  N107  1  0.99525659  0.92340054  0.89326777  1.0
  O  O108  1  0.78808373  0.78633144  0.55373395  1.0
  O  O109  1  0.71191844  0.28633163  0.94626620  1.0
  O  O110  1  0.21191875  0.21366817  0.44626583  1.0
  O  O111  1  0.28807991  0.71366798  0.05373398  1.0
  O  O112  1  0.89314011  0.47870477  0.30154205  1.0
  O  O113  1  0.60686001  0.97870526  0.19845792  1.0
  O  O114  1  0.10686236  0.52129484  0.69845815  1.0
  O  O115  1  0.39313834  0.02129496  0.80154226  1.0
  O  O116  1  0.90813606  0.32604682  0.30226157  1.0
  O  O117  1  0.59186205  0.82604670  0.19773837  1.0
  O  O118  1  0.09186435  0.67395340  0.69773820  1.0
  O  O119  1  0.40813630  0.17395291  0.80226139  1.0
  O  O120  1  0.94313739  0.40269731  0.39055522  1.0
  O  O121  1  0.55686276  0.90269777  0.10944474  1.0
  O  O122  1  0.05686302  0.59730229  0.60944497  1.0
  O  O123  1  0.44313766  0.09730245  0.89055503  1.0
  O  O124  1  0.31843346  0.40829160  0.32319108  1.0
  O  O125  1  0.18156719  0.90829208  0.17680876  1.0
  O  O126  1  0.68156696  0.59170801  0.67680868  1.0
  O  O127  1  0.81843322  0.09170815  0.82319143  1.0
