# generated using pymatgen
data_Al2H10C21O10
_symmetry_space_group_name_H-M   'P 1'
_cell_length_a   6.84683102
_cell_length_b   16.86115787
_cell_length_c   18.36554334
_cell_angle_alpha   105.73940313
_cell_angle_beta   90.42204661
_cell_angle_gamma   90.73169543
_symmetry_Int_Tables_number   1
_chemical_formula_structural   Al2H10C21O10
_chemical_formula_sum   'Al4 H20 C42 O20'
_cell_volume   2040.42698063
_cell_formula_units_Z   2
loop_
 _symmetry_equiv_pos_site_id
 _symmetry_equiv_pos_as_xyz
  1  'x, y, z'
loop_
 _atom_site_type_symbol
 _atom_site_label
 _atom_site_symmetry_multiplicity
 _atom_site_fract_x
 _atom_site_fract_y
 _atom_site_fract_z
 _atom_site_occupancy
  Al  Al0  1  0.87787644  0.50187387  0.49968797  1.0
  Al  Al1  1  0.37745213  0.50147066  0.50081467  1.0
  Al  Al2  1  0.39278263  0.00175528  0.99961606  1.0
  Al  Al3  1  0.89315101  0.00174991  0.99852012  1.0
  H  H4  1  0.43260644  0.31115499  0.31860625  1.0
  H  H5  1  0.69527791  0.14982435  0.20551674  1.0
  H  H6  1  0.69337969  0.22248177  0.15081401  1.0
  H  H7  1  0.91422339  0.73167761  0.66098786  1.0
  H  H8  1  0.91721914  0.85109064  0.77576217  1.0
  H  H9  1  0.16341110  0.80546417  0.80836779  1.0
  H  H10  1  0.24364652  0.74607974  0.86924378  1.0
  H  H11  1  0.16109478  0.67811163  0.69904997  1.0
  H  H12  1  0.51876781  0.54808437  0.74300136  1.0
  H  H13  1  0.45835952  0.43133532  0.79828555  1.0
  H  H14  1  0.13928712  0.41703369  0.85812806  1.0
  H  H15  1  0.87590366  0.51820269  0.85820400  1.0
  H  H16  1  0.93650627  0.63448856  0.80224796  1.0
  H  H17  1  0.44953453  0.19267551  0.20187360  1.0
  H  H18  1  0.67875408  0.26651817  0.32569185  1.0
  H  H19  1  0.67435023  0.33980490  0.27109887  1.0
  H  H20  1  0.62630518  0.39907042  0.50360236  1.0
  H  H21  1  0.13181355  0.60316826  0.49358786  1.0
  H  H22  1  0.64591594  0.10858349  0.00837658  1.0
  H  H23  1  0.13936091  0.89775544  0.99981732  1.0
  C  C24  1  0.62933921  0.58526871  0.41276610  1.0
  C  C25  1  0.63058476  0.61523267  0.61211038  1.0
  C  C26  1  0.12420328  0.41534434  0.58476887  1.0
  C  C27  1  0.12390831  0.38869062  0.38754220  1.0
  C  C28  1  0.96001478  0.28335236  0.27741976  1.0
  C  C29  1  0.12510657  0.31941111  0.31749109  1.0
  C  C30  1  0.30215738  0.28446203  0.28774743  1.0
  C  C31  1  0.31138989  0.21886085  0.22271467  1.0
  C  C32  1  0.14332812  0.18346061  0.18191529  1.0
  C  C33  1  0.96970526  0.21824873  0.21187248  1.0
  C  C34  1  0.75288233  0.20977207  0.20210571  1.0
  C  C35  1  0.74150572  0.28315943  0.27698284  1.0
  C  C36  1  0.14466351  0.13115551  0.85613998  1.0
  C  C37  1  0.13983816  0.17211617  0.81023665  1.0
  C  C38  1  0.13436451  0.21802823  0.76106113  1.0
  C  C39  1  0.12900632  0.26185635  0.71712820  1.0
  C  C40  1  0.12467085  0.31157554  0.67127774  1.0
  C  C41  1  0.12243429  0.35897277  0.63113601  1.0
  C  C42  1  0.62825250  0.63593151  0.36096265  1.0
  C  C43  1  0.62938280  0.68023966  0.31785672  1.0
  C  C44  1  0.63158051  0.72877787  0.27084509  1.0
  C  C45  1  0.63484920  0.77345024  0.22760288  1.0
  C  C46  1  0.63827328  0.82176041  0.18037243  1.0
  C  C47  1  0.64136591  0.86581136  0.13706068  1.0
  C  C48  1  0.47164512  0.70333358  0.72977347  1.0
  C  C49  1  0.63032904  0.68608512  0.68106854  1.0
  C  C50  1  0.79024231  0.74197845  0.69906844  1.0
  C  C51  1  0.79182865  0.80904825  0.76317297  1.0
  C  C52  1  0.63207862  0.82535024  0.81274305  1.0
  C  C53  1  0.47174618  0.77215170  0.79255661  1.0
  C  C54  1  0.26503101  0.75772465  0.81385257  1.0
  C  C55  1  0.26535638  0.67674184  0.74448520  1.0
  C  C56  1  0.63790852  0.89264954  0.88424298  1.0
  C  C57  1  0.64129354  0.91638571  0.08513333  1.0
  C  C58  1  0.14802313  0.11414546  0.11211742  1.0
  C  C59  1  0.14506630  0.08424779  0.91098420  1.0
  C  C60  1  0.23254010  0.59973765  0.76963085  1.0
  C  C61  1  0.37778591  0.54182962  0.76833558  1.0
  C  C62  1  0.34393630  0.47621058  0.79988317  1.0
  C  C63  1  0.16475643  0.46780295  0.83294955  1.0
  C  C64  1  0.01707236  0.52436921  0.83289838  1.0
  C  C65  1  0.05073411  0.58953569  0.80123115  1.0
  O  O66  1  0.46280682  0.58544807  0.58763756  1.0
  O  O67  1  0.79679535  0.56381000  0.43062983  1.0
  O  O68  1  0.95760019  0.41357574  0.41489806  1.0
  O  O69  1  0.79559407  0.59144288  0.58288225  1.0
  O  O70  1  0.95818258  0.43889034  0.56753622  1.0
  O  O71  1  0.46327995  0.56797673  0.43580766  1.0
  O  O72  1  0.62670833  0.45270278  0.49369575  1.0
  O  O73  1  0.29185536  0.43490402  0.56491167  1.0
  O  O74  1  0.29084571  0.41670478  0.41490216  1.0
  O  O75  1  0.12914251  0.55109047  0.50650387  1.0
  O  O76  1  0.80779254  0.93415777  0.06274455  1.0
  O  O77  1  0.47370167  0.91550051  0.91472806  1.0
  O  O78  1  0.31167335  0.06544529  0.93210750  1.0
  O  O79  1  0.47388342  0.93728191  0.06665426  1.0
  O  O80  1  0.31431438  0.08865178  0.08523209  1.0
  O  O81  1  0.80641566  0.91947070  0.91046333  1.0
  O  O82  1  0.64441306  0.05071794  0.00691070  1.0
  O  O83  1  0.98105430  0.08669907  0.08410878  1.0
  O  O84  1  0.97773880  0.06724322  0.93305572  1.0
  O  O85  1  0.14128048  0.95244445  0.99219539  1.0
