# generated using pymatgen
data_Zn3H16C50(I2O3)4
_symmetry_space_group_name_H-M   'P 1'
_cell_length_a   21.94335609
_cell_length_b   21.94402096
_cell_length_c   21.94588333
_cell_angle_alpha   61.10409751
_cell_angle_beta   88.07177041
_cell_angle_gamma   118.89076279
_symmetry_Int_Tables_number   1
_chemical_formula_structural   Zn3H16C50(I2O3)4
_chemical_formula_sum   'Zn6 H32 C100 I16 O24'
_cell_volume   7592.66039350
_cell_formula_units_Z   2
loop_
 _symmetry_equiv_pos_site_id
 _symmetry_equiv_pos_as_xyz
  1  'x, y, z'
loop_
 _atom_site_type_symbol
 _atom_site_label
 _atom_site_symmetry_multiplicity
 _atom_site_fract_x
 _atom_site_fract_y
 _atom_site_fract_z
 _atom_site_occupancy
  Zn  Zn0  1  0.94279276  0.44278653  0.49999650  1.0
  Zn  Zn1  1  0.04156437  0.99999829  0.95843523  1.0
  Zn  Zn2  1  0.95842621  0.99998983  0.04156685  1.0
  Zn  Zn3  1  0.49998772  0.44278254  0.05721104  1.0
  Zn  Zn4  1  0.05720831  0.55720388  0.50001205  1.0
  Zn  Zn5  1  0.49999887  0.55721448  0.94278713  1.0
  H  H6  1  0.18457864  0.50486370  0.10012810  1.0
  H  H7  1  0.67950068  0.28471114  0.81518449  1.0
  H  H8  1  0.39503332  0.49517733  0.32028665  1.0
  H  H9  1  0.90009614  0.71529400  0.60518657  1.0
  H  H10  1  0.60498011  0.28469249  0.89986645  1.0
  H  H11  1  0.09991097  0.49472938  0.18478928  1.0
  H  H12  1  0.81546736  0.71531475  0.67973313  1.0
  H  H13  1  0.32048011  0.50531023  0.39479350  1.0
  H  H14  1  0.21669875  0.27221741  0.66242498  1.0
  H  H15  1  0.94451358  0.87824199  0.78378682  1.0
  H  H16  1  0.06554801  0.72781214  0.05556274  1.0
  H  H17  1  0.33796268  0.12168418  0.93383250  1.0
  H  H18  1  0.93451053  0.87900303  0.33761960  1.0
  H  H19  1  0.66200780  0.72832226  0.21618684  1.0
  H  H20  1  0.78327780  0.12092701  0.94445192  1.0
  H  H21  1  0.05549481  0.27180105  0.06614359  1.0
  H  H22  1  0.83368223  0.27525006  0.86287682  1.0
  H  H23  1  0.55829838  0.69729424  0.16552263  1.0
  H  H24  1  0.86179238  0.72468545  0.44151688  1.0
  H  H25  1  0.13716999  0.30282486  0.13884125  1.0
  H  H26  1  0.13826846  0.69666552  0.13716414  1.0
  H  H27  1  0.86282857  0.72386404  0.83444912  1.0
  H  H28  1  0.16630466  0.30338372  0.55850508  1.0
  H  H29  1  0.44169536  0.27605833  0.86113853  1.0
  H  H30  1  0.13515126  0.20590364  0.78762097  1.0
  H  H31  1  0.92931324  0.92230357  0.86496765  1.0
  H  H32  1  0.00661812  0.79412049  0.07074100  1.0
  H  H33  1  0.21271690  0.07766980  0.99303094  1.0
  H  H34  1  0.99342973  0.92270231  0.21241229  1.0
  H  H35  1  0.78725453  0.79428072  0.13502176  1.0
  H  H36  1  0.86481640  0.07724606  0.92924270  1.0
  H  H37  1  0.07069668  0.20576559  0.00694248  1.0
  C  C38  1  0.00000783  0.37930996  0.62070305  1.0
  C  C39  1  0.89673836  0.83458923  0.83497353  1.0
  C  C40  1  0.41634718  0.49999068  0.08369532  1.0
  C  C41  1  0.08361551  0.49996544  0.41633926  1.0
  C  C42  1  0.58368501  0.50001139  0.91634029  1.0
  C  C43  1  0.91632465  0.49999933  0.58363699  1.0
  C  C44  1  0.37749088  0.49155766  0.19916889  1.0
  C  C45  1  0.88600616  0.57660418  0.62260552  1.0
  C  C46  1  0.30932341  0.50847333  0.11408526  1.0
  C  C47  1  0.80074457  0.42341291  0.69054271  1.0
  C  C48  1  0.69073512  0.57664323  0.80085782  1.0
  C  C49  1  0.06151835  0.73125047  0.10332748  1.0
  C  C50  1  0.19921599  0.50866501  0.37734500  1.0
  C  C51  1  0.62256458  0.42339209  0.88594007  1.0
  C  C52  1  0.11396629  0.49134023  0.30941111  1.0
  C  C53  1  0.33042210  0.16533772  0.93794263  1.0
  C  C54  1  0.36698162  0.50001525  0.13305947  1.0
  C  C55  1  0.86694302  0.50000233  0.63299612  1.0
  C  C56  1  0.63308178  0.50001995  0.86697448  1.0
  C  C57  1  0.13300304  0.49998625  0.36696016  1.0
  C  C58  1  0.25966566  0.50365889  0.16188313  1.0
  C  C59  1  0.93853190  0.83524717  0.33017251  1.0
  C  C60  1  0.75591155  0.42155173  0.74021039  1.0
  C  C61  1  0.33448027  0.49635745  0.24400056  1.0
  C  C62  1  0.83821733  0.57846023  0.66560314  1.0
  C  C63  1  0.66554547  0.42154546  0.83812547  1.0
  C  C64  1  0.16177156  0.49616091  0.25976233  1.0
  C  C65  1  0.74036881  0.57848108  0.75601222  1.0
  C  C66  1  0.24407142  0.50386007  0.33436879  1.0
  C  C67  1  0.66954629  0.73172008  0.16500645  1.0
  C  C68  1  0.27356287  0.50000837  0.22644663  1.0
  C  C69  1  0.77356358  0.50000683  0.72642223  1.0
  C  C70  1  0.72645543  0.50000698  0.77355800  1.0
  C  C71  1  0.22643373  0.50001171  0.27355879  1.0
  C  C72  1  0.83450622  0.16470102  0.89670454  1.0
  C  C73  1  0.19587881  0.50244488  0.14890237  1.0
  C  C74  1  0.69327428  0.34478843  0.80392982  1.0
  C  C75  1  0.34866709  0.49757945  0.30656936  1.0
  C  C76  1  0.85127956  0.65522718  0.65149370  1.0
  C  C77  1  0.65133964  0.34477857  0.85109245  1.0
  C  C78  1  0.14872820  0.49723569  0.19604976  1.0
  C  C79  1  0.80415232  0.65523947  0.69343952  1.0
  C  C80  1  0.10325911  0.26836537  0.06203648  1.0
  C  C81  1  0.30671522  0.50278992  0.34849349  1.0
  C  C82  1  0.07846268  0.29388182  0.61646667  1.0
  C  C83  1  0.16547129  0.26874716  0.66986628  1.0
  C  C84  1  0.78447018  0.69433672  0.92202764  1.0
  C  C85  1  0.08974649  0.70615594  0.21546909  1.0
  C  C86  1  0.38364419  0.30562160  0.90991809  1.0
  C  C87  1  0.91028790  0.69485492  0.38354143  1.0
  C  C88  1  0.61635559  0.70650275  0.07795835  1.0
  C  C89  1  0.92152235  0.30510135  0.78456165  1.0
  C  C90  1  0.21551915  0.29355969  0.09006094  1.0
  C  C91  1  0.13973648  0.29160911  0.60942658  1.0
  C  C92  1  0.84806852  0.74837700  0.86085508  1.0
  C  C93  1  0.09910302  0.70842221  0.15193556  1.0
  C  C94  1  0.39077141  0.25155158  0.90039595  1.0
  C  C95  1  0.90095005  0.74906181  0.39059953  1.0
  C  C96  1  0.60921700  0.70893133  0.13912752  1.0
  C  C97  1  0.86024499  0.25088337  0.84809511  1.0
  C  C98  1  0.15192942  0.29117024  0.09957767  1.0
  C  C99  1  0.62065618  0.62066177  0.99999189  1.0
  C  C100  1  0.12109371  0.23349528  0.73887288  1.0
  C  C101  1  0.88763667  0.85941391  0.87918244  1.0
  C  C102  1  0.02775627  0.76652079  0.11241617  1.0
  C  C103  1  0.26138925  0.14054333  0.97183663  1.0
  C  C104  1  0.97229741  0.85990134  0.26115725  1.0
  C  C105  1  0.00001341  0.62071079  0.37930454  1.0
  C  C106  1  0.73858557  0.76681724  0.12080476  1.0
  C  C107  1  0.87887897  0.14005541  0.88758807  1.0
  C  C108  1  0.11236764  0.23323655  0.02814101  1.0
  C  C109  1  0.37933478  0.37934568  0.99999419  1.0
  C  C110  1  0.05523833  0.23158040  0.74777821  1.0
  C  C111  1  0.82365224  0.80267679  0.94495369  1.0
  C  C112  1  0.02072341  0.76844208  0.17634008  1.0
  C  C113  1  0.25236242  0.19729628  0.97904983  1.0
  C  C114  1  0.97932749  0.80298768  0.25223286  1.0
  C  C115  1  0.74762752  0.76859816  0.05504602  1.0
  C  C116  1  0.94473560  0.19699090  0.82366447  1.0
  C  C117  1  0.17634143  0.23142699  0.02092472  1.0
  C  C118  1  0.04276330  0.28041640  0.68240224  1.0
  C  C119  1  0.76230269  0.72483010  0.95748198  1.0
  C  C120  1  0.03725624  0.71961650  0.23766579  1.0
  C  C121  1  0.31768956  0.27515463  0.96254360  1.0
  C  C122  1  0.96278783  0.72512917  0.31760480  1.0
  C  C123  1  0.68230673  0.71978192  0.04251434  1.0
  C  C124  1  0.95722425  0.27485066  0.76234832  1.0
  C  C125  1  0.23769452  0.28023997  0.03743531  1.0
  C  C126  1  0.99998367  0.18253062  0.81747571  1.0
  C  C127  1  0.81740710  0.81740136  0.00000080  1.0
  C  C128  1  0.00002204  0.81746530  0.18252841  1.0
  C  C129  1  0.18259008  0.18259801  0.99998937  1.0
  C  C130  1  0.00000103  0.31033773  0.68967617  1.0
  C  C131  1  0.68962710  0.68963435  0.99999059  1.0
  C  C132  1  0.00002493  0.68967940  0.31033501  1.0
  C  C133  1  0.31037361  0.31038257  0.99998985  1.0
  C  C134  1  0.88428629  0.88428508  0.99999844  1.0
  C  C135  1  0.00000828  0.88432199  0.11566763  1.0
  C  C136  1  0.11570740  0.11571457  0.99999481  1.0
  C  C137  1  0.99998769  0.11566592  0.88433288  1.0
  I  I138  1  0.46091428  0.47564919  0.23352615  1.0
  I  I139  1  0.98543719  0.69439557  0.53934602  1.0
  I  I140  1  0.29088037  0.52440556  0.01475234  1.0
  I  I141  1  0.76619563  0.30561850  0.70888586  1.0
  I  I142  1  0.70918477  0.69442719  0.76649784  1.0
  I  I143  1  0.23376765  0.52488276  0.46057948  1.0
  I  I144  1  0.53914132  0.30560661  0.98526680  1.0
  I  I145  1  0.01452010  0.47515522  0.29106337  1.0
  I  I146  1  0.02580930  0.28799717  0.53938666  1.0
  I  I147  1  0.73756736  0.56451714  0.97494568  1.0
  I  I148  1  0.17270700  0.71209363  0.26226060  1.0
  I  I149  1  0.46056306  0.43542629  0.82701454  1.0
  I  I150  1  0.82733081  0.56511373  0.46059808  1.0
  I  I151  1  0.53946322  0.71252153  0.02504153  1.0
  I  I152  1  0.97418325  0.43484189  0.73779500  1.0
  I  I153  1  0.26241590  0.28756635  0.17296648  1.0
  O  O154  1  0.94241727  0.35610937  0.60242557  1.0
  O  O155  1  0.58627419  0.54479186  0.05758057  1.0
  O  O156  1  0.04148702  0.64390486  0.41370297  1.0
  O  O157  1  0.39761379  0.45522147  0.95850170  1.0
  O  O158  1  0.95853413  0.54484877  0.39757622  1.0
  O  O159  1  0.60238534  0.64388098  0.94239331  1.0
  O  O160  1  0.05760952  0.45518266  0.58630168  1.0
  O  O161  1  0.41371063  0.35613157  0.04148549  1.0
  O  O162  1  0.01411618  0.44343616  0.44173009  1.0
  O  O163  1  0.57069301  0.45589942  0.98583847  1.0
  O  O164  1  0.11474991  0.55649130  0.42931940  1.0
  O  O165  1  0.55828716  0.54412136  0.88519292  1.0
  O  O166  1  0.88520646  0.45588993  0.55824932  1.0
  O  O167  1  0.44173997  0.55651434  0.01418972  1.0
  O  O168  1  0.98583311  0.54411438  0.57067352  1.0
  O  O169  1  0.42931205  0.44345652  0.11483502  1.0
  O  O170  1  0.87537695  0.92582357  0.02074171  1.0
  O  O171  1  0.94956347  0.89615757  0.12457213  1.0
  O  O172  1  0.05342394  0.07416887  0.05043461  1.0
  O  O173  1  0.97923732  0.10382293  0.94661046  1.0
  O  O174  1  0.94657222  0.89612488  0.97926082  1.0
  O  O175  1  0.02073226  0.07413162  0.87542926  1.0
  O  O176  1  0.12460694  0.10387253  0.94955554  1.0
  O  O177  1  0.05044414  0.92585147  0.05338595  1.0
