# generated using pymatgen
data_ZnH7C25I2N2ClO6
_symmetry_space_group_name_H-M   'P 1'
_cell_length_a   12.71014726
_cell_length_b   13.90705807
_cell_length_c   28.07517348
_cell_angle_alpha   89.86645150
_cell_angle_beta   87.59600319
_cell_angle_gamma   85.90072805
_symmetry_Int_Tables_number   1
_chemical_formula_structural   ZnH7C25I2N2ClO6
_chemical_formula_sum   'Zn2 H14 C50 I4 N4 Cl2 O12'
_cell_volume   4945.53557751
_cell_formula_units_Z   2
loop_
 _symmetry_equiv_pos_site_id
 _symmetry_equiv_pos_as_xyz
  1  'x, y, z'
loop_
 _atom_site_type_symbol
 _atom_site_label
 _atom_site_symmetry_multiplicity
 _atom_site_fract_x
 _atom_site_fract_y
 _atom_site_fract_z
 _atom_site_occupancy
  Zn  Zn0  1  0.60865662  0.50693168  0.49631805  1.0
  Zn  Zn1  1  0.39245282  0.49339712  0.50336812  1.0
  H  H2  1  0.65554382  0.41784496  0.74019888  1.0
  H  H3  1  0.61349738  0.56899386  0.24993632  1.0
  H  H4  1  0.52393237  0.25908670  0.87656647  1.0
  H  H5  1  0.40843513  0.73966443  0.12462519  1.0
  H  H6  1  0.34087399  0.43874192  0.35830709  1.0
  H  H7  1  0.35739070  0.57124141  0.65234292  1.0
  H  H8  1  0.32107242  0.43323160  0.27011074  1.0
  H  H9  1  0.35254548  0.57742099  0.74140373  1.0
  H  H10  1  0.43955129  0.26076961  0.12355411  1.0
  H  H11  1  0.50879384  0.73817662  0.87887486  1.0
  H  H12  1  0.44130933  0.26023101  0.03583385  1.0
  H  H13  1  0.49467491  0.73876559  0.96669238  1.0
  H  H14  1  0.62284491  0.97782415  0.49683358  1.0
  H  H15  1  0.38120294  0.02281005  0.50443760  1.0
  C  C16  1  0.53978145  0.31456581  0.49911123  1.0
  C  C17  1  0.46328479  0.68604460  0.50109403  1.0
  C  C18  1  0.50619317  0.49745339  0.59242831  1.0
  C  C19  1  0.49236925  0.50147981  0.40749583  1.0
  C  C20  1  0.50020423  0.40879852  0.82031232  1.0
  C  C21  1  0.44609912  0.59089940  0.18089430  1.0
  C  C22  1  0.50084852  0.58868888  0.82061095  1.0
  C  C23  1  0.45696930  0.41051794  0.18093578  1.0
  C  C24  1  0.41992676  0.54207475  0.72158488  1.0
  C  C25  1  0.38902068  0.46382890  0.28498546  1.0
  C  C26  1  0.42306599  0.53910047  0.67207117  1.0
  C  C27  1  0.40052940  0.46631576  0.33393858  1.0
  C  C28  1  0.59369844  0.45135974  0.67106283  1.0
  C  C29  1  0.56582595  0.54013188  0.32307152  1.0
  C  C30  1  0.59126431  0.45321273  0.72082454  1.0
  C  C31  1  0.55447317  0.53914669  0.27378899  1.0
  C  C32  1  0.50456206  0.49884087  0.74570536  1.0
  C  C33  1  0.46653573  0.50093357  0.25507815  1.0
  C  C34  1  0.48739470  0.49896463  0.89872016  1.0
  C  C35  1  0.45428433  0.50034843  0.10270089  1.0
  C  C36  1  0.49672446  0.41128924  0.87309600  1.0
  C  C37  1  0.44394270  0.58819950  0.12817360  1.0
  C  C38  1  0.50953816  0.32504336  0.89740823  1.0
  C  C39  1  0.42472837  0.67380791  0.10385337  1.0
  C  C40  1  0.49305510  0.58656250  0.87334981  1.0
  C  C41  1  0.45409547  0.41270299  0.12832829  1.0
  C  C42  1  0.50972828  0.49473041  0.64587145  1.0
  C  C43  1  0.48841700  0.50374779  0.35405993  1.0
  C  C44  1  0.46705732  0.41063696  0.02689698  1.0
  C  C45  1  0.46894014  0.58815639  0.97456406  1.0
  C  C46  1  0.45144085  0.59146150  0.02636488  1.0
  C  C47  1  0.48265668  0.40710284  0.97498032  1.0
  C  C48  1  0.46015044  0.50131839  0.05166951  1.0
  C  C49  1  0.47693120  0.49755298  0.94971366  1.0
  C  C50  1  0.45118601  0.32761443  0.05390324  1.0
  C  C51  1  0.48707173  0.67144264  0.94812559  1.0
  C  C52  1  0.44742239  0.32735967  0.10360166  1.0
  C  C53  1  0.49722335  0.67178686  0.89849251  1.0
  C  C54  1  0.50869831  0.32296994  0.94737204  1.0
  C  C55  1  0.42298967  0.67517772  0.05393133  1.0
  C  C56  1  0.45254464  0.78996038  0.50196743  1.0
  C  C57  1  0.55079726  0.21065951  0.49914650  1.0
  C  C58  1  0.45568393  0.97824416  0.50203946  1.0
  C  C59  1  0.54833069  0.02233405  0.49917925  1.0
  C  C60  1  0.55134766  0.12287473  0.49924301  1.0
  C  C61  1  0.45248200  0.87771888  0.50218810  1.0
  C  C62  1  0.96973069  0.52838714  0.48313718  1.0
  C  C63  1  0.02998147  0.47543962  0.51445139  1.0
  C  C64  1  0.14128983  0.47473745  0.51124911  1.0
  C  C65  1  0.85849954  0.52830425  0.48654414  1.0
  I  I66  1  0.72251227  0.37038311  0.63730482  1.0
  I  I67  1  0.70003965  0.60547412  0.34593084  1.0
  I  I68  1  0.56871787  0.18558943  0.97166518  1.0
  I  I69  1  0.35621737  0.80950159  0.02895996  1.0
  N  N70  1  0.50167990  0.49880690  0.79708017  1.0
  N  N71  1  0.45692945  0.50074102  0.20409396  1.0
  N  N72  1  0.76718851  0.52787899  0.48925643  1.0
  N  N73  1  0.23276280  0.47378442  0.50890896  1.0
  Cl  Cl74  1  0.97591570  0.40902499  0.55890140  1.0
  Cl  Cl75  1  0.02279420  0.59615809  0.43897374  1.0
  O  O76  1  0.62296630  0.35958818  0.50284173  1.0
  O  O77  1  0.38084739  0.64096062  0.51021707  1.0
  O  O78  1  0.44560805  0.35147391  0.49533523  1.0
  O  O79  1  0.55636374  0.64914483  0.49109234  1.0
  O  O80  1  0.58997739  0.51697486  0.56921671  1.0
  O  O81  1  0.40366535  0.50939162  0.43062383  1.0
  O  O82  1  0.41801374  0.48202558  0.57508486  1.0
  O  O83  1  0.58258823  0.49034849  0.42534083  1.0
  O  O84  1  0.50150921  0.33318739  0.79765764  1.0
  O  O85  1  0.43984028  0.66666667  0.20356900  1.0
  O  O86  1  0.46101425  0.33494125  0.20376135  1.0
  O  O87  1  0.50605484  0.66387885  0.79783940  1.0
