# generated using pymatgen
data_Zn2H30C39BrN3O8
_symmetry_space_group_name_H-M   'P 1'
_cell_length_a   10.89900378
_cell_length_b   12.45892143
_cell_length_c   13.58041352
_cell_angle_alpha   79.85876488
_cell_angle_beta   88.14142322
_cell_angle_gamma   76.49315630
_symmetry_Int_Tables_number   1
_chemical_formula_structural   Zn2H30C39BrN3O8
_chemical_formula_sum   'Zn2 H30 C39 Br1 N3 O8'
_cell_volume   1764.99194679
_cell_formula_units_Z   1
loop_
 _symmetry_equiv_pos_site_id
 _symmetry_equiv_pos_as_xyz
  1  'x, y, z'
loop_
 _atom_site_type_symbol
 _atom_site_label
 _atom_site_symmetry_multiplicity
 _atom_site_fract_x
 _atom_site_fract_y
 _atom_site_fract_z
 _atom_site_occupancy
  Zn  Zn0  1  0.46817476  0.61219904  0.51066686  1.0
  Zn  Zn1  1  0.53486655  0.38578076  0.48999631  1.0
  H  H2  1  0.14914709  0.31823627  0.52663546  1.0
  H  H3  1  0.54962445  0.80517638  0.01739935  1.0
  H  H4  1  0.38756040  0.41263550  0.25256726  1.0
  H  H5  1  0.31159333  0.72495469  0.65994417  1.0
  H  H6  1  0.29782997  0.10855292  0.68668910  1.0
  H  H7  1  0.26504516  0.91391385  0.71347027  1.0
  H  H8  1  0.55264291  0.81821446  0.43832961  1.0
  H  H9  1  0.68088283  0.27804593  0.33926946  1.0
  H  H10  1  0.62955940  0.94214033  0.35694870  1.0
  H  H11  1  0.72666881  0.09647836  0.27355139  1.0
  H  H12  1  0.40527759  0.25094992  0.59807785  1.0
  H  H13  1  0.90440239  0.43268264  0.64376932  1.0
  H  H14  1  0.09831549  0.58699209  0.34506234  1.0
  H  H15  1  0.07149484  0.67524857  0.43618401  1.0
  H  H16  1  0.85858843  0.57948689  0.62742979  1.0
  H  H17  1  0.07035303  0.59512350  0.61728064  1.0
  H  H18  1  0.93308083  0.32812995  0.51672768  1.0
  H  H19  1  0.93368860  0.38608483  0.38909509  1.0
  H  H20  1  0.14888052  0.37809240  0.39927141  1.0
  H  H21  1  0.87226035  0.77039204  0.36077995  1.0
  H  H22  1  0.80430014  0.85658894  0.49078058  1.0
  H  H23  1  0.92738194  0.74564776  0.54876103  1.0
  H  H24  1  0.11107955  0.44917281  0.65988673  1.0
  H  H25  1  0.76611271  0.73467367  0.56117778  1.0
  H  H26  1  0.43138279  0.24942662  0.80095779  1.0
  H  H27  1  0.35231102  0.28348965  0.14459366  1.0
  H  H28  1  0.37578060  0.21987481  0.98239161  1.0
  H  H29  1  0.50919595  0.56446426  0.82424704  1.0
  H  H30  1  0.52952999  0.75379071  0.20328076  1.0
  H  H31  1  0.51755627  0.67663800  0.90780580  1.0
  C  C32  1  0.48375991  0.56801684  0.30722184  1.0
  C  C33  1  0.47022371  0.55320016  0.02775147  1.0
  C  C34  1  0.45295989  0.52675731  0.13323934  1.0
  C  C35  1  0.73832684  0.50461855  0.49197309  1.0
  C  C36  1  0.45495186  0.47393703  0.96487521  1.0
  C  C37  1  0.41573878  0.37453934  0.00850254  1.0
  C  C38  1  0.38824105  0.35691104  0.11296431  1.0
  C  C39  1  0.40729697  0.42881213  0.17297907  1.0
  C  C40  1  0.48038454  0.48978607  0.86178901  1.0
  C  C41  1  0.43595329  0.31143945  0.84737573  1.0
  C  C42  1  0.47879953  0.60003144  0.19546226  1.0
  C  C43  1  0.12166898  0.49868070  0.49862295  1.0
  C  C44  1  0.32803819  0.89665874  0.65126339  1.0
  C  C45  1  0.64016167  0.20853580  0.37382078  1.0
  C  C46  1  0.66493683  0.10690353  0.33753170  1.0
  C  C47  1  0.49918619  0.43494005  0.69403730  1.0
  C  C48  1  0.61013531  0.02184122  0.38388514  1.0
  C  C49  1  0.52916811  0.03895656  0.46576350  1.0
  C  C50  1  0.50657587  0.14523068  0.49688695  1.0
  C  C51  1  0.46827491  0.95477397  0.51941731  1.0
  C  C52  1  0.38526173  0.98062312  0.59966749  1.0
  C  C53  1  0.36286807  0.08950723  0.62594192  1.0
  C  C54  1  0.05994621  0.51459688  0.60041806  1.0
  C  C55  1  0.42142690  0.16867754  0.57694002  1.0
  C  C56  1  0.48800132  0.84606082  0.49675054  1.0
  C  C57  1  0.35263134  0.79307285  0.62272835  1.0
  C  C58  1  0.26096619  0.50104689  0.50223154  1.0
  C  C59  1  0.91065082  0.60667839  0.41422996  1.0
  C  C60  1  0.05554245  0.59682901  0.41819465  1.0
  C  C61  1  0.91969281  0.51006269  0.59730026  1.0
  C  C62  1  0.95976293  0.39579773  0.46373880  1.0
  C  C63  1  0.87866801  0.50710774  0.48896982  1.0
  C  C64  1  0.83516452  0.76492650  0.50966072  1.0
  C  C65  1  0.10219593  0.38988945  0.47073946  1.0
  C  C66  1  0.40624683  0.29526004  0.94775321  1.0
  C  C67  1  0.47241974  0.41056142  0.80346573  1.0
  C  C68  1  0.51072672  0.69965083  0.15355376  1.0
  C  C69  1  0.52290634  0.72736773  0.04958292  1.0
  C  C70  1  0.50465935  0.65471192  0.98812966  1.0
  Br  Br71  1  0.86682461  0.58788834  0.27334040  1.0
  N  N72  1  0.43142511  0.76911259  0.54608182  1.0
  N  N73  1  0.56425159  0.22703903  0.45108249  1.0
  N  N74  1  0.83747339  0.72002835  0.41692533  1.0
  O  O75  1  0.44193044  0.64511105  0.35845895  1.0
  O  O76  1  0.53360227  0.46600209  0.34235519  1.0
  O  O77  1  0.65870245  0.59678237  0.49174426  1.0
  O  O78  1  0.71283526  0.40863881  0.49961002  1.0
  O  O79  1  0.50572369  0.53475110  0.65793534  1.0
  O  O80  1  0.51169498  0.35517273  0.64411183  1.0
  O  O81  1  0.28759778  0.58525306  0.53035907  1.0
  O  O82  1  0.34062187  0.41907332  0.47602885  1.0
