# generated using pymatgen
data_CdH4(C2N3)2
_symmetry_space_group_name_H-M   'P 1'
_cell_length_a   13.23812954
_cell_length_b   13.23807901
_cell_length_c   13.23808757
_cell_angle_alpha   60.00002307
_cell_angle_beta   60.00007144
_cell_angle_gamma   60.00004845
_symmetry_Int_Tables_number   1
_chemical_formula_structural   CdH4(C2N3)2
_chemical_formula_sum   'Cd6 H24 C24 N36'
_cell_volume   1640.44742556
_cell_formula_units_Z   6
loop_
 _symmetry_equiv_pos_site_id
 _symmetry_equiv_pos_as_xyz
  1  'x, y, z'
loop_
 _atom_site_type_symbol
 _atom_site_label
 _atom_site_symmetry_multiplicity
 _atom_site_fract_x
 _atom_site_fract_y
 _atom_site_fract_z
 _atom_site_occupancy
  Cd  Cd0  1  0.00000000  0.00000000  0.00000000  1.0
  Cd  Cd1  1  0.49999954  0.00000006  0.50000038  1.0
  Cd  Cd2  1  0.00000026  0.50000055  0.49999953  1.0
  Cd  Cd3  1  0.99999934  0.99999977  0.50000036  1.0
  Cd  Cd4  1  0.87499952  0.87500030  0.37499997  1.0
  Cd  Cd5  1  0.12499995  0.12500044  0.62500034  1.0
  H  H6  1  0.70017526  0.15635963  0.98710604  1.0
  H  H7  1  0.48710641  0.15635922  0.20017503  1.0
  H  H8  1  0.15635865  0.48710642  0.65635976  1.0
  H  H9  1  0.15635899  0.70017547  0.65636016  1.0
  H  H10  1  0.15635874  0.15635986  0.98710571  1.0
  H  H11  1  0.15635933  0.15635972  0.20017557  1.0
  H  H12  1  0.48710519  0.70017497  0.65636006  1.0
  H  H13  1  0.70017492  0.48710434  0.65636038  1.0
  H  H14  1  0.15635880  0.70017568  0.98710581  1.0
  H  H15  1  0.15635906  0.48710649  0.20017526  1.0
  H  H16  1  0.70017545  0.15635942  0.65635888  1.0
  H  H17  1  0.48710686  0.15635915  0.65635909  1.0
  H  H18  1  0.51289455  0.84363967  0.79982471  1.0
  H  H19  1  0.29982483  0.84363926  0.01289489  1.0
  H  H20  1  0.84364201  0.51289340  0.34364042  1.0
  H  H21  1  0.84364168  0.29982434  0.34364077  1.0
  H  H22  1  0.51289292  0.84364067  0.34364152  1.0
  H  H23  1  0.29982434  0.84364039  0.34364098  1.0
  H  H24  1  0.84364099  0.29982413  0.01289556  1.0
  H  H25  1  0.84364098  0.51289518  0.79982430  1.0
  H  H26  1  0.51289341  0.29982577  0.34364069  1.0
  H  H27  1  0.29982430  0.51289455  0.34364098  1.0
  H  H28  1  0.84364164  0.84363917  0.79982416  1.0
  H  H29  1  0.84364136  0.84363903  0.01289521  1.0
  C  C30  1  0.68950247  0.11290979  0.08467756  1.0
  C  C31  1  0.58467743  0.11291065  0.18950208  1.0
  C  C32  1  0.11290925  0.58467737  0.61291071  1.0
  C  C33  1  0.11290915  0.68950265  0.61291056  1.0
  C  C34  1  0.11291018  0.11290998  0.08467758  1.0
  C  C35  1  0.11291011  0.11291005  0.18950239  1.0
  C  C36  1  0.58467882  0.68950140  0.61291000  1.0
  C  C37  1  0.68950241  0.58467718  0.61291025  1.0
  C  C38  1  0.11290992  0.68950174  0.08467820  1.0
  C  C39  1  0.11291053  0.58467746  0.18950165  1.0
  C  C40  1  0.68950169  0.11291070  0.61290992  1.0
  C  C41  1  0.58467876  0.11291056  0.61290908  1.0
  C  C42  1  0.41532237  0.88708916  0.81049777  1.0
  C  C43  1  0.31049764  0.88708909  0.91532336  1.0
  C  C44  1  0.88709085  0.41532152  0.38708946  1.0
  C  C45  1  0.88709033  0.31049809  0.38708975  1.0
  C  C46  1  0.41532190  0.88708925  0.38709035  1.0
  C  C47  1  0.31049809  0.88708912  0.38708994  1.0
  C  C48  1  0.88709043  0.31049899  0.91532092  1.0
  C  C49  1  0.88709044  0.41532143  0.81049808  1.0
  C  C50  1  0.41532097  0.31049841  0.38709062  1.0
  C  C51  1  0.31049737  0.41532263  0.38709037  1.0
  C  C52  1  0.88709054  0.88708977  0.81049779  1.0
  C  C53  1  0.88709049  0.88708983  0.91532184  1.0
  N  N54  1  0.78874153  0.04382115  0.12361539  1.0
  N  N55  1  0.62361622  0.04382104  0.28874143  1.0
  N  N56  1  0.04382046  0.62361572  0.54382123  1.0
  N  N57  1  0.04382008  0.78874255  0.54382135  1.0
  N  N58  1  0.04382111  0.04382112  0.12361566  1.0
  N  N59  1  0.04382103  0.04382122  0.28874222  1.0
  N  N60  1  0.62361615  0.78874237  0.54382087  1.0
  N  N61  1  0.78874176  0.62361575  0.54382128  1.0
  N  N62  1  0.04382136  0.78874264  0.12361517  1.0
  N  N63  1  0.04382164  0.62361592  0.28874162  1.0
  N  N64  1  0.78874200  0.04382106  0.54382145  1.0
  N  N65  1  0.62361591  0.04382084  0.54382136  1.0
  N  N66  1  0.37638357  0.95617877  0.71125768  1.0
  N  N67  1  0.21125738  0.95617867  0.87638415  1.0
  N  N68  1  0.95617902  0.37638502  0.45617832  1.0
  N  N69  1  0.95617823  0.21125911  0.45617833  1.0
  N  N70  1  0.37638388  0.95617897  0.45617925  1.0
  N  N71  1  0.21125777  0.95617876  0.45617917  1.0
  N  N72  1  0.95617900  0.21125810  0.87638394  1.0
  N  N73  1  0.95617784  0.37638482  0.71125793  1.0
  N  N74  1  0.37638334  0.21125837  0.45617943  1.0
  N  N75  1  0.21125773  0.37638499  0.45617902  1.0
  N  N76  1  0.95617964  0.95617859  0.71125796  1.0
  N  N77  1  0.95617955  0.95617870  0.87638376  1.0
  N  N78  1  0.74710938  0.00289080  0.24710942  1.0
  N  N79  1  0.00289166  0.74710897  0.50289032  1.0
  N  N80  1  0.00289143  0.00288984  0.24710942  1.0
  N  N81  1  0.74710992  0.74710900  0.50289063  1.0
  N  N82  1  0.00289109  0.74710917  0.24710906  1.0
  N  N83  1  0.74710876  0.00289153  0.50289005  1.0
  N  N84  1  0.25289097  0.99710994  0.75289045  1.0
  N  N85  1  0.99710813  0.25289084  0.49710954  1.0
  N  N86  1  0.25289071  0.99710921  0.49710875  1.0
  N  N87  1  0.99710956  0.25289065  0.75289036  1.0
  N  N88  1  0.25289074  0.25289082  0.49710955  1.0
  N  N89  1  0.99710835  0.99710997  0.75289120  1.0
