# generated using pymatgen
data_Zn4H40C80Br13N25
_symmetry_space_group_name_H-M   'P 1'
_cell_length_a   18.99819040
_cell_length_b   19.09685910
_cell_length_c   20.49840180
_cell_angle_alpha   106.08670267
_cell_angle_beta   107.63206036
_cell_angle_gamma   111.73722364
_symmetry_Int_Tables_number   1
_chemical_formula_structural   Zn4H40C80Br13N25
_chemical_formula_sum   'Zn4 H40 C80 Br13 N25'
_cell_volume   5912.91343340
_cell_formula_units_Z   1
loop_
 _symmetry_equiv_pos_site_id
 _symmetry_equiv_pos_as_xyz
  1  'x, y, z'
loop_
 _atom_site_type_symbol
 _atom_site_label
 _atom_site_symmetry_multiplicity
 _atom_site_fract_x
 _atom_site_fract_y
 _atom_site_fract_z
 _atom_site_occupancy
  Zn  Zn0  1  0.89546400  0.89807903  0.49753200  1.0
  Zn  Zn1  1  0.11465100  0.11636838  0.50578821  1.0
  Zn  Zn2  1  0.10593264  0.00603628  0.60487931  1.0
  Zn  Zn3  1  0.90628173  0.00086612  0.39499513  1.0
  H  H4  1  0.31593101  0.17812209  0.53147725  1.0
  H  H5  1  0.89825851  0.86709231  0.25930692  1.0
  H  H6  1  0.17178751  0.02545160  0.39013899  1.0
  H  H7  1  0.87607017  0.74291709  0.36830891  1.0
  H  H8  1  0.71602562  0.86780002  0.24288638  1.0
  H  H9  1  0.30632992  0.04926063  0.67474840  1.0
  H  H10  1  0.48105310  0.24497029  0.61598679  1.0
  H  H11  1  0.14681050  0.28940482  0.47767128  1.0
  H  H12  1  0.74738454  0.31523640  0.60618083  1.0
  H  H13  1  0.74426085  0.00223442  0.60681324  1.0
  H  H14  1  0.49958790  0.95022058  0.64424253  1.0
  H  H15  1  0.12110142  0.72422432  0.40043249  1.0
  H  H16  1  0.88091166  0.61832181  0.40602803  1.0
  H  H17  1  0.81139550  0.33779700  0.36630199  1.0
  H  H18  1  0.89095487  0.26598280  0.37209650  1.0
  H  H19  1  0.10022518  0.12413683  0.74517515  1.0
  H  H20  1  0.17849430  0.63171989  0.36152187  1.0
  H  H21  1  0.38035789  0.57645106  0.18704019  1.0
  H  H22  1  0.52132166  0.68587158  0.29746947  1.0
  H  H23  1  0.17666025  0.38791342  0.72863561  1.0
  H  H24  1  0.86190743  0.13882461  0.48074435  1.0
  H  H25  1  0.62402202  0.71530747  0.13971154  1.0
  H  H26  1  0.96270960  0.90864184  0.05008321  1.0
  H  H27  1  0.84645018  0.82013104  0.73269520  1.0
  H  H28  1  0.08173926  0.79865717  0.89951044  1.0
  H  H29  1  0.10987457  0.79321008  0.11720964  1.0
  H  H30  1  0.10504143  0.27053998  0.61643794  1.0
  H  H31  1  0.86869527  0.01047339  0.62512655  1.0
  H  H32  1  0.11220721  0.94670499  0.74822418  1.0
  H  H33  1  0.69428932  0.73713180  0.38419458  1.0
  H  H34  1  0.38402065  0.93086299  0.58683743  1.0
  H  H35  1  0.32094392  0.97407621  0.58608946  1.0
  H  H36  1  0.03597671  0.18257436  0.79595290  1.0
  H  H37  1  0.08371099  0.22787837  0.89307735  1.0
  H  H38  1  0.98188341  0.00653244  0.23725862  1.0
  H  H39  1  0.94971904  0.99753808  0.14732523  1.0
  H  H40  1  0.83641815  0.79260482  0.89924936  1.0
  H  H41  1  0.78544361  0.80562933  0.82143822  1.0
  H  H42  1  0.13672198  0.86871334  0.31263962  1.0
  H  H43  1  0.16856889  0.82311587  0.25240221  1.0
  C  C44  1  0.91119151  0.84036697  0.62645814  1.0
  C  C45  1  0.01577111  0.23590013  0.38393705  1.0
  C  C46  1  0.10925038  0.22850041  0.71008305  1.0
  C  C47  1  0.84875310  0.09326825  0.56941804  1.0
  C  C48  1  0.71300693  0.77975920  0.35914536  1.0
  C  C49  1  0.29997297  0.14444330  0.56439556  1.0
  C  C50  1  0.07436882  0.83832025  0.49583567  1.0
  C  C51  1  0.96361092  0.91107546  0.30243336  1.0
  C  C52  1  0.10320080  0.99158213  0.36877303  1.0
  C  C53  1  0.94104118  0.78226860  0.41348599  1.0
  C  C54  1  0.72499580  0.84570445  0.28659878  1.0
  C  C55  1  0.08257028  0.23766597  0.43959550  1.0
  C  C56  1  0.29471003  0.07755108  0.63638082  1.0
  C  C57  1  0.66773484  0.77450343  0.28792783  1.0
  C  C58  1  0.34770277  0.11756496  0.60763410  1.0
  C  C59  1  0.00641714  0.76266320  0.43380251  1.0
  C  C60  1  0.03902057  0.93071131  0.29502960  1.0
  C  C61  1  0.44385487  0.05626402  0.61700590  1.0
  C  C62  1  0.42959587  0.12404049  0.61583652  1.0
  C  C63  1  0.49214955  0.19318217  0.61718788  1.0
  C  C64  1  0.56803453  0.19778170  0.61814925  1.0
  C  C65  1  0.58408343  0.13119686  0.62238117  1.0
  C  C66  1  0.09810300  0.14901030  0.70349588  1.0
  C  C67  1  0.52315457  0.06253331  0.62556912  1.0
  C  C68  1  0.63140647  0.26423497  0.61415440  1.0
  C  C69  1  0.70216031  0.26392841  0.61075248  1.0
  C  C70  1  0.71687075  0.19569004  0.61116046  1.0
  C  C71  1  0.65789668  0.13033111  0.61999923  1.0
  C  C72  1  0.67217205  0.06250024  0.62289510  1.0
  C  C73  1  0.61331432  0.99943542  0.63379656  1.0
  C  C74  1  0.54162069  0.99874220  0.63457255  1.0
  C  C75  1  0.78428382  0.18775087  0.60032717  1.0
  C  C76  1  0.79371709  0.11709022  0.59584970  1.0
  C  C77  1  0.86963981  0.10128781  0.51056890  1.0
  C  C78  1  0.73871221  0.05772960  0.61056114  1.0
  C  C79  1  0.06772303  0.67138420  0.39597690  1.0
  C  C80  1  0.00199896  0.68096609  0.40693242  1.0
  C  C81  1  0.93205847  0.61112401  0.39727410  1.0
  C  C82  1  0.92839168  0.53340162  0.38142557  1.0
  C  C83  1  0.99796815  0.52452565  0.37450063  1.0
  C  C84  1  0.06619313  0.59424625  0.37955866  1.0
  C  C85  1  0.85972221  0.46224890  0.37550865  1.0
  C  C86  1  0.86271699  0.39057857  0.36855209  1.0
  C  C87  1  0.93427266  0.38348208  0.36585034  1.0
  C  C88  1  0.10210530  0.22435131  0.63825184  1.0
  C  C89  1  0.00159942  0.44946510  0.36563349  1.0
  C  C90  1  0.07205496  0.43995412  0.35957384  1.0
  C  C91  1  0.13202529  0.50817163  0.35276141  1.0
  C  C92  1  0.13046951  0.58170977  0.36525650  1.0
  C  C93  1  0.94059604  0.31363194  0.36770049  1.0
  C  C94  1  0.01142746  0.30592912  0.36984023  1.0
  C  C95  1  0.07522541  0.36787631  0.36349280  1.0
  C  C96  1  0.58290960  0.71038820  0.22651188  1.0
  C  C97  1  0.57013221  0.68755641  0.15082500  1.0
  C  C98  1  0.49104481  0.62784868  0.08940916  1.0
  C  C99  1  0.87256262  0.03534922  0.58387645  1.0
  C  C100  1  0.42031786  0.58789273  0.10186186  1.0
  C  C101  1  0.43473197  0.60921820  0.17816501  1.0
  C  C102  1  0.51344013  0.66956775  0.23936903  1.0
  C  C103  1  0.19180343  0.37304817  0.91613610  1.0
  C  C104  1  0.13892815  0.29928432  0.84705056  1.0
  C  C105  1  0.24302693  0.45166338  0.91986959  1.0
  C  C106  1  0.14006473  0.30330675  0.77880696  1.0
  C  C107  1  0.17944455  0.38280247  0.78082043  1.0
  C  C108  1  0.22778838  0.45504770  0.84888498  1.0
  C  C109  1  0.96469046  0.82183096  0.75070719  1.0
  C  C110  1  0.94916948  0.15324723  0.35443159  1.0
  C  C111  1  0.02842938  0.81002176  0.79635414  1.0
  C  C112  1  0.02978227  0.80173494  0.86151038  1.0
  C  C113  1  0.96497932  0.80048542  0.88180054  1.0
  C  C114  1  0.89324218  0.79866783  0.83060960  1.0
  C  C115  1  0.89647830  0.81218171  0.76742376  1.0
  C  C116  1  0.99456204  0.89335300  0.09328437  1.0
  C  C117  1  0.99885913  0.92224878  0.16547025  1.0
  C  C118  1  0.03319802  0.84569855  0.07605840  1.0
  C  C119  1  0.04131967  0.90234164  0.22151275  1.0
  C  C120  1  0.08256488  0.85667915  0.20425318  1.0
  C  C121  1  0.04812812  0.91633626  0.70280162  1.0
  C  C122  1  0.07937788  0.82941897  0.13173638  1.0
  C  C123  1  0.97289355  0.85324533  0.69442032  1.0
  Br  Br124  1  0.79351260  0.76408925  0.57195290  1.0
  Br  Br125  1  0.17765810  0.85514242  0.56395358  1.0
  Br  Br126  1  0.61649992  0.35704653  0.61110026  1.0
  Br  Br127  1  0.86416502  0.27560421  0.59027414  1.0
  Br  Br128  1  0.63445631  0.91256263  0.64667282  1.0
  Br  Br129  1  0.76317894  0.46803987  0.37999172  1.0
  Br  Br130  1  0.16827539  0.35025572  0.36518732  1.0
  Br  Br131  1  0.21384542  0.50322577  0.31802884  1.0
  Br  Br132  1  0.18973951  0.36188478  0.00523153  1.0
  Br  Br133  1  0.48861034  0.59829815  0.99180757  1.0
  Br  Br134  1  0.27986068  0.55940935  0.84561261  1.0
  Br  Br135  1  0.11501000  0.80431183  0.76926864  1.0
  Br  Br136  1  0.83748971  0.09690916  0.27554563  1.0
  N  N137  1  0.94622643  0.89072728  0.59732727  1.0
  N  N138  1  0.22503585  0.12145182  0.56682927  1.0
  N  N139  1  0.05195847  0.89779979  0.51048997  1.0
  N  N140  1  0.98181500  0.95811166  0.37392652  1.0
  N  N141  1  0.06757912  0.00746005  0.41519277  1.0
  N  N142  1  0.96895615  0.86260081  0.45967323  1.0
  N  N143  1  0.79802904  0.88969138  0.35163803  1.0
  N  N144  1  0.22151979  0.07918431  0.61125779  1.0
  N  N145  1  0.33866973  0.52233780  0.04661989  1.0
  N  N146  1  0.31435255  0.52350063  0.98217191  1.0
  N  N147  1  0.96751167  0.81125471  0.95235334  1.0
  N  N148  1  0.05743578  0.16328415  0.44224830  1.0
  N  N149  1  0.03026155  0.81651602  0.00337801  1.0
  N  N150  1  0.08733016  0.10374300  0.63458029  1.0
  N  N151  1  0.90115227  0.05062472  0.49128076  1.0
  N  N152  1  0.08998228  0.14982019  0.59449067  1.0
  N  N153  1  0.90312856  0.01017526  0.53641306  1.0
  N  N154  1  0.97376680  0.11008919  0.38885532  1.0
  N  N155  1  0.03215087  0.93844572  0.64562207  1.0
  N  N156  1  0.79105984  0.84841836  0.39668903  1.0
  N  N157  1  0.38109843  0.98358204  0.60924236  1.0
  N  N158  1  0.09074062  0.22299832  0.84499998  1.0
  N  N159  1  0.95933995  0.96888774  0.18136434  1.0
  N  N160  1  0.82554871  0.78709636  0.84582690  1.0
  N  N161  1  0.12259114  0.83522058  0.25804133  1.0
