# generated using pymatgen
data_AlH10C11O5
_symmetry_space_group_name_H-M   'P 1'
_cell_length_a   6.65779634
_cell_length_b   16.04326403
_cell_length_c   17.13089370
_cell_angle_alpha   78.48671151
_cell_angle_beta   89.99933042
_cell_angle_gamma   89.99944877
_symmetry_Int_Tables_number   1
_chemical_formula_structural   AlH10C11O5
_chemical_formula_sum   'Al4 H40 C44 O20'
_cell_volume   1792.98005682
_cell_formula_units_Z   4
loop_
 _symmetry_equiv_pos_site_id
 _symmetry_equiv_pos_as_xyz
  1  'x, y, z'
loop_
 _atom_site_type_symbol
 _atom_site_label
 _atom_site_symmetry_multiplicity
 _atom_site_fract_x
 _atom_site_fract_y
 _atom_site_fract_z
 _atom_site_occupancy
  Al  Al0  1  0.88612045  0.50011970  0.49595221  1.0
  Al  Al1  1  0.38612010  0.49988203  0.50403964  1.0
  Al  Al2  1  0.34713562  0.00201731  0.00145615  1.0
  Al  Al3  1  0.84713318  0.99798378  0.99854304  1.0
  H  H4  1  0.37379773  0.19214077  0.14284702  1.0
  H  H5  1  0.87382206  0.80784740  0.85714445  1.0
  H  H6  1  0.76864326  0.10291088  0.18971034  1.0
  H  H7  1  0.26867271  0.89709348  0.81029636  1.0
  H  H8  1  0.50958887  0.30415030  0.21100316  1.0
  H  H9  1  0.00957968  0.69583188  0.78899679  1.0
  H  H10  1  0.72658257  0.19541495  0.28983653  1.0
  H  H11  1  0.22658394  0.80458923  0.71017218  1.0
  H  H12  1  0.46754921  0.39613280  0.31153667  1.0
  H  H13  1  0.96752600  0.60384643  0.68846570  1.0
  H  H14  1  0.86091077  0.30814634  0.35678672  1.0
  H  H15  1  0.36089267  0.69185087  0.64321898  1.0
  H  H16  1  0.12495168  0.10579203  0.72666617  1.0
  H  H17  1  0.62492984  0.89421356  0.27333829  1.0
  H  H18  1  0.15762949  0.21692639  0.61709458  1.0
  H  H19  1  0.65764905  0.78307555  0.38290856  1.0
  H  H20  1  0.38365107  0.25013908  0.65577856  1.0
  H  H21  1  0.88365541  0.74986389  0.34421032  1.0
  H  H22  1  0.37328831  0.24208476  0.85075272  1.0
  H  H23  1  0.87327407  0.75792145  0.14924510  1.0
  H  H24  1  0.37932510  0.35834964  0.74363813  1.0
  H  H25  1  0.87930884  0.64165500  0.25635492  1.0
  H  H26  1  0.81224304  0.24032068  0.83511585  1.0
  H  H27  1  0.31222940  0.75968438  0.16489240  1.0
  H  H28  1  0.80071189  0.16416104  0.77434391  1.0
  H  H29  1  0.30070187  0.83584481  0.22566380  1.0
  H  H30  1  0.82411643  0.27097738  0.66014375  1.0
  H  H31  1  0.32411462  0.72902760  0.33986147  1.0
  H  H32  1  0.81919469  0.34750006  0.72055288  1.0
  H  H33  1  0.31918926  0.65250583  0.27945414  1.0
  H  H34  1  0.15108350  0.28330360  0.88489190  1.0
  H  H35  1  0.65107358  0.71670521  0.11510823  1.0
  H  H36  1  0.14831414  0.39503042  0.77483090  1.0
  H  H37  1  0.64830357  0.60497627  0.22516748  1.0
  H  H38  1  0.35844427  0.13446907  0.76288933  1.0
  H  H39  1  0.85843262  0.86553944  0.23710676  1.0
  H  H40  1  0.63959631  0.39095203  0.53729772  1.0
  H  H41  1  0.13959521  0.60905133  0.46270193  1.0
  H  H42  1  0.60121489  0.10919419  0.96336641  1.0
  H  H43  1  0.10121400  0.89080068  0.03661451  1.0
  C  C44  1  0.63182943  0.61492427  0.38393593  1.0
  C  C45  1  0.13182843  0.38507535  0.61606082  1.0
  C  C46  1  0.64207851  0.58904196  0.59930332  1.0
  C  C47  1  0.14207862  0.41095342  0.40069878  1.0
  C  C48  1  0.07475601  0.14287993  0.16089900  1.0
  C  C49  1  0.57477700  0.85711499  0.83910405  1.0
  C  C50  1  0.16045210  0.35690673  0.33946184  1.0
  C  C51  1  0.66043791  0.64308570  0.66054198  1.0
  C  C52  1  0.36898795  0.30414850  0.24376014  1.0
  C  C53  1  0.86896197  0.69583553  0.75624269  1.0
  C  C54  1  0.34582769  0.35557123  0.29849251  1.0
  C  C55  1  0.84580811  0.64441237  0.70150688  1.0
  C  C56  1  0.00248594  0.30598354  0.32510841  1.0
  C  C57  1  0.50246319  0.69400947  0.67489681  1.0
  C  C58  1  0.02440708  0.25035280  0.27108605  1.0
  C  C59  1  0.52440041  0.74964009  0.72891608  1.0
  C  C60  1  0.21131622  0.24944268  0.22920633  1.0
  C  C61  1  0.71132668  0.75055023  0.77079068  1.0
  C  C62  1  0.23273719  0.19399615  0.17494427  1.0
  C  C63  1  0.73275321  0.80599727  0.82504965  1.0
  C  C64  1  0.88998177  0.14384814  0.20235348  1.0
  C  C65  1  0.38999708  0.85615540  0.79764785  1.0
  C  C66  1  0.86693566  0.19542441  0.25691481  1.0
  C  C67  1  0.36693934  0.80457426  0.74308966  1.0
  C  C68  1  0.20918771  0.15891183  0.74272173  1.0
  C  C69  1  0.70917599  0.84109337  0.25727933  1.0
  C  C70  1  0.22584056  0.23389033  0.67032845  1.0
  C  C71  1  0.72583746  0.76610929  0.32967199  1.0
  C  C72  1  0.22051857  0.26386743  0.83303540  1.0
  C  C73  1  0.72050728  0.73613608  0.16696443  1.0
  C  C74  1  0.88829590  0.21848239  0.78584598  1.0
  C  C75  1  0.38827941  0.78152034  0.21416249  1.0
  C  C76  1  0.10094224  0.18842203  0.81245448  1.0
  C  C77  1  0.60092791  0.81157863  0.18754719  1.0
  C  C78  1  0.11844690  0.31327102  0.68876608  1.0
  C  C79  1  0.61844835  0.68673330  0.31123248  1.0
  C  C80  1  0.22449756  0.33907415  0.76057080  1.0
  C  C81  1  0.72448738  0.66093170  0.23942661  1.0
  C  C82  1  0.89855931  0.29034995  0.71095019  1.0
  C  C83  1  0.39855884  0.70965372  0.28905644  1.0
  C  C84  1  0.59153676  0.91113376  0.90045116  1.0
  C  C85  1  0.09152386  0.08886695  0.09955055  1.0
  C  C86  1  0.59758317  0.88424503  0.11542674  1.0
  C  C87  1  0.09761810  0.11575654  0.88457671  1.0
  O  O88  1  0.46665896  0.56944333  0.57900144  1.0
  O  O89  1  0.96668744  0.43055358  0.42099362  1.0
  O  O90  1  0.80562113  0.58721685  0.40740953  1.0
  O  O91  1  0.30562772  0.41277927  0.59258755  1.0
  O  O92  1  0.80748053  0.56844573  0.57109445  1.0
  O  O93  1  0.30750829  0.43155625  0.42890138  1.0
  O  O94  1  0.96769224  0.41214493  0.58258055  1.0
  O  O95  1  0.46768638  0.58785503  0.41742101  1.0
  O  O96  1  0.63567301  0.44806848  0.50543024  1.0
  O  O97  1  0.13566907  0.55193249  0.49456589  1.0
  O  O98  1  0.76699671  0.91014583  0.08559481  1.0
  O  O99  1  0.26702538  0.08983929  0.91438060  1.0
  O  O100  1  0.42521252  0.93402589  0.92608996  1.0
  O  O101  1  0.92516499  0.06593774  0.07393836  1.0
  O  O102  1  0.42816380  0.91416010  0.08921160  1.0
  O  O103  1  0.92817664  0.08586862  0.91081840  1.0
  O  O104  1  0.26607297  0.07147696  0.07655021  1.0
  O  O105  1  0.76611518  0.92854913  0.92342299  1.0
  O  O106  1  0.59902807  0.05184539  0.99476318  1.0
  O  O107  1  0.09903901  0.94815838  0.00523548  1.0
