# generated using pymatgen
data_Zn4H15C24N3O13
_symmetry_space_group_name_H-M   'P 1'
_cell_length_a   18.23485791
_cell_length_b   18.35026702
_cell_length_c   18.38703688
_cell_angle_alpha   89.92559525
_cell_angle_beta   60.55709007
_cell_angle_gamma   60.27179351
_symmetry_Int_Tables_number   1
_chemical_formula_structural   Zn4H15C24N3O13
_chemical_formula_sum   'Zn8 H30 C48 N6 O26'
_cell_volume   4407.15058803
_cell_formula_units_Z   2
loop_
 _symmetry_equiv_pos_site_id
 _symmetry_equiv_pos_as_xyz
  1  'x, y, z'
loop_
 _atom_site_type_symbol
 _atom_site_label
 _atom_site_symmetry_multiplicity
 _atom_site_fract_x
 _atom_site_fract_y
 _atom_site_fract_z
 _atom_site_occupancy
  Zn  Zn0  1  0.89449146  0.95543526  0.05181472  1.0
  Zn  Zn1  1  0.07326094  0.95538884  0.04845968  1.0
  Zn  Zn2  1  0.89791828  0.12794353  0.04810400  1.0
  Zn  Zn3  1  0.06858447  0.95458540  0.87749708  1.0
  Zn  Zn4  1  0.06974706  0.54070965  0.46844209  1.0
  Zn  Zn5  1  0.89275566  0.54390512  0.46286097  1.0
  Zn  Zn6  1  0.89860932  0.54168615  0.63303808  1.0
  Zn  Zn7  1  0.07178334  0.36846387  0.46507009  1.0
  H  H8  1  0.85380820  0.81148664  0.22700634  1.0
  H  H9  1  0.85575959  0.71816252  0.32650691  1.0
  H  H10  1  0.17649217  0.71532093  0.27896220  1.0
  H  H11  1  0.12607217  0.66304041  0.34712063  1.0
  H  H12  1  0.11386608  0.78909880  0.19687677  1.0
  H  H13  1  0.57435720  0.08693081  0.19298617  1.0
  H  H14  1  0.38240493  0.18789946  0.28886984  1.0
  H  H15  1  0.43501454  0.45371545  0.29908646  1.0
  H  H16  1  0.31389776  0.47274096  0.35243922  1.0
  H  H17  1  0.58802813  0.31122273  0.22108066  1.0
  H  H18  1  0.83557698  0.83011887  0.91139584  1.0
  H  H19  1  0.84445949  0.72959037  0.81045787  1.0
  H  H20  1  0.24386353  0.61135880  0.58658269  1.0
  H  H21  1  0.18502849  0.57769495  0.55697850  1.0
  H  H22  1  0.14753212  0.73500073  0.71340289  1.0
  H  H23  1  0.90432651  0.31517770  0.17587980  1.0
  H  H24  1  0.90369199  0.40768538  0.27663577  1.0
  H  H25  1  0.09276920  0.10483517  0.34663300  1.0
  H  H26  1  0.06643097  0.20574443  0.39340902  1.0
  H  H27  1  0.05682511  0.08857032  0.24321677  1.0
  H  H28  1  0.38363317  0.78386724  0.69034570  1.0
  H  H29  1  0.57581428  0.68679091  0.59610014  1.0
  H  H30  1  0.54664352  0.77121577  0.89684787  1.0
  H  H31  1  0.66477270  0.69885502  0.79609779  1.0
  H  H32  1  0.38879886  0.82578419  0.91692077  1.0
  H  H33  1  0.11698347  0.08772317  0.69007723  1.0
  H  H34  1  0.11505087  0.18948359  0.59885619  1.0
  H  H35  1  0.75089202  0.44694240  0.89834076  1.0
  H  H36  1  0.80660866  0.46812579  0.79855835  1.0
  H  H37  1  0.83411963  0.30743236  0.91572427  1.0
  C  C38  1  0.98571867  0.86046287  0.14634865  1.0
  C  C39  1  0.98456502  0.80518664  0.20636215  1.0
  C  C40  1  0.91054638  0.78579675  0.24262065  1.0
  C  C41  1  0.91193368  0.73434788  0.29761480  1.0
  C  C42  1  0.98447506  0.70132631  0.31904848  1.0
  C  C43  1  0.98003887  0.64648775  0.37807768  1.0
  C  C44  1  0.05931158  0.72129768  0.28253407  1.0
  C  C45  1  0.05719596  0.77335755  0.22602717  1.0
  C  C46  1  0.70599593  0.13648924  0.14518041  1.0
  C  C47  1  0.59141354  0.19447366  0.20194312  1.0
  C  C48  1  0.53449692  0.15794759  0.22054475  1.0
  C  C49  1  0.42872316  0.21390828  0.27348962  1.0
  C  C50  1  0.37631192  0.30609078  0.30920623  1.0
  C  C51  1  0.26312195  0.36095893  0.36436851  1.0
  C  C52  1  0.43417031  0.34294693  0.29070374  1.0
  C  C53  1  0.54188322  0.28494793  0.23642673  1.0
  C  C54  1  0.98723704  0.85060808  0.87332127  1.0
  C  C55  1  0.99187172  0.78773471  0.81694775  1.0
  C  C56  1  0.90523629  0.78656874  0.84644335  1.0
  C  C57  1  0.91063883  0.73098484  0.79051493  1.0
  C  C58  1  0.00020575  0.67522893  0.70574685  1.0
  C  C59  1  0.99700847  0.62103168  0.64971942  1.0
  C  C60  1  0.08912861  0.67434082  0.67690523  1.0
  C  C61  1  0.08175776  0.73240408  0.73444764  1.0
  C  C62  1  0.98451014  0.13842777  0.14366177  1.0
  C  C63  1  0.98136898  0.19611497  0.20411730  1.0
  C  C64  1  0.93680366  0.28684340  0.21315580  1.0
  C  C65  1  0.93648212  0.33760035  0.26902996  1.0
  C  C66  1  0.97881166  0.30164441  0.31740286  1.0
  C  C67  1  0.97755593  0.36037425  0.37361172  1.0
  C  C68  1  0.02236684  0.20989148  0.30942998  1.0
  C  C69  1  0.02291853  0.15894282  0.25136934  1.0
  C  C70  1  0.26138093  0.86655416  0.86749651  1.0
  C  C71  1  0.37596161  0.80995799  0.80940954  1.0
  C  C72  1  0.42771433  0.77138105  0.71823590  1.0
  C  C73  1  0.53362010  0.71809209  0.66666667  1.0
  C  C74  1  0.59139136  0.70174937  0.70219067  1.0
  C  C75  1  0.70432592  0.64369577  0.64254919  1.0
  C  C76  1  0.53885225  0.74190391  0.79449522  1.0
  C  C77  1  0.43072759  0.79537912  0.84617267  1.0
  C  C78  1  0.97586757  0.13500273  0.86567773  1.0
  C  C79  1  0.97475996  0.19288506  0.80837419  1.0
  C  C80  1  0.05494162  0.15773781  0.71826514  1.0
  C  C81  1  0.05326922  0.21415995  0.66830530  1.0
  C  C82  1  0.97335245  0.30515912  0.70430809  1.0
  C  C83  1  0.97887045  0.36042940  0.64617775  1.0
  C  C84  1  0.89086914  0.34038207  0.79535459  1.0
  C  C85  1  0.89483910  0.28198399  0.84567882  1.0
  N  N86  1  0.13402575  0.69022585  0.29788657  1.0
  N  N87  1  0.39019378  0.43104340  0.32519255  1.0
  N  N88  1  0.17952884  0.62113140  0.59664283  1.0
  N  N89  1  0.06174662  0.17013847  0.35571812  1.0
  N  N90  1  0.58766685  0.72971505  0.83540994  1.0
  N  N91  1  0.81008497  0.42692351  0.83543156  1.0
  O  O92  1  0.98335339  0.99802739  0.00674749  1.0
  O  O93  1  0.05377950  0.87682862  0.11726910  1.0
  O  O94  1  0.91854958  0.88668164  0.12906898  1.0
  O  O95  1  0.91894709  0.62319388  0.39810884  1.0
  O  O96  1  0.03846305  0.62559084  0.40601420  1.0
  O  O97  1  0.75196112  0.17514866  0.12736095  1.0
  O  O98  1  0.74849837  0.05317353  0.11943321  1.0
  O  O99  1  0.21759653  0.32165935  0.38448091  1.0
  O  O100  1  0.21655934  0.44587388  0.38888050  1.0
  O  O101  1  0.05376942  0.86837763  0.83409036  1.0
  O  O102  1  0.91689853  0.88177047  0.95561302  1.0
  O  O103  1  0.92206606  0.61301429  0.68647506  1.0
  O  O104  1  0.06911957  0.58540728  0.56659949  1.0
  O  O105  1  0.93143822  0.17729141  0.11250252  1.0
  O  O106  1  0.03987119  0.05488803  0.12809525  1.0
  O  O107  1  0.02668709  0.32426180  0.40954564  1.0
  O  O108  1  0.92870593  0.44312903  0.38300518  1.0
  O  O109  1  0.21534489  0.88663170  0.82882604  1.0
  O  O110  1  0.21884931  0.89006661  0.95081433  1.0
  O  O111  1  0.75467819  0.62870529  0.67757288  1.0
  O  O112  1  0.74618646  0.61156927  0.56027732  1.0
  O  O113  1  0.03976943  0.05143772  0.82692588  1.0
  O  O114  1  0.91307089  0.17400113  0.94884764  1.0
  O  O115  1  0.90701136  0.44428581  0.68060914  1.0
  O  O116  1  0.05439873  0.32285000  0.56509175  1.0
  O  O117  1  0.98296352  0.49805196  0.50486487  1.0
