# generated using pymatgen
data_AlH12C24(O2F)3
_symmetry_space_group_name_H-M   'P 1'
_cell_length_a   3.98741877
_cell_length_b   28.64229685
_cell_length_c   28.64266689
_cell_angle_alpha   59.99978417
_cell_angle_beta   89.99964223
_cell_angle_gamma   89.99959063
_symmetry_Int_Tables_number   1
_chemical_formula_structural   AlH12C24(O2F)3
_chemical_formula_sum   'Al2 H24 C48 O12 F6'
_cell_volume   2832.97557180
_cell_formula_units_Z   2
loop_
 _symmetry_equiv_pos_site_id
 _symmetry_equiv_pos_as_xyz
  1  'x, y, z'
loop_
 _atom_site_type_symbol
 _atom_site_label
 _atom_site_symmetry_multiplicity
 _atom_site_fract_x
 _atom_site_fract_y
 _atom_site_fract_z
 _atom_site_occupancy
  Al  Al0  1  0.00373523  0.99999692  0.49999991  1.0
  Al  Al1  1  0.00376608  0.66666512  0.16666618  1.0
  H  H2  1  0.21603208  0.51367565  0.30061507  1.0
  H  H3  1  0.21998349  0.41371798  0.34637696  1.0
  H  H4  1  0.76536411  0.42244843  0.21191678  1.0
  H  H5  1  0.78536548  0.52246374  0.16915371  1.0
  H  H6  1  0.76536321  0.24421464  0.45474673  1.0
  H  H7  1  0.22002318  0.25296445  0.32027840  1.0
  H  H8  1  0.21604966  0.15300800  0.36602990  1.0
  H  H9  1  0.78534510  0.14420132  0.49750215  1.0
  H  H10  1  0.21609016  0.80061737  0.18570556  1.0
  H  H11  1  0.22003759  0.84637447  0.23990432  1.0
  H  H12  1  0.76541104  0.71190741  0.36563090  1.0
  H  H13  1  0.78542145  0.66914971  0.30837427  1.0
  H  H14  1  0.76540641  0.95473655  0.30104034  1.0
  H  H15  1  0.22000152  0.82027597  0.42675578  1.0
  H  H16  1  0.21603923  0.86602475  0.48096053  1.0
  H  H17  1  0.78538443  0.99749237  0.35829483  1.0
  H  H18  1  0.21608176  0.68570613  0.01366945  1.0
  H  H19  1  0.22001036  0.73991096  0.91371464  1.0
  H  H20  1  0.76538742  0.86563040  0.92246099  1.0
  H  H21  1  0.78542929  0.80836729  0.02247439  1.0
  H  H22  1  0.76540048  0.80104473  0.74422619  1.0
  H  H23  1  0.22001927  0.92677185  0.75295766  1.0
  H  H24  1  0.21604010  0.98096663  0.65300367  1.0
  H  H25  1  0.78538160  0.85829252  0.64421482  1.0
  C  C26  1  0.50338105  0.95571448  0.58284678  1.0
  C  C27  1  0.50335798  0.08284406  0.46143772  1.0
  C  C28  1  0.50337618  0.96143446  0.45571520  1.0
  C  C29  1  0.50339628  0.58382202  0.20521928  1.0
  C  C30  1  0.50340316  0.70521954  0.21095307  1.0
  C  C31  1  0.50340582  0.71094960  0.08382658  1.0
  C  C32  1  0.50185984  0.52403102  0.23227731  1.0
  C  C33  1  0.34248322  0.49315460  0.28221407  1.0
  C  C34  1  0.34457062  0.43726080  0.30767752  1.0
  C  C35  1  0.49570468  0.41106786  0.28246565  1.0
  C  C36  1  0.64822976  0.44240830  0.23162201  1.0
  C  C37  1  0.65783662  0.49815898  0.20751247  1.0
  C  C38  1  0.49489555  0.35269107  0.30690649  1.0
  C  C39  1  0.49488031  0.31398187  0.35975756  1.0
  C  C40  1  0.64825580  0.22425969  0.43504019  1.0
  C  C41  1  0.49571635  0.25560429  0.38419286  1.0
  C  C42  1  0.34461229  0.22941468  0.35898155  1.0
  C  C43  1  0.34246887  0.17352089  0.38443836  1.0
  C  C44  1  0.50186489  0.14263790  0.43437897  1.0
  C  C45  1  0.65782174  0.16850941  0.45914149  1.0
  C  C46  1  0.50188449  0.73227558  0.24368860  1.0
  C  C47  1  0.34248967  0.78221120  0.22462917  1.0
  C  C48  1  0.34461255  0.80767399  0.25506035  1.0
  C  C49  1  0.49572233  0.78245764  0.30646718  1.0
  C  C50  1  0.64828302  0.73161600  0.32596557  1.0
  C  C51  1  0.65787699  0.70750857  0.29432254  1.0
  C  C52  1  0.49490340  0.80689685  0.34040428  1.0
  C  C53  1  0.49488484  0.85974772  0.32626200  1.0
  C  C54  1  0.64827010  0.93502886  0.34069939  1.0
  C  C55  1  0.49571861  0.88418614  0.36020159  1.0
  C  C56  1  0.34459528  0.85897554  0.41160184  1.0
  C  C57  1  0.34246478  0.88443673  0.44204045  1.0
  C  C58  1  0.50187034  0.93437358  0.42298210  1.0
  C  C59  1  0.65784392  0.95913427  0.37235005  1.0
  C  C60  1  0.50189406  0.74368779  0.02402967  1.0
  C  C61  1  0.34247418  0.72462738  0.99315693  1.0
  C  C62  1  0.34459632  0.75506603  0.93725743  1.0
  C  C63  1  0.49569086  0.80646831  0.91107381  1.0
  C  C64  1  0.64826960  0.82596893  0.94241461  1.0
  C  C65  1  0.65787186  0.79431640  0.99816971  1.0
  C  C66  1  0.49486119  0.84041635  0.85269937  1.0
  C  C67  1  0.49490001  0.82627430  0.81398134  1.0
  C  C68  1  0.64827654  0.84070387  0.72427419  1.0
  C  C69  1  0.49572304  0.86021306  0.75561014  1.0
  C  C70  1  0.34460703  0.91161103  0.72941554  1.0
  C  C71  1  0.34246577  0.94204565  0.67351527  1.0
  C  C72  1  0.50187331  0.92298354  0.64264042  1.0
  C  C73  1  0.65784959  0.87235196  0.66851466  1.0
  O  O74  1  0.73869067  0.99511481  0.44691508  1.0
  O  O75  1  0.73869695  0.94691042  0.55796930  1.0
  O  O76  1  0.73868805  0.05796224  0.49511987  1.0
  O  O77  1  0.26885558  0.94960630  0.49025275  1.0
  O  O78  1  0.26883616  0.06013529  0.44961102  1.0
  O  O79  1  0.26886055  0.99025007  0.56013587  1.0
  O  O80  1  0.73872771  0.71975266  0.10870540  1.0
  O  O81  1  0.73872408  0.60870246  0.17153935  1.0
  O  O82  1  0.73871894  0.67153859  0.21975329  1.0
  O  O83  1  0.26890109  0.67641459  0.10653113  1.0
  O  O84  1  0.26889352  0.71704990  0.17641638  1.0
  O  O85  1  0.26889789  0.60653018  0.21704998  1.0
  F  F86  1  0.51540380  0.33492956  0.27041678  1.0
  F  F87  1  0.51530832  0.33174175  0.39624876  1.0
  F  F88  1  0.51536498  0.77040495  0.39465414  1.0
  F  F89  1  0.51534699  0.89623921  0.27201093  1.0
  F  F90  1  0.51525939  0.89466572  0.83494086  1.0
  F  F91  1  0.51540296  0.77202572  0.83174642  1.0
