# generated using pymatgen
data_AlH24C27(NO2)3
_symmetry_space_group_name_H-M   'P 1'
_cell_length_a   3.96003077
_cell_length_b   27.93433910
_cell_length_c   27.93459158
_cell_angle_alpha   119.99990148
_cell_angle_beta   90.00204277
_cell_angle_gamma   89.99859832
_symmetry_Int_Tables_number   1
_chemical_formula_structural   AlH24C27(NO2)3
_chemical_formula_sum   'Al2 H48 C54 N6 O12'
_cell_volume   2676.14936941
_cell_formula_units_Z   2
loop_
 _symmetry_equiv_pos_site_id
 _symmetry_equiv_pos_as_xyz
  1  'x, y, z'
loop_
 _atom_site_type_symbol
 _atom_site_label
 _atom_site_symmetry_multiplicity
 _atom_site_fract_x
 _atom_site_fract_y
 _atom_site_fract_z
 _atom_site_occupancy
  Al  Al0  1  0.00220745  0.00000139  0.49999910  1.0
  Al  Al1  1  0.97304116  0.33332933  0.16666323  1.0
  H  H2  1  0.55393307  0.48985959  0.31211342  1.0
  H  H3  1  0.55146292  0.59369862  0.35938247  1.0
  H  H4  1  0.55241725  0.74750059  0.46298036  1.0
  H  H5  1  0.45245458  0.73887481  0.30613414  1.0
  H  H6  1  0.55403057  0.18788619  0.17774967  1.0
  H  H7  1  0.55147834  0.14061243  0.23431857  1.0
  H  H8  1  0.55242287  0.03701483  0.28451728  1.0
  H  H9  1  0.45247929  0.19386234  0.43273836  1.0
  H  H10  1  0.55399790  0.32225168  0.01013782  1.0
  H  H11  1  0.55149658  0.26568010  0.90629677  1.0
  H  H12  1  0.55250679  0.21548317  0.75250032  1.0
  H  H13  1  0.45254163  0.06725832  0.76112350  1.0
  H  H14  1  0.23170318  0.47387706  0.11996584  1.0
  H  H15  1  0.54060373  0.42814282  0.12013094  1.0
  H  H16  1  0.66392814  0.48833209  0.11811462  1.0
  H  H17  1  0.71952911  0.58177790  0.16514346  1.0
  H  H18  1  0.47456317  0.63631281  0.21723813  1.0
  H  H19  1  0.27573206  0.57699600  0.16192626  1.0
  H  H20  1  0.29514387  0.87233144  0.54744305  1.0
  H  H21  1  0.69618855  0.89744960  0.54316445  1.0
  H  H22  1  0.66296464  0.83469039  0.54487904  1.0
  H  H23  1  0.70037503  0.86061939  0.33449467  1.0
  H  H24  1  0.29565969  0.88623481  0.36166949  1.0
  H  H25  1  0.33817517  0.81987169  0.30138349  1.0
  H  H26  1  0.23166495  0.38002995  0.35390832  1.0
  H  H27  1  0.54058608  0.37986707  0.30801815  1.0
  H  H28  1  0.66387056  0.38188354  0.37022823  1.0
  H  H29  1  0.71927870  0.33485657  0.41664488  1.0
  H  H30  1  0.47433590  0.28275688  0.41907539  1.0
  H  H31  1  0.27550642  0.33806538  0.41506142  1.0
  H  H32  1  0.29512157  0.95255282  0.32488884  1.0
  H  H33  1  0.69617734  0.95683200  0.35428918  1.0
  H  H34  1  0.66294994  0.95511227  0.28981062  1.0
  H  H35  1  0.70036277  0.16550719  0.52612956  1.0
  H  H36  1  0.29565342  0.13832306  0.52455821  1.0
  H  H37  1  0.33814965  0.19861202  0.51848229  1.0
  H  H38  1  0.23164638  0.14608692  0.02611717  1.0
  H  H39  1  0.54055740  0.19198139  0.07184827  1.0
  H  H40  1  0.66386735  0.12977417  0.01165864  1.0
  H  H41  1  0.71938369  0.08335843  0.91821377  1.0
  H  H42  1  0.47441177  0.08092492  0.86367864  1.0
  H  H43  1  0.27558710  0.08493112  0.92299833  1.0
  H  H44  1  0.29515818  0.17511111  0.62766752  1.0
  H  H45  1  0.69620746  0.14571466  0.60254855  1.0
  H  H46  1  0.66298026  0.21019117  0.66530783  1.0
  H  H47  1  0.70040111  0.97387049  0.63937982  1.0
  H  H48  1  0.29569635  0.97543832  0.61376497  1.0
  H  H49  1  0.33821648  0.98151488  0.68012662  1.0
  C  C50  1  0.50156879  0.04806904  0.58561217  1.0
  C  C51  1  0.50154208  0.91438510  0.46245190  1.0
  C  C52  1  0.50155035  0.03754288  0.45193236  1.0
  C  C53  1  0.47944911  0.41848429  0.20548579  1.0
  C  C54  1  0.47946579  0.29450807  0.21300006  1.0
  C  C55  1  0.47944736  0.28699863  0.08151054  1.0
  C  C56  1  0.50357560  0.47960607  0.23057915  1.0
  C  C57  1  0.53557234  0.51114663  0.28842914  1.0
  C  C58  1  0.53516669  0.56813025  0.31460394  1.0
  C  C59  1  0.51417323  0.59455048  0.28304040  1.0
  C  C60  1  0.49877727  0.56335174  0.22464003  1.0
  C  C61  1  0.49083457  0.50509622  0.19810992  1.0
  C  C62  1  0.52886718  0.76913776  0.43969236  1.0
  C  C63  1  0.50548404  0.73755130  0.38208363  1.0
  C  C64  1  0.47579372  0.76406040  0.35087917  1.0
  C  C65  1  0.47669603  0.82138090  0.37642125  1.0
  C  C66  1  0.50034442  0.85269744  0.43472303  1.0
  C  C67  1  0.52419142  0.82679101  0.46682234  1.0
  C  C68  1  0.50362886  0.26942175  0.24903158  1.0
  C  C69  1  0.53562745  0.21157159  0.22272364  1.0
  C  C70  1  0.53516137  0.18539485  0.25353218  1.0
  C  C71  1  0.51409035  0.21695571  0.31151319  1.0
  C  C72  1  0.49868987  0.27535717  0.33871797  1.0
  C  C73  1  0.49075689  0.30188734  0.30698856  1.0
  C  C74  1  0.52889892  0.06030435  0.32944681  1.0
  C  C75  1  0.50548832  0.11791050  0.35546636  1.0
  C  C76  1  0.47582141  0.14911753  0.41317843  1.0
  C  C77  1  0.47672659  0.12357696  0.44495765  1.0
  C  C78  1  0.50035178  0.06527346  0.41797477  1.0
  C  C79  1  0.52418291  0.03317399  0.35996897  1.0
  C  C80  1  0.50357643  0.25096849  0.02038923  1.0
  C  C81  1  0.53560710  0.27727791  0.98884811  1.0
  C  C82  1  0.53519350  0.24647104  0.93186657  1.0
  C  C83  1  0.51410947  0.18848586  0.90544224  1.0
  C  C84  1  0.49869162  0.16128689  0.93664066  1.0
  C  C85  1  0.49078466  0.19300812  0.99489591  1.0
  C  C86  1  0.52895257  0.17055240  0.73085872  1.0
  C  C87  1  0.50558523  0.14453274  0.76244487  1.0
  C  C88  1  0.47589013  0.08682122  0.73593755  1.0
  C  C89  1  0.47675938  0.05503799  0.67861819  1.0
  C  C90  1  0.50041202  0.08202366  0.64729954  1.0
  C  C91  1  0.52425606  0.14002950  0.67320403  1.0
  C  C92  1  0.48215291  0.47179184  0.13591857  1.0
  C  C93  1  0.49054842  0.59144568  0.19070946  1.0
  C  C94  1  0.54737804  0.85956587  0.52884025  1.0
  C  C95  1  0.44964155  0.84855099  0.34171512  1.0
  C  C96  1  0.48211160  0.36407819  0.33587928  1.0
  C  C97  1  0.49033623  0.30928574  0.40073810  1.0
  C  C98  1  0.54736369  0.97115520  0.33072895  1.0
  C  C99  1  0.44964322  0.15828101  0.50683208  1.0
  C  C100  1  0.48209769  0.16412219  0.02819990  1.0
  C  C101  1  0.49040814  0.09926109  0.90854689  1.0
  C  C102  1  0.54740832  0.16927503  0.64043141  1.0
  C  C103  1  0.44968827  0.99316431  0.65144633  1.0
  N  N104  1  0.50994653  0.65248980  0.30694841  1.0
  N  N105  1  0.51239269  0.67961734  0.35936035  1.0
  N  N106  1  0.50985430  0.19304791  0.34554427  1.0
  N  N107  1  0.51241622  0.14063650  0.32025730  1.0
  N  N108  1  0.50991323  0.15445269  0.84750480  1.0
  N  N109  1  0.51246064  0.17974193  0.82038181  1.0
  O  O110  1  0.26671576  0.00292310  0.44384925  1.0
  O  O111  1  0.26673830  0.05614889  0.55907219  1.0
  O  O112  1  0.26674042  0.94092714  0.49707642  1.0
  O  O113  1  0.73759735  0.05022746  0.48745444  1.0
  O  O114  1  0.73759477  0.93722000  0.44976822  1.0
  O  O115  1  0.73760502  0.01254624  0.56277605  1.0
  O  O116  1  0.23328135  0.27890007  0.10604959  1.0
  O  O117  1  0.23326721  0.39394157  0.17284989  1.0
  O  O118  1  0.23328662  0.32714856  0.22109573  1.0
  O  O119  1  0.70343532  0.32461192  0.10562897  1.0
  O  O120  1  0.70349078  0.28100972  0.17538295  1.0
  O  O121  1  0.70345872  0.39436438  0.21898332  1.0
