# generated using pymatgen
data_AlH15(C11O3)3
_symmetry_space_group_name_H-M   'P 1'
_cell_length_a   3.96488492
_cell_length_b   20.44137083
_cell_length_c   20.47106266
_cell_angle_alpha   119.92703806
_cell_angle_beta   90.07715971
_cell_angle_gamma   92.71678064
_symmetry_Int_Tables_number   1
_chemical_formula_structural   AlH15(C11O3)3
_chemical_formula_sum   'Al1 H15 C33 O9'
_cell_volume   1435.69094687
_cell_formula_units_Z   1
loop_
 _symmetry_equiv_pos_site_id
 _symmetry_equiv_pos_as_xyz
  1  'x, y, z'
loop_
 _atom_site_type_symbol
 _atom_site_label
 _atom_site_symmetry_multiplicity
 _atom_site_fract_x
 _atom_site_fract_y
 _atom_site_fract_z
 _atom_site_occupancy
  Al  Al0  1  0.03059935  0.00068706  0.50014948  1.0
  H  H1  1  0.81967069  0.98577981  0.29325431  1.0
  H  H2  1  0.80657203  0.91704759  0.15254678  1.0
  H  H3  1  0.23207781  0.98398919  0.69261485  1.0
  H  H4  1  0.23257428  0.91499172  0.76470845  1.0
  H  H5  1  0.26903846  0.20696399  0.51535900  1.0
  H  H6  1  0.28672067  0.34810536  0.58425009  1.0
  H  H7  1  0.78493497  0.80924208  0.51665991  1.0
  H  H8  1  0.76709058  0.73706387  0.58534070  1.0
  H  H9  1  0.20071235  0.80610683  0.29042481  1.0
  H  H10  1  0.20600689  0.73389171  0.14956227  1.0
  H  H11  1  0.87001744  0.21202450  0.69273757  1.0
  H  H12  1  0.86982737  0.35287074  0.76485073  1.0
  H  H13  1  0.52881618  0.63609101  0.66516719  1.0
  H  H14  1  0.56087690  0.53035701  0.86568163  1.0
  H  H15  1  0.47320445  0.83519109  0.97069864  1.0
  C  C16  1  0.51683629  0.94203700  0.38384040  1.0
  C  C17  1  0.55728039  0.11723798  0.55811326  1.0
  C  C18  1  0.51720449  0.94273468  0.55861911  1.0
  C  C19  1  0.68112768  0.93127646  0.26111730  1.0
  C  C20  1  0.67415561  0.89290007  0.18290085  1.0
  C  C21  1  0.35279363  0.93045091  0.67031356  1.0
  C  C22  1  0.35198489  0.89205607  0.71026299  1.0
  C  C23  1  0.40503517  0.23964216  0.56933732  1.0
  C  C24  1  0.41394258  0.31799449  0.60769215  1.0
  C  C25  1  0.65912761  0.83106615  0.57028052  1.0
  C  C26  1  0.64940406  0.79107156  0.60863475  1.0
  C  C27  1  0.33675410  0.82917991  0.25957365  1.0
  C  C28  1  0.33845607  0.78920952  0.18137235  1.0
  C  C29  1  0.73844378  0.24237810  0.67017258  1.0
  C  C30  1  0.73882824  0.32073187  0.71014351  1.0
  C  C31  1  0.51059777  0.90007157  0.30008286  1.0
  C  C32  1  0.50573024  0.82078670  0.14176217  1.0
  C  C33  1  0.50655109  0.77999918  0.06203570  1.0
  C  C34  1  0.50838935  0.74173594  0.99322588  1.0
  C  C35  1  0.51300973  0.70315849  0.91389629  1.0
  C  C36  1  0.50895917  0.90073755  0.60043198  1.0
  C  C37  1  0.49856164  0.82132858  0.67968119  1.0
  C  C38  1  0.49713081  0.78229519  0.72043827  1.0
  C  C39  1  0.49869854  0.75177128  0.75885260  1.0
  C  C40  1  0.50738115  0.71112414  0.79760906  1.0
  C  C41  1  0.56851323  0.20114757  0.59991853  1.0
  C  C42  1  0.57778566  0.35982478  0.67932586  1.0
  C  C43  1  0.57507607  0.43958566  0.71891757  1.0
  C  C44  1  0.56086711  0.50828127  0.74948803  1.0
  C  C45  1  0.54265481  0.58739788  0.79003226  1.0
  C  C46  1  0.49833381  0.74578040  0.87674590  1.0
  C  C47  1  0.53033034  0.63164238  0.75503933  1.0
  C  C48  1  0.53390088  0.62424358  0.86974564  1.0
  O  O49  1  0.29353033  0.99082385  0.57319801  1.0
  O  O50  1  0.27709356  0.92724056  0.41691019  1.0
  O  O51  1  0.31600787  0.08291845  0.50950545  1.0
  O  O52  1  0.74808555  0.92807933  0.51043888  1.0
  O  O53  1  0.78723996  0.08457927  0.57307721  1.0
  O  O54  1  0.76289686  0.99051059  0.41751020  1.0
  O  O55  1  0.54109595  0.59658565  0.67910743  1.0
  O  O56  1  0.54553253  0.58356438  0.90516331  1.0
  O  O57  1  0.47624463  0.82149887  0.91727914  1.0
