# generated using pymatgen
data_ZnH28C32NO16
_symmetry_space_group_name_H-M   'P 1'
_cell_length_a   17.58461345
_cell_length_b   18.24207394
_cell_length_c   19.51344347
_cell_angle_alpha   90.44840973
_cell_angle_beta   90.07899042
_cell_angle_gamma   89.97017805
_symmetry_Int_Tables_number   1
_chemical_formula_structural   ZnH28C32NO16
_chemical_formula_sum   'Zn2 H56 C64 N2 O32'
_cell_volume   6259.32040196
_cell_formula_units_Z   2
loop_
 _symmetry_equiv_pos_site_id
 _symmetry_equiv_pos_as_xyz
  1  'x, y, z'
loop_
 _atom_site_type_symbol
 _atom_site_label
 _atom_site_symmetry_multiplicity
 _atom_site_fract_x
 _atom_site_fract_y
 _atom_site_fract_z
 _atom_site_occupancy
  Zn  Zn0  1  0.50256011  0.42043836  0.49290103  1.0
  Zn  Zn1  1  0.49431890  0.57665165  0.48890356  1.0
  H  H2  1  0.60593548  0.41256419  0.03922720  1.0
  H  H3  1  0.82735261  0.66803977  0.61611255  1.0
  H  H4  1  0.86446124  0.35406932  0.49529907  1.0
  H  H5  1  0.14346219  0.66308639  0.48509086  1.0
  H  H6  1  0.32209282  0.38434291  0.54801814  1.0
  H  H7  1  0.66695226  0.62029872  0.56295683  1.0
  H  H8  1  0.69375510  0.39446549  0.47875362  1.0
  H  H9  1  0.30913633  0.60705785  0.46012838  1.0
  H  H10  1  0.62909964  0.62076331  0.24501727  1.0
  H  H11  1  0.37726446  0.37501225  0.73955382  1.0
  H  H12  1  0.61336689  0.62365680  0.73072663  1.0
  H  H13  1  0.41485885  0.58338863  0.94176819  1.0
  H  H14  1  0.40291833  0.36579663  0.23756140  1.0
  H  H15  1  0.66558810  0.54059371  0.06705868  1.0
  H  H16  1  0.71469666  0.54091301  0.14804208  1.0
  H  H17  1  0.70753222  0.62365414  0.09891061  1.0
  H  H18  1  0.29842639  0.45719017  0.83508146  1.0
  H  H19  1  0.34753671  0.46343471  0.91586605  1.0
  H  H20  1  0.30473300  0.37853411  0.88982310  1.0
  H  H21  1  0.52052023  0.65964588  0.90550105  1.0
  H  H22  1  0.52357340  0.69822694  0.82104221  1.0
  H  H23  1  0.60517822  0.70444644  0.87657797  1.0
  H  H24  1  0.58935761  0.42075669  0.91311715  1.0
  H  H25  1  0.50119628  0.29409933  0.16207437  1.0
  H  H26  1  0.51145023  0.33080260  0.07734862  1.0
  H  H27  1  0.42594981  0.28348284  0.10018147  1.0
  H  H28  1  0.61948366  0.22791107  0.33266540  1.0
  H  H29  1  0.52149980  0.22287195  0.30641421  1.0
  H  H30  1  0.58503104  0.14794470  0.28838831  1.0
  H  H31  1  0.69669208  0.76561913  0.41845116  1.0
  H  H32  1  0.70545707  0.76427575  0.51022372  1.0
  H  H33  1  0.74066656  0.84107759  0.46268141  1.0
  H  H34  1  0.38010291  0.24019013  0.65761427  1.0
  H  H35  1  0.43118301  0.57500341  0.06792528  1.0
  H  H36  1  0.47535067  0.23350648  0.69068736  1.0
  H  H37  1  0.40805725  0.16164777  0.70664983  1.0
  H  H38  1  0.29468847  0.76504229  0.57358468  1.0
  H  H39  1  0.28148111  0.77256878  0.48281364  1.0
  H  H40  1  0.25120270  0.84563842  0.53878128  1.0
  H  H41  1  0.68174096  0.09209323  0.53173094  1.0
  H  H42  1  0.68530381  0.01051880  0.58311740  1.0
  H  H43  1  0.69506735  0.09950572  0.62267525  1.0
  H  H44  1  0.50085209  0.90120463  0.33113226  1.0
  H  H45  1  0.44786506  0.98407651  0.31592745  1.0
  H  H46  1  0.54251711  0.30410109  0.39698534  1.0
  H  H47  1  0.40488809  0.89606242  0.30000959  1.0
  H  H48  1  0.31511017  0.09571997  0.46633574  1.0
  H  H49  1  0.31068236  0.01450433  0.41333532  1.0
  H  H50  1  0.30357386  0.10384582  0.37536215  1.0
  H  H51  1  0.49277600  0.90561103  0.66923663  1.0
  H  H52  1  0.55111250  0.98566420  0.68257719  1.0
  H  H53  1  0.58932550  0.89573991  0.69775146  1.0
  H  H54  1  0.60751215  0.69022820  0.46784293  1.0
  H  H55  1  0.46446433  0.31059163  0.59655643  1.0
  H  H56  1  0.37799069  0.69220359  0.51509089  1.0
  H  H57  1  0.16192183  0.35086064  0.60828887  1.0
  C  C58  1  0.48885650  0.50106554  0.62090549  1.0
  C  C59  1  0.46597056  0.54128900  0.03384875  1.0
  C  C60  1  0.50100361  0.50237339  0.91879800  1.0
  C  C61  1  0.51906204  0.49292053  0.06222786  1.0
  C  C62  1  0.52632020  0.27155918  0.44111870  1.0
  C  C63  1  0.55819070  0.72394194  0.47972618  1.0
  C  C64  1  0.48054590  0.27534387  0.55364189  1.0
  C  C65  1  0.42854403  0.72488509  0.50559355  1.0
  C  C66  1  0.52662723  0.19485345  0.44088872  1.0
  C  C67  1  0.56173389  0.80058008  0.48311462  1.0
  C  C68  1  0.47694439  0.19867495  0.55591592  1.0
  C  C69  1  0.51268897  0.49211980  0.36124340  1.0
  C  C70  1  0.42778798  0.80162744  0.50908592  1.0
  C  C71  1  0.50098577  0.15691480  0.49895292  1.0
  C  C72  1  0.49534937  0.84081690  0.49747046  1.0
  C  C73  1  0.54217311  0.03682565  0.54747004  1.0
  C  C74  1  0.45474110  0.96091204  0.44985319  1.0
  C  C75  1  0.45382257  0.03783657  0.45155397  1.0
  C  C76  1  0.53868925  0.95990155  0.54878675  1.0
  C  C77  1  0.49619846  0.92172840  0.49907959  1.0
  C  C78  1  0.49882147  0.07606469  0.49954414  1.0
  C  C79  1  0.64899122  0.50723196  0.51085750  1.0
  C  C80  1  0.52492454  0.48833391  0.13811718  1.0
  C  C81  1  0.34735582  0.49492569  0.49591792  1.0
  C  C82  1  0.15688384  0.44699102  0.57341938  1.0
  C  C83  1  0.83894018  0.57275793  0.57886463  1.0
  C  C84  1  0.85348647  0.44901720  0.53288304  1.0
  C  C85  1  0.15006488  0.57008125  0.52633132  1.0
  C  C86  1  0.23267519  0.44153278  0.55263734  1.0
  C  C87  1  0.76181788  0.57127734  0.56210643  1.0
  C  C88  1  0.77621717  0.44725048  0.51655939  1.0
  C  C89  1  0.22571287  0.56474064  0.50574710  1.0
  C  C90  1  0.26812733  0.50012843  0.51784943  1.0
  C  C91  1  0.49274775  0.50583372  0.84298986  1.0
  C  C92  1  0.72933341  0.50875051  0.53007534  1.0
  C  C93  1  0.11393721  0.51063879  0.55919456  1.0
  C  C94  1  0.88626019  0.51219227  0.56327424  1.0
  C  C95  1  0.03502066  0.51293150  0.57117221  1.0
  C  C96  1  0.96565928  0.51482650  0.57244515  1.0
  C  C97  1  0.56458041  0.53994267  0.24877210  1.0
  C  C98  1  0.44459448  0.45455089  0.73542786  1.0
  C  C99  1  0.53352707  0.55486565  0.73274942  1.0
  C  C100  1  0.47883412  0.43679330  0.24596898  1.0
  C  C101  1  0.56714135  0.53901088  0.17660203  1.0
  C  C102  1  0.51961926  0.48919921  0.28493560  1.0
  C  C103  1  0.44595148  0.45624154  0.80741437  1.0
  C  C104  1  0.53601997  0.55541409  0.80472840  1.0
  C  C105  1  0.48217484  0.43654853  0.17397060  1.0
  C  C106  1  0.67839485  0.57297587  0.11333757  1.0
  C  C107  1  0.33441231  0.42759939  0.87191881  1.0
  C  C108  1  0.55689584  0.67018996  0.86088059  1.0
  C  C109  1  0.47105419  0.31993718  0.11897389  1.0
  C  C110  1  0.57043702  0.19116244  0.32531020  1.0
  C  C111  1  0.69603313  0.79941117  0.46542869  1.0
  C  C112  1  0.42703926  0.20236409  0.66950188  1.0
  C  C113  1  0.48785519  0.50416012  0.69749711  1.0
  C  C114  1  0.29422487  0.80320449  0.53020048  1.0
  C  C115  1  0.66714015  0.06817544  0.58165970  1.0
  C  C116  1  0.44415657  0.92687419  0.33299794  1.0
  C  C117  1  0.33007225  0.07173531  0.41616634  1.0
  C  C118  1  0.55079559  0.92801444  0.66570443  1.0
  C  C119  1  0.56354070  0.44983002  0.01804460  1.0
  C  C120  1  0.45701071  0.54592242  0.96302394  1.0
  C  C121  1  0.55454106  0.45446838  0.94719208  1.0
  N  N122  1  0.50428628  0.30938376  0.49684876  1.0
  N  N123  1  0.49271986  0.68823748  0.49085229  1.0
  O  O124  1  0.51274715  0.44154805  0.59416095  1.0
  O  O125  1  0.86951676  0.63369258  0.60982882  1.0
  O  O126  1  0.89821488  0.38990559  0.51721272  1.0
  O  O127  1  0.10941819  0.63221853  0.51198317  1.0
  O  O128  1  0.26943264  0.37750842  0.56714752  1.0
  O  O129  1  0.72017325  0.63256128  0.57826506  1.0
  O  O130  1  0.74981133  0.38476423  0.48579288  1.0
  O  O131  1  0.25562229  0.62357500  0.47191830  1.0
  O  O132  1  0.60665087  0.59165704  0.28209410  1.0
  O  O133  1  0.40072008  0.40332300  0.70259702  1.0
  O  O134  1  0.57897651  0.60139508  0.69689129  1.0
  O  O135  1  0.51906427  0.55436352  0.39045867  1.0
  O  O136  1  0.43167529  0.38726216  0.27606037  1.0
  O  O137  1  0.60929278  0.59542002  0.14742140  1.0
  O  O138  1  0.40339838  0.40194962  0.83954794  1.0
  O  O139  1  0.58883195  0.60278339  0.83471191  1.0
  O  O140  1  0.43410073  0.38673339  0.14078382  1.0
  O  O141  1  0.55188538  0.15374604  0.38727008  1.0
  O  O142  1  0.62607020  0.83948914  0.47154188  1.0
  O  O143  1  0.44918135  0.16105946  0.61008146  1.0
  O  O144  1  0.36510829  0.84161124  0.52477648  1.0
  O  O145  1  0.58658064  0.07486571  0.59395498  1.0
  O  O146  1  0.49997596  0.43159328  0.39132243  1.0
  O  O147  1  0.41332121  0.92270907  0.40122990  1.0
  O  O148  1  0.41096380  0.07681200  0.40509848  1.0
  O  O149  1  0.57905587  0.92058912  0.59673094  1.0
  O  O150  1  0.46678643  0.55758445  0.58905719  1.0
  O  O151  1  0.62110020  0.44782434  0.48528475  1.0
  O  O152  1  0.37837056  0.55098556  0.46702664  1.0
  O  O153  1  0.38381018  0.43494770  0.50664692  1.0
  O  O154  1  0.60887178  0.56563513  0.52022788  1.0
  O  O155  1  0.12336862  0.38946976  0.60638112  1.0
