# generated using pymatgen
data_Mg2H12C17(NO2)4
_symmetry_space_group_name_H-M   'P 1'
_cell_length_a   6.82583371
_cell_length_b   30.75501715
_cell_length_c   30.75966647
_cell_angle_alpha   119.46296305
_cell_angle_beta   94.23845810
_cell_angle_gamma   94.25041527
_symmetry_Int_Tables_number   1
_chemical_formula_structural   Mg2H12C17(NO2)4
_chemical_formula_sum   'Mg6 H36 C51 N12 O24'
_cell_volume   5561.29453793
_cell_formula_units_Z   3
loop_
 _symmetry_equiv_pos_site_id
 _symmetry_equiv_pos_as_xyz
  1  'x, y, z'
loop_
 _atom_site_type_symbol
 _atom_site_label
 _atom_site_symmetry_multiplicity
 _atom_site_fract_x
 _atom_site_fract_y
 _atom_site_fract_z
 _atom_site_occupancy
  Mg  Mg0  1  0.48311515  0.30703271  0.67926632  1.0
  Mg  Mg1  1  0.13359342  0.63026455  0.32786651  1.0
  Mg  Mg2  1  0.80408646  0.32076066  0.62781113  1.0
  Mg  Mg3  1  0.80578066  0.67216327  0.30242177  1.0
  Mg  Mg4  1  0.17627132  0.37223926  0.69296964  1.0
  Mg  Mg5  1  0.50341439  0.69761908  0.36977866  1.0
  H  H6  1  0.74518451  0.57243750  0.18169132  1.0
  H  H7  1  0.65874037  0.54080079  0.09699895  1.0
  H  H8  1  0.63863882  0.43150691  0.98473473  1.0
  H  H9  1  0.47362159  0.52681222  0.02617567  1.0
  H  H10  1  0.39162507  0.49026672  0.05360370  1.0
  H  H11  1  0.16452233  0.44984589  0.98788634  1.0
  H  H12  1  0.57609646  0.48464886  0.94911123  1.0
  H  H13  1  0.26288932  0.40739921  0.82529318  1.0
  H  H14  1  0.97456066  0.46162348  0.83260703  1.0
  H  H15  1  0.82195846  0.49342975  0.91162746  1.0
  H  H16  1  0.18423741  0.55846147  0.08305590  1.0
  H  H17  1  0.43969570  0.60550672  0.15874997  1.0
  H  H18  1  0.56365014  0.81834579  0.39079450  1.0
  H  H19  1  0.56185692  0.90299336  0.44377520  1.0
  H  H20  1  0.65398870  0.01526693  0.44675711  1.0
  H  H21  1  0.44753521  0.97382030  0.50062219  1.0
  H  H22  1  0.33821689  0.94636073  0.43663859  1.0
  H  H23  1  0.17667461  0.01205760  0.46189125  1.0
  H  H24  1  0.62686145  0.05090522  0.53550486  1.0
  H  H25  1  0.43743304  0.17474828  0.58215047  1.0
  H  H26  1  0.14172426  0.16736111  0.62901384  1.0
  H  H27  1  0.90999177  0.08835897  0.58178385  1.0
  H  H28  1  0.10137319  0.91705592  0.47538690  1.0
  H  H29  1  0.28122119  0.84135737  0.44679146  1.0
  H  H30  1  0.17260093  0.60917085  0.42747795  1.0
  H  H31  1  0.11801320  0.55620144  0.45923393  1.0
  H  H32  1  0.20752950  0.55321832  0.56848044  1.0
  H  H33  1  0.94729754  0.49934190  0.47315814  1.0
  H  H34  1  0.90189541  0.56333014  0.50970977  1.0
  H  H35  1  0.71503010  0.53803662  0.55009515  1.0
  H  H36  1  0.09158018  0.46439461  0.51531931  1.0
  H  H37  1  0.85565107  0.41783461  0.59261548  1.0
  H  H38  1  0.51316531  0.37101032  0.53833587  1.0
  H  H39  1  0.32840513  0.41817031  0.50654466  1.0
  H  H40  1  0.62575310  0.52460262  0.44159597  1.0
  H  H41  1  0.83414487  0.55318493  0.39449804  1.0
  C  C42  1  0.03926170  0.60471906  0.21892060  1.0
  C  C43  1  0.89774054  0.57924600  0.17599279  1.0
  C  C44  1  0.94891062  0.56152367  0.12762731  1.0
  C  C45  1  0.81334436  0.48994315  0.04384845  1.0
  C  C46  1  0.44824948  0.48800100  0.01996629  1.0
  C  C47  1  0.29239319  0.44873625  0.92974114  1.0
  C  C48  1  0.53219236  0.45206694  0.87328740  1.0
  C  C49  1  0.41782522  0.41988687  0.82706936  1.0
  C  C50  1  0.50449241  0.40073999  0.78197278  1.0
  C  C51  1  0.71030192  0.41620922  0.78435645  1.0
  C  C52  1  0.81799529  0.45074685  0.83148523  1.0
  C  C53  1  0.73259351  0.46870477  0.87535976  1.0
  C  C54  1  0.81957510  0.39580553  0.74046730  1.0
  C  C55  1  0.14622470  0.57080574  0.12071152  1.0
  C  C56  1  0.28667785  0.59659357  0.16271837  1.0
  C  C57  1  0.24086824  0.61353623  0.21212691  1.0
  C  C58  1  0.40075212  0.64025433  0.25436116  1.0
  C  C59  1  0.82054031  0.78114583  0.38585484  1.0
  C  C60  1  0.72192287  0.82406458  0.40329499  1.0
  C  C61  1  0.82147149  0.87244183  0.43393253  1.0
  C  C62  1  0.76957743  0.95618279  0.44611178  1.0
  C  C63  1  0.42834859  0.98002287  0.46802482  1.0
  C  C64  1  0.36252442  0.07024952  0.51895532  1.0
  C  C65  1  0.65860565  0.12672286  0.57879705  1.0
  C  C66  1  0.59057253  0.17295348  0.59285196  1.0
  C  C67  1  0.72241831  0.21805153  0.61881587  1.0
  C  C68  1  0.92584284  0.21565282  0.63188752  1.0
  C  C69  1  0.98628155  0.16851545  0.61929432  1.0
  C  C70  1  0.85690793  0.12464107  0.59336345  1.0
  C  C71  1  0.07900909  0.25954602  0.65537116  1.0
  C  C72  1  0.02572893  0.87938153  0.45010065  1.0
  C  C73  1  0.12422979  0.83737955  0.43391432  1.0
  C  C74  1  0.02897146  0.78795345  0.40145453  1.0
  C  C75  1  0.14648610  0.74569574  0.38594227  1.0
  C  C76  1  0.43451192  0.61414546  0.39525767  1.0
  C  C77  1  0.31836313  0.59667508  0.42070109  1.0
  C  C78  1  0.38732627  0.56605594  0.43844827  1.0
  C  C79  1  0.32365802  0.55386753  0.51002120  1.0
  C  C80  1  0.96066428  0.53193615  0.51196863  1.0
  C  C81  1  0.84380073  0.48097888  0.55122517  1.0
  C  C82  1  0.08011787  0.42118186  0.54792218  1.0
  C  C83  1  0.99809398  0.40714494  0.58011161  1.0
  C  C84  1  0.10406615  0.38120856  0.59925577  1.0
  C  C85  1  0.29439864  0.36813224  0.58377698  1.0
  C  C86  1  0.36745741  0.38072329  0.54923200  1.0
  C  C87  1  0.26389761  0.40663671  0.53129838  1.0
  C  C88  1  0.42410188  0.34467364  0.60420408  1.0
  C  C89  1  0.57533585  0.54986847  0.42919716  1.0
  C  C90  1  0.69000457  0.56605269  0.40338486  1.0
  C  C91  1  0.62729247  0.59852131  0.38643495  1.0
  C  C92  1  0.76037685  0.61406877  0.35973763  1.0
  N  N93  1  0.79730825  0.53550900  0.08701278  1.0
  N  N94  1  0.63941973  0.46774165  0.01240439  1.0
  N  N95  1  0.29993167  0.45603406  0.97834429  1.0
  N  N96  1  0.46389273  0.46782253  0.92022305  1.0
  N  N97  1  0.71039820  0.91303249  0.44852450  1.0
  N  N98  1  0.62710894  0.98761716  0.45534601  1.0
  N  N99  1  0.32158001  0.02162253  0.47765752  1.0
  N  N100  1  0.54345259  0.07977535  0.54758334  1.0
  N  N101  1  0.26184856  0.55148224  0.46449110  1.0
  N  N102  1  0.17204960  0.54462967  0.53224648  1.0
  N  N103  1  0.84418898  0.52228270  0.54390943  1.0
  N  N104  1  0.99608896  0.45233955  0.53212969  1.0
  O  O105  1  0.99945708  0.41291666  0.74396298  1.0
  O  O106  1  0.73010845  0.35870563  0.69830076  1.0
  O  O107  1  0.39095721  0.36771088  0.73880618  1.0
  O  O108  1  0.57622377  0.65051273  0.24743693  1.0
  O  O109  1  0.35977355  0.65275360  0.29923486  1.0
  O  O110  1  0.97717800  0.61868338  0.26378803  1.0
  O  O111  1  0.97070589  0.47143366  0.03502512  1.0
  O  O112  1  0.14415713  0.42604532  0.89884600  1.0
  O  O113  1  0.25534044  0.25605539  0.66901344  1.0
  O  O114  1  0.03185511  0.30170853  0.66039866  1.0
  O  O115  1  0.65215352  0.26122908  0.62897496  1.0
  O  O116  1  0.32884778  0.75259747  0.40313124  1.0
  O  O117  1  0.06055331  0.70081759  0.35356352  1.0
  O  O118  1  0.71356476  0.73626282  0.35496805  1.0
  O  O119  1  0.93579950  0.96499643  0.43641906  1.0
  O  O120  1  0.24522358  0.10113986  0.52713505  1.0
  O  O121  1  0.58677338  0.33102161  0.58706861  1.0
  O  O122  1  0.37173640  0.33965176  0.64132590  1.0
  O  O123  1  0.02356628  0.37107485  0.63228360  1.0
  O  O124  1  0.92561756  0.59690505  0.34947908  1.0
  O  O125  1  0.70685783  0.64644976  0.34724424  1.0
  O  O126  1  0.35854297  0.64507356  0.38131773  1.0
  O  O127  1  0.49961685  0.56353420  0.52848403  1.0
  O  O128  1  0.71825759  0.47280166  0.57392841  1.0
