# generated using pymatgen
data_AlH15C21(NO2)3
_symmetry_space_group_name_H-M   'P 1'
_cell_length_a   4.05027808
_cell_length_b   24.63427305
_cell_length_c   24.63420687
_cell_angle_alpha   119.99979014
_cell_angle_beta   90.00021472
_cell_angle_gamma   90.00003755
_symmetry_Int_Tables_number   1
_chemical_formula_structural   AlH15C21(NO2)3
_chemical_formula_sum   'Al2 H30 C42 N6 O12'
_cell_volume   2128.60327844
_cell_formula_units_Z   2
loop_
 _symmetry_equiv_pos_site_id
 _symmetry_equiv_pos_as_xyz
  1  'x, y, z'
loop_
 _atom_site_type_symbol
 _atom_site_label
 _atom_site_symmetry_multiplicity
 _atom_site_fract_x
 _atom_site_fract_y
 _atom_site_fract_z
 _atom_site_occupancy
  Al  Al0  1  0.03569263  0.99999752  0.49999820  1.0
  Al  Al1  1  0.03623580  0.33333199  0.16666563  1.0
  H  H2  1  0.27662208  0.82685067  0.33710389  1.0
  H  H3  1  0.27685106  0.50645227  0.32955979  1.0
  H  H4  1  0.80470692  0.50670150  0.17805639  1.0
  H  H5  1  0.79999454  0.62364889  0.23763494  1.0
  H  H6  1  0.80442213  0.82665142  0.48863586  1.0
  H  H7  1  0.79992033  0.70969981  0.42906575  1.0
  H  H8  1  0.27662193  0.16289157  0.48974542  1.0
  H  H9  1  0.27689738  0.17043346  0.17688794  1.0
  H  H10  1  0.80466066  0.32194554  0.32864970  1.0
  H  H11  1  0.79996277  0.26236528  0.38601851  1.0
  H  H12  1  0.80442568  0.01136246  0.33801485  1.0
  H  H13  1  0.79992174  0.07093287  0.28063421  1.0
  H  H14  1  0.27661141  0.01025193  0.67314671  1.0
  H  H15  1  0.27686989  0.32310564  0.99354486  1.0
  H  H16  1  0.80469017  0.17135134  0.99329781  1.0
  H  H17  1  0.79998783  0.11398092  0.87634920  1.0
  H  H18  1  0.80444210  0.16198169  0.67334731  1.0
  H  H19  1  0.79994013  0.21936242  0.79029782  1.0
  H  H20  1  0.31150961  0.65889260  0.23669543  1.0
  H  H21  1  0.22206162  0.72890261  0.24201682  1.0
  H  H22  1  0.31143283  0.67442020  0.42997483  1.0
  H  H23  1  0.22210051  0.60439983  0.42465023  1.0
  H  H24  1  0.31148067  0.26330069  0.42219616  1.0
  H  H25  1  0.22204803  0.25797856  0.48688451  1.0
  H  H26  1  0.31144622  0.07001921  0.24444156  1.0
  H  H27  1  0.22214546  0.07534363  0.17974496  1.0
  H  H28  1  0.31149499  0.07780091  0.84110529  1.0
  H  H29  1  0.22204096  0.01311391  0.77109631  1.0
  H  H30  1  0.31145315  0.25555245  0.82557648  1.0
  H  H31  1  0.22212191  0.32024832  0.89559593  1.0
  C  C32  1  0.53579774  0.04753635  0.59629289  1.0
  C  C33  1  0.53579831  0.90370561  0.45124439  1.0
  C  C34  1  0.53580351  0.04875290  0.45246055  1.0
  C  C35  1  0.53634786  0.42962091  0.21542191  1.0
  C  C36  1  0.53635500  0.28457596  0.21419921  1.0
  C  C37  1  0.53634843  0.28579813  0.07037698  1.0
  C  C38  1  0.53691870  0.83357889  0.41633413  1.0
  C  C39  1  0.53726436  0.49974810  0.25034458  1.0
  C  C40  1  0.39519190  0.80096235  0.35702101  1.0
  C  C41  1  0.39431986  0.73511426  0.32300464  1.0
  C  C42  1  0.39539829  0.53234768  0.30964832  1.0
  C  C43  1  0.39447787  0.59820374  0.34367517  1.0
  C  C44  1  0.68244180  0.53222131  0.22342252  1.0
  C  C45  1  0.67814876  0.59748020  0.25687230  1.0
  C  C46  1  0.68220281  0.80111795  0.44326567  1.0
  C  C47  1  0.67800260  0.73585953  0.40982220  1.0
  C  C48  1  0.53516229  0.70148662  0.35015740  1.0
  C  C49  1  0.53520129  0.63184083  0.31652519  1.0
  C  C50  1  0.53693149  0.08366492  0.41724505  1.0
  C  C51  1  0.53726886  0.24965222  0.24940235  1.0
  C  C52  1  0.39519348  0.14297458  0.44394089  1.0
  C  C53  1  0.39431670  0.17699271  0.41211011  1.0
  C  C54  1  0.39542807  0.19034725  0.22269744  1.0
  C  C55  1  0.39450004  0.15632162  0.25452690  1.0
  C  C56  1  0.68241937  0.27657837  0.30880120  1.0
  C  C57  1  0.67813602  0.24312695  0.34060925  1.0
  C  C58  1  0.68220969  0.05673096  0.35785135  1.0
  C  C59  1  0.67800720  0.09017676  0.32603765  1.0
  C  C60  1  0.53516061  0.14983937  0.35133045  1.0
  C  C61  1  0.53519729  0.18347362  0.31531735  1.0
  C  C62  1  0.53692691  0.08275480  0.66642052  1.0
  C  C63  1  0.53726603  0.25059234  0.00024919  1.0
  C  C64  1  0.39519129  0.05605641  0.69903422  1.0
  C  C65  1  0.39431808  0.08788825  0.76488393  1.0
  C  C66  1  0.39540953  0.27729747  0.96764989  1.0
  C  C67  1  0.39449521  0.24546845  0.90179388  1.0
  C  C68  1  0.68243412  0.19119578  0.96777617  1.0
  C  C69  1  0.67814966  0.15938785  0.90251607  1.0
  C  C70  1  0.68222111  0.14214515  0.69888054  1.0
  C  C71  1  0.67801232  0.17396057  0.76414154  1.0
  C  C72  1  0.53516322  0.14866652  0.79851001  1.0
  C  C73  1  0.53520358  0.18468089  0.86815593  1.0
  N  N74  1  0.24274930  0.70418751  0.26458553  1.0
  N  N75  1  0.24274086  0.62911447  0.40208333  1.0
  N  N76  1  0.24273246  0.23540988  0.43960107  1.0
  N  N77  1  0.24276437  0.09791138  0.22702876  1.0
  N  N78  1  0.24273867  0.06039488  0.79580844  1.0
  N  N79  1  0.24275223  0.27296688  0.87088236  1.0
  O  O80  1  0.30031578  0.01019175  0.44111281  1.0
  O  O81  1  0.30032226  0.05888256  0.56907669  1.0
  O  O82  1  0.30031126  0.93091801  0.48980522  1.0
  O  O83  1  0.77099029  0.05965059  0.49099191  1.0
  O  O84  1  0.77098949  0.93133912  0.44034718  1.0
  O  O85  1  0.77099109  0.00900536  0.56865906  1.0
  O  O86  1  0.30091550  0.27445272  0.09760034  1.0
  O  O87  1  0.30091909  0.40239665  0.17685135  1.0
  O  O88  1  0.30092445  0.32314541  0.22554527  1.0
  O  O89  1  0.77163389  0.32431333  0.09799048  1.0
  O  O90  1  0.77163222  0.27367561  0.17568371  1.0
  O  O91  1  0.77163301  0.40200628  0.22632180  1.0
