# generated using pymatgen
data_Zn2H4C12S2O7
_symmetry_space_group_name_H-M   'P 1'
_cell_length_a   19.66510873
_cell_length_b   19.67032232
_cell_length_c   33.37187509
_cell_angle_alpha   79.16287363
_cell_angle_beta   79.18080339
_cell_angle_gamma   63.94056858
_symmetry_Int_Tables_number   1
_chemical_formula_structural   Zn2H4C12S2O7
_chemical_formula_sum   'Zn16 H32 C96 S16 O56'
_cell_volume   11308.61305775
_cell_formula_units_Z   8
loop_
 _symmetry_equiv_pos_site_id
 _symmetry_equiv_pos_as_xyz
  1  'x, y, z'
loop_
 _atom_site_type_symbol
 _atom_site_label
 _atom_site_symmetry_multiplicity
 _atom_site_fract_x
 _atom_site_fract_y
 _atom_site_fract_z
 _atom_site_occupancy
  Zn  Zn0  1  0.05594903  0.40019432  0.47841862  1.0
  Zn  Zn1  1  0.98314423  0.48252469  0.56069551  1.0
  Zn  Zn2  1  0.05981717  0.55935506  0.48228651  1.0
  Zn  Zn3  1  0.90165617  0.55611268  0.47919205  1.0
  Zn  Zn4  1  0.69442690  0.34983959  0.27209492  1.0
  Zn  Zn5  1  0.68991605  0.18991493  0.26706581  1.0
  Zn  Zn6  1  0.76766520  0.26786300  0.19083341  1.0
  Zn  Zn7  1  0.84935680  0.19528206  0.27230210  1.0
  Zn  Zn8  1  0.26678172  0.76627336  0.68918922  1.0
  Zn  Zn9  1  0.34876756  0.69413545  0.77159202  1.0
  Zn  Zn10  1  0.19386470  0.84728776  0.77087896  1.0
  Zn  Zn11  1  0.18932143  0.68881637  0.76639007  1.0
  Zn  Zn12  1  0.56039828  0.06044653  0.98338378  1.0
  Zn  Zn13  1  0.40113554  0.05499806  0.97811067  1.0
  Zn  Zn14  1  0.55449256  0.90142253  0.97792650  1.0
  Zn  Zn15  1  0.48373087  0.98389766  0.06032276  1.0
  H  H16  1  0.95390066  0.24863173  0.35129061  1.0
  H  H17  1  0.74674464  0.45558532  0.35111557  1.0
  H  H18  1  0.00096093  0.29768676  0.39940982  1.0
  H  H19  1  0.09745738  0.59735095  0.70004834  1.0
  H  H20  1  0.20109156  0.70108114  0.59665401  1.0
  H  H21  1  0.04984841  0.54981865  0.65142122  1.0
  H  H22  1  0.28621876  0.51069669  0.40923767  1.0
  H  H23  1  0.46395815  0.23917741  0.34067109  1.0
  H  H24  1  0.77156257  0.54701559  0.64853554  1.0
  H  H25  1  0.47834176  0.70298454  0.60151993  1.0
  H  H26  1  0.04716136  0.27130520  0.64858092  1.0
  H  H27  1  0.20313597  0.97813824  0.60160942  1.0
  H  H28  1  0.80069708  0.77926210  0.40220252  1.0
  H  H29  1  0.94938044  0.97090627  0.34779118  1.0
  H  H30  1  0.54989500  0.04990995  0.15262277  1.0
  H  H31  1  0.65332679  0.15343246  0.04900950  1.0
  H  H32  1  0.59852880  0.09839719  0.20021393  1.0
  H  H33  1  0.70284276  0.47869403  0.10144776  1.0
  H  H34  1  0.54696992  0.77196745  0.14832918  1.0
  H  H35  1  0.08697468  0.10845968  0.21010102  1.0
  H  H36  1  0.16344842  0.14117493  0.04000554  1.0
  H  H37  1  0.50140096  0.79597005  0.89876671  1.0
  H  H38  1  0.29453939  0.00318577  0.89877654  1.0
  H  H39  1  0.45233583  0.74900016  0.85063820  1.0
  H  H40  1  0.44895384  0.47096360  0.84774627  1.0
  H  H41  1  0.30083734  0.27885494  0.90231857  1.0
  H  H42  1  0.96378163  0.73901817  0.84074214  1.0
  H  H43  1  0.78596600  0.01055455  0.90935805  1.0
  H  H44  1  0.81007152  0.52755989  0.41886610  1.0
  H  H45  1  0.13545187  0.63562829  0.52676181  1.0
  H  H46  1  0.72330770  0.22314218  0.11457966  1.0
  H  H47  1  0.22237917  0.93987898  0.83111367  1.0
  C  C48  1  0.06140044  0.31555746  0.56179900  1.0
  C  C49  1  0.06939217  0.56955594  0.56958617  1.0
  C  C50  1  0.18439902  0.43886837  0.43850107  1.0
  C  C51  1  0.93803893  0.68436607  0.43854370  1.0
  C  C52  1  0.93062772  0.43028418  0.43048902  1.0
  C  C53  1  0.81582586  0.56134711  0.56177011  1.0
  C  C54  1  0.56571216  0.31115486  0.31138936  1.0
  C  C55  1  0.68049941  0.18036035  0.18068126  1.0
  C  C56  1  0.68864700  0.43440102  0.18836156  1.0
  C  C57  1  0.93461496  0.18846578  0.18895882  1.0
  C  C58  1  0.81889727  0.32063626  0.31975545  1.0
  C  C59  1  0.81205264  0.06596799  0.31148812  1.0
  C  C60  1  0.43396215  0.68892797  0.68831070  1.0
  C  C61  1  0.31970990  0.81928417  0.81940781  1.0
  C  C62  1  0.18896584  0.93369146  0.68834744  1.0
  C  C63  1  0.06552101  0.81082408  0.81127194  1.0
  C  C64  1  0.18069305  0.68070549  0.67978271  1.0
  C  C65  1  0.31159479  0.56555289  0.81132994  1.0
  C  C66  1  0.43822071  0.18406234  0.93862066  1.0
  C  C67  1  0.42946456  0.93115809  0.93029353  1.0
  C  C68  1  0.68388447  0.93891306  0.93855336  1.0
  C  C69  1  0.56114005  0.81642965  0.06145944  1.0
  C  C70  1  0.57006756  0.07017207  0.06927526  1.0
  C  C71  1  0.31591448  0.06168873  0.06128847  1.0
  C  C72  1  0.90097144  0.40342121  0.40220475  1.0
  C  C73  1  0.84758013  0.34935582  0.34845415  1.0
  C  C74  1  0.82823945  0.44868909  0.38842785  1.0
  C  C75  1  0.91968172  0.30417588  0.36195001  1.0
  C  C76  1  0.80246272  0.42070495  0.36153880  1.0
  C  C77  1  0.94546572  0.33142928  0.38847134  1.0
  C  C78  1  0.09839693  0.59848514  0.59716138  1.0
  C  C79  1  0.15198451  0.65200231  0.65108981  1.0
  C  C80  1  0.14168499  0.64170920  0.58140648  1.0
  C  C81  1  0.10920361  0.60919359  0.66693979  1.0
  C  C82  1  0.16801172  0.66801814  0.60885663  1.0
  C  C83  1  0.08304763  0.58307012  0.64003716  1.0
  C  C84  1  0.30363812  0.45384817  0.40119169  1.0
  C  C85  1  0.44643040  0.29600722  0.34876951  1.0
  C  C86  1  0.25911928  0.41353042  0.41364741  1.0
  C  C87  1  0.49089494  0.33636092  0.33633975  1.0
  C  C88  1  0.37820379  0.33869746  0.37238466  1.0
  C  C89  1  0.37183225  0.41115855  0.37758148  1.0
  C  C90  1  0.72630802  0.57607506  0.62884854  1.0
  C  C91  1  0.52358079  0.67397547  0.62121244  1.0
  C  C92  1  0.74091191  0.58634114  0.58643364  1.0
  C  C93  1  0.50901729  0.66376712  0.66361041  1.0
  C  C94  1  0.60267306  0.64209632  0.60848637  1.0
  C  C95  1  0.64724198  0.60795625  0.64156645  1.0
  C  C96  1  0.07623694  0.22605696  0.62890826  1.0
  C  C97  1  0.17414100  0.02334862  0.62130241  1.0
  C  C98  1  0.08649291  0.24063762  0.58649323  1.0
  C  C99  1  0.16390220  0.00876660  0.66370045  1.0
  C  C100  1  0.14228373  0.10242673  0.60857887  1.0
  C  C101  1  0.10813400  0.14698541  0.64164476  1.0
  C  C102  1  0.84485134  0.80002162  0.39753050  1.0
  C  C103  1  0.90531933  0.95003296  0.35244747  1.0
  C  C104  1  0.91359773  0.75904072  0.41363020  1.0
  C  C105  1  0.83659781  0.99102444  0.33638169  1.0
  C  C106  1  0.90847398  0.88044640  0.37469137  1.0
  C  C107  1  0.84176778  0.86950960  0.37522576  1.0
  C  C108  1  0.65284667  0.15277706  0.15169048  1.0
  C  C109  1  0.59882374  0.09887366  0.09801172  1.0
  C  C110  1  0.66853805  0.16855253  0.10843169  1.0
  C  C111  1  0.58301841  0.08301961  0.14082870  1.0
  C  C112  1  0.64107782  0.14113610  0.08206981  1.0
  C  C113  1  0.60994377  0.10987729  0.16699810  1.0
  C  C114  1  0.67376542  0.52388742  0.12115563  1.0
  C  C115  1  0.57601079  0.72672341  0.12865054  1.0
  C  C116  1  0.66348383  0.50929984  0.16357569  1.0
  C  C117  1  0.58628202  0.74133072  0.08624715  1.0
  C  C118  1  0.60778598  0.64761004  0.14140898  1.0
  C  C119  1  0.64194138  0.60297994  0.10838078  1.0
  C  C120  1  0.08006111  0.12467665  0.17763843  1.0
  C  C121  1  0.17028627  0.12491915  0.07248233  1.0
  C  C122  1  0.00911522  0.16345852  0.16376103  1.0
  C  C123  1  0.24117172  0.08630380  0.08642254  1.0
  C  C124  1  0.11152562  0.13892984  0.10563830  1.0
  C  C125  1  0.13874683  0.11056279  0.14448169  1.0
  C  C126  1  0.34665062  0.84896403  0.84770418  1.0
  C  C127  1  0.40077458  0.90241445  0.90154458  1.0
  C  C128  1  0.30144509  0.92170706  0.86145867  1.0
  C  C129  1  0.44588009  0.83028633  0.88807465  1.0
  C  C130  1  0.32944507  0.94748424  0.88836507  1.0
  C  C131  1  0.41862101  0.80452403  0.86151966  1.0
  C  C132  1  0.40491429  0.45004222  0.85244080  1.0
  C  C133  1  0.34485980  0.29978088  0.89762450  1.0
  C  C134  1  0.33615105  0.49088368  0.83635685  1.0
  C  C135  1  0.41361927  0.25892524  0.91366814  1.0
  C  C136  1  0.34160236  0.36935232  0.87532535  1.0
  C  C137  1  0.40821386  0.38045725  0.87474763  1.0
  C  C138  1  0.94631658  0.79584567  0.84882712  1.0
  C  C139  1  0.80345638  0.95371640  0.90126931  1.0
  C  C140  1  0.99091142  0.83608371  0.83635173  1.0
  C  C141  1  0.75886022  0.91348676  0.91365912  1.0
  C  C142  1  0.87174051  0.91098183  0.87767490  1.0
  C  C143  1  0.87809902  0.83855225  0.87244701  1.0
  S  S144  1  0.29969156  0.32389180  0.39683106  1.0
  S  S145  1  0.45035517  0.42595486  0.35316581  1.0
  S  S146  1  0.65900483  0.63451971  0.56185141  1.0
  S  S147  1  0.59086173  0.61556706  0.68820265  1.0
  S  S148  1  0.13471554  0.15875826  0.56193903  1.0
  S  S149  1  0.11570688  0.09059244  0.68828417  1.0
  S  S150  1  0.97462408  0.80452426  0.40178660  1.0
  S  S151  1  0.77562375  0.94550984  0.34813789  1.0
  S  S152  1  0.61526064  0.59129000  0.18807269  1.0
  S  S153  1  0.63440386  0.65938514  0.06172513  1.0
  S  S154  1  0.01335419  0.18289034  0.11048728  1.0
  S  S155  1  0.23691603  0.06676538  0.13966771  1.0
  S  S156  1  0.27533974  0.44516578  0.84823043  1.0
  S  S157  1  0.47448474  0.30455204  0.90182284  1.0
  S  S158  1  0.95035018  0.92568862  0.85325864  1.0
  S  S159  1  0.79944388  0.82386984  0.89683170  1.0
  O  O160  1  0.00030225  0.49905609  0.50035324  1.0
  O  O161  1  0.07762941  0.31553361  0.52278148  1.0
  O  O162  1  0.03104183  0.53120524  0.58535601  1.0
  O  O163  1  0.15700110  0.50544751  0.44980590  1.0
  O  O164  1  0.02577475  0.37382104  0.58135293  1.0
  O  O165  1  0.15329294  0.39192367  0.44661888  1.0
  O  O166  1  0.08517918  0.58543729  0.53035900  1.0
  O  O167  1  0.00462950  0.65674152  0.45006652  1.0
  O  O168  1  0.88725096  0.49700099  0.44220728  1.0
  O  O169  1  0.89106351  0.65343502  0.44657528  1.0
  O  O170  1  0.99602512  0.38750682  0.44179034  1.0
  O  O171  1  0.87419025  0.52580207  0.58124379  1.0
  O  O172  1  0.81575973  0.57766699  0.52271984  1.0
  O  O173  1  0.75011513  0.25032281  0.25074225  1.0
  O  O174  1  0.59637602  0.35842987  0.30331360  1.0
  O  O175  1  0.66476103  0.16462664  0.21904900  1.0
  O  O176  1  0.72438430  0.37597441  0.16888513  1.0
  O  O177  1  0.59315938  0.24465484  0.30010027  1.0
  O  O178  1  0.67254459  0.43438968  0.22736589  1.0
  O  O179  1  0.71976593  0.21957081  0.16488671  1.0
  O  O180  1  0.87601882  0.22410020  0.16944152  1.0
  O  O181  1  0.86262855  0.25482643  0.30877302  1.0
  O  O182  1  0.93470607  0.17269230  0.22789139  1.0
  O  O183  1  0.75321134  0.36407829  0.30859790  1.0
  O  O184  1  0.74552065  0.09330500  0.30000714  1.0
  O  O185  1  0.85903775  0.09677632  0.30363451  1.0
  O  O186  1  0.25018662  0.74887536  0.74951766  1.0
  O  O187  1  0.37586755  0.72461280  0.66867636  1.0
  O  O188  1  0.36247900  0.75394572  0.80804520  1.0
  O  O189  1  0.17271935  0.93364345  0.72737255  1.0
  O  O190  1  0.43400453  0.67264321  0.72730819  1.0
  O  O191  1  0.22449114  0.87556103  0.66876777  1.0
  O  O192  1  0.25289004  0.86254966  0.80775579  1.0
  O  O193  1  0.09654645  0.85793610  0.80327477  1.0
  O  O194  1  0.16432818  0.66443109  0.71818318  1.0
  O  O195  1  0.09285247  0.74461747  0.79963306  1.0
  O  O196  1  0.21915537  0.71909598  0.66354663  1.0
  O  O197  1  0.35864072  0.59638625  0.80336544  1.0
  O  O198  1  0.24511853  0.59287664  0.79974907  1.0
  O  O199  1  0.49992899  0.00016632  0.99995921  1.0
  O  O200  1  0.50487454  0.15658984  0.94992185  1.0
  O  O201  1  0.38600091  0.99685330  0.94145448  1.0
  O  O202  1  0.65286471  0.89191697  0.94649719  1.0
  O  O203  1  0.39104507  0.15347328  0.94668989  1.0
  O  O204  1  0.65670121  0.00529730  0.94990289  1.0
  O  O205  1  0.49525673  0.88754524  0.94133854  1.0
  O  O206  1  0.57691197  0.81627647  0.02245723  1.0
  O  O207  1  0.53162424  0.03176943  0.08559600  1.0
  O  O208  1  0.52603315  0.87465018  0.08102596  1.0
  O  O209  1  0.58622167  0.08629480  0.03083706  1.0
  O  O210  1  0.31560985  0.07786395  0.02240978  1.0
  O  O211  1  0.37436067  0.02630335  0.08085284  1.0
  O  O212  1  0.78203298  0.51811425  0.40001694  1.0
  O  O213  1  0.15902038  0.65899532  0.54087992  1.0
  O  O214  1  0.70905337  0.20910611  0.09113118  1.0
  O  O215  1  0.23200994  0.96796094  0.84985162  1.0
