# generated using pymatgen
data_AlC12S3(BrO2)3
_symmetry_space_group_name_H-M   'P 1'
_cell_length_a   3.99190989
_cell_length_b   20.14026728
_cell_length_c   20.14034901
_cell_angle_alpha   59.99983061
_cell_angle_beta   90.00009538
_cell_angle_gamma   89.99987725
_symmetry_Int_Tables_number   1
_chemical_formula_structural   AlC12S3(BrO2)3
_chemical_formula_sum   'Al2 C24 S6 Br6 O12'
_cell_volume   1402.30615948
_cell_formula_units_Z   2
loop_
 _symmetry_equiv_pos_site_id
 _symmetry_equiv_pos_as_xyz
  1  'x, y, z'
loop_
 _atom_site_type_symbol
 _atom_site_label
 _atom_site_symmetry_multiplicity
 _atom_site_fract_x
 _atom_site_fract_y
 _atom_site_fract_z
 _atom_site_occupancy
  Al  Al0  1  0.00002758  0.50000097  0.99999886  1.0
  Al  Al1  1  0.00002698  0.16666856  0.66666460  1.0
  C  C2  1  0.49971739  0.61727237  0.94197512  1.0
  C  C3  1  0.49971149  0.44075282  0.11727099  1.0
  C  C4  1  0.49970826  0.44197456  0.94075218  1.0
  C  C5  1  0.49970933  0.22592511  0.54939113  1.0
  C  C6  1  0.49970504  0.22468365  0.72592256  1.0
  C  C7  1  0.49970593  0.04939295  0.72468242  1.0
  C  C8  1  0.50982059  0.32005422  0.25106125  1.0
  C  C9  1  0.50983866  0.34663038  0.41559744  1.0
  C  C10  1  0.50125266  0.39847468  0.20213671  1.0
  C  C11  1  0.50124938  0.26821051  0.46452082  1.0
  C  C12  1  0.49676430  0.36578170  0.33767305  1.0
  C  C13  1  0.49675207  0.30090036  0.32898677  1.0
  C  C14  1  0.50982330  0.42888244  0.82005311  1.0
  C  C15  1  0.50982689  0.23776924  0.84662970  1.0
  C  C16  1  0.50125644  0.39938767  0.89847402  1.0
  C  C17  1  0.50123905  0.26726621  0.76820936  1.0
  C  C18  1  0.49676024  0.29654223  0.86578093  1.0
  C  C19  1  0.49675208  0.37011061  0.80089958  1.0
  C  C20  1  0.50982459  0.75106492  0.92888222  1.0
  C  C21  1  0.50982548  0.91560212  0.73776715  1.0
  C  C22  1  0.50125739  0.70213983  0.89938469  1.0
  C  C23  1  0.50123798  0.96452446  0.76726524  1.0
  C  C24  1  0.49676219  0.83767741  0.79653914  1.0
  C  C25  1  0.49675252  0.82899129  0.87010792  1.0
  S  S26  1  0.48261741  0.44949545  0.25082979  1.0
  S  S27  1  0.48259923  0.21718748  0.41582830  1.0
  S  S28  1  0.48261695  0.29967272  0.94949355  1.0
  S  S29  1  0.48260064  0.36698290  0.71718637  1.0
  S  S30  1  0.48261153  0.75083282  0.79967149  1.0
  S  S31  1  0.48260094  0.91583190  0.86697958  1.0
  Br  Br32  1  0.51103079  0.24595802  0.22032369  1.0
  Br  Br33  1  0.51107340  0.42072603  0.44633213  1.0
  Br  Br34  1  0.51103742  0.53371796  0.74595658  1.0
  Br  Br35  1  0.51105020  0.13293692  0.92072280  1.0
  Br  Br36  1  0.51103763  0.72032617  0.03371517  1.0
  Br  Br37  1  0.51105488  0.94633980  0.63293535  1.0
  O  O38  1  0.26489111  0.42650613  0.98929345  1.0
  O  O39  1  0.26489005  0.58420048  0.92650447  1.0
  O  O40  1  0.26488867  0.48929635  0.08419724  1.0
  O  O41  1  0.73385903  0.49029809  0.92605832  1.0
  O  O42  1  0.73386000  0.42605929  0.08364205  1.0
  O  O43  1  0.73385881  0.58364336  0.99029761  1.0
  O  O44  1  0.26489090  0.08246596  0.74015402  1.0
  O  O45  1  0.26489479  0.17738200  0.58246127  1.0
  O  O46  1  0.26488984  0.24015768  0.67737824  1.0
  O  O47  1  0.73385914  0.08302567  0.67636124  1.0
  O  O48  1  0.73386143  0.17636330  0.74061085  1.0
  O  O49  1  0.73386297  0.24061374  0.58302369  1.0
