# generated using pymatgen
data_AlH4C10ClO5F
_symmetry_space_group_name_H-M   'P 1'
_cell_length_a   6.64165120
_cell_length_b   8.83726306
_cell_length_c   17.65133300
_cell_angle_alpha   81.00196857
_cell_angle_beta   80.99367422
_cell_angle_gamma   75.51825016
_symmetry_Int_Tables_number   1
_chemical_formula_structural   AlH4C10ClO5F
_chemical_formula_sum   'Al2 H8 C20 Cl2 O10 F2'
_cell_volume   983.26746389
_cell_formula_units_Z   2
loop_
 _symmetry_equiv_pos_site_id
 _symmetry_equiv_pos_as_xyz
  1  'x, y, z'
loop_
 _atom_site_type_symbol
 _atom_site_label
 _atom_site_symmetry_multiplicity
 _atom_site_fract_x
 _atom_site_fract_y
 _atom_site_fract_z
 _atom_site_occupancy
  Al  Al0  1  0.49981034  0.50021888  0.50000020  1.0
  Al  Al1  1  0.99982184  0.50012397  0.49998618  1.0
  H  H2  1  0.28568921  0.31638314  0.55652678  1.0
  H  H3  1  0.71419139  0.68398909  0.44348511  1.0
  H  H4  1  0.62444571  0.58015352  0.26913296  1.0
  H  H5  1  0.69767820  0.58525700  0.12525454  1.0
  H  H6  1  0.09035073  0.38666756  0.26995390  1.0
  H  H7  1  0.90951541  0.61348138  0.72999920  1.0
  H  H8  1  0.37577619  0.41956518  0.73098561  1.0
  H  H9  1  0.30303025  0.41414670  0.87491864  1.0
  C  C10  1  0.83605125  0.21986155  0.50130573  1.0
  C  C11  1  0.69754502  0.50743933  0.63756618  1.0
  C  C12  1  0.16362043  0.78051171  0.49859842  1.0
  C  C13  1  0.30203710  0.49280587  0.36242697  1.0
  C  C14  1  0.35147791  0.48569610  0.27758292  1.0
  C  C15  1  0.52501733  0.53916506  0.23711878  1.0
  C  C16  1  0.56584966  0.54151899  0.15760901  1.0
  C  C17  1  0.43807737  0.48687829  0.11618140  1.0
  C  C18  1  0.26846823  0.42747674  0.15845644  1.0
  C  C19  1  0.22372930  0.42908094  0.23802226  1.0
  C  C20  1  0.47988018  0.49405584  0.03516020  1.0
  C  C21  1  0.52079543  0.50555048  0.96493814  1.0
  C  C22  1  0.56253878  0.51267086  0.88389280  1.0
  C  C23  1  0.73202616  0.57220690  0.84153323  1.0
  C  C24  1  0.77646894  0.57081793  0.76196933  1.0
  C  C25  1  0.64859819  0.51416132  0.72248765  1.0
  C  C26  1  0.47523038  0.46053287  0.76298619  1.0
  C  C27  1  0.43468831  0.45800405  0.84251092  1.0
  C  C28  1  0.90181993  0.04645866  0.49794203  1.0
  C  C29  1  0.09791911  0.95392653  0.50185263  1.0
  Cl  Cl30  1  0.11439782  0.35351454  0.11009914  1.0
  Cl  Cl31  1  0.88613920  0.64619574  0.88987207  1.0
  O  O32  1  0.64855117  0.28442772  0.48973628  1.0
  O  O33  1  0.87401830  0.53082204  0.60464898  1.0
  O  O34  1  0.02791994  0.71367043  0.48429890  1.0
  O  O35  1  0.44022056  0.52602405  0.39566879  1.0
  O  O36  1  0.35114089  0.71597474  0.51021201  1.0
  O  O37  1  0.12546968  0.46955010  0.39527526  1.0
  O  O38  1  0.97184155  0.28659992  0.51567935  1.0
  O  O39  1  0.55910069  0.47430568  0.60438621  1.0
  O  O40  1  0.25882720  0.42723247  0.53650811  1.0
  O  O41  1  0.74084137  0.57309964  0.46344050  1.0
  F  F42  1  0.74441091  0.98225544  0.48937248  1.0
  F  F43  1  0.25531911  0.01811460  0.51038899  1.0
