# generated using pymatgen
data_Ho2Cu3H30C24(NO4)6
_symmetry_space_group_name_H-M   'P 1'
_cell_length_a   13.38492858
_cell_length_b   13.38500005
_cell_length_c   14.29211756
_cell_angle_alpha   90.00008207
_cell_angle_beta   90.00023738
_cell_angle_gamma   59.99989381
_symmetry_Int_Tables_number   1
_chemical_formula_structural   Ho2Cu3H30C24(NO4)6
_chemical_formula_sum   'Ho4 Cu6 H60 C48 N12 O48'
_cell_volume   2217.48750866
_cell_formula_units_Z   2
loop_
 _symmetry_equiv_pos_site_id
 _symmetry_equiv_pos_as_xyz
  1  'x, y, z'
loop_
 _atom_site_type_symbol
 _atom_site_label
 _atom_site_symmetry_multiplicity
 _atom_site_fract_x
 _atom_site_fract_y
 _atom_site_fract_z
 _atom_site_occupancy
  Ho  Ho0  1  0.66666667  0.66666667  0.83151816  1.0
  Ho  Ho1  1  0.33333333  0.33333333  0.66847844  1.0
  Ho  Ho2  1  0.33333333  0.33333333  0.16848465  1.0
  Ho  Ho3  1  0.66666667  0.66666667  0.33151947  1.0
  Cu  Cu4  1  0.00000086  0.50000011  0.00000034  1.0
  Cu  Cu5  1  0.50000004  0.00000056  0.99999904  1.0
  Cu  Cu6  1  0.49999933  0.49999954  0.99999990  1.0
  Cu  Cu7  1  0.99999894  0.50000084  0.50000028  1.0
  Cu  Cu8  1  0.49999981  0.49999932  0.49999999  1.0
  Cu  Cu9  1  0.50000073  0.99999993  0.50000035  1.0
  H  H10  1  0.03670692  0.32328038  0.08375135  1.0
  H  H11  1  0.86347620  0.30484979  0.02614779  1.0
  H  H12  1  0.97292270  0.28678536  0.94556527  1.0
  H  H13  1  0.91489985  0.39584183  0.20654179  1.0
  H  H14  1  0.79566939  0.46272855  0.13173743  1.0
  H  H15  1  0.64001791  0.03670339  0.08375022  1.0
  H  H16  1  0.83168065  0.86347888  0.02614740  1.0
  H  H17  1  0.74029278  0.97292204  0.94556388  1.0
  H  H18  1  0.68926162  0.91489678  0.20654100  1.0
  H  H19  1  0.74160781  0.79566882  0.13173965  1.0
  H  H20  1  0.32328177  0.64001678  0.08375281  1.0
  H  H21  1  0.30484908  0.83167502  0.02614846  1.0
  H  H22  1  0.28678242  0.74029330  0.94556776  1.0
  H  H23  1  0.39585087  0.68925619  0.20654308  1.0
  H  H24  1  0.46273273  0.74160273  0.13173978  1.0
  H  H25  1  0.96329409  0.35997818  0.41625466  1.0
  H  H26  1  0.13652530  0.16831717  0.47385739  1.0
  H  H27  1  0.02707557  0.25969706  0.55443872  1.0
  H  H28  1  0.08510293  0.31073934  0.29346564  1.0
  H  H29  1  0.20433126  0.25840003  0.36827000  1.0
  H  H30  1  0.35997548  0.67672660  0.41625161  1.0
  H  H31  1  0.16831825  0.69515279  0.47385780  1.0
  H  H32  1  0.25969979  0.71322483  0.55443527  1.0
  H  H33  1  0.31073713  0.60415502  0.29346067  1.0
  H  H34  1  0.25839781  0.53726967  0.36826469  1.0
  H  H35  1  0.67672709  0.96329579  0.41625031  1.0
  H  H36  1  0.69514864  0.13653178  0.47385634  1.0
  H  H37  1  0.71322811  0.02707630  0.55443498  1.0
  H  H38  1  0.60415303  0.08510764  0.29346159  1.0
  H  H39  1  0.53726830  0.20433220  0.36826711  1.0
  H  H40  1  0.96329411  0.67672034  0.91624796  1.0
  H  H41  1  0.13652366  0.69515179  0.97385012  1.0
  H  H42  1  0.02707833  0.71321537  0.05443263  1.0
  H  H43  1  0.08510311  0.60415803  0.79345682  1.0
  H  H44  1  0.20433089  0.53727218  0.86826118  1.0
  H  H45  1  0.35998238  0.96329733  0.91625049  1.0
  H  H46  1  0.16832007  0.13652098  0.97385261  1.0
  H  H47  1  0.25970719  0.02707782  0.05443543  1.0
  H  H48  1  0.31073612  0.08510307  0.79345901  1.0
  H  H49  1  0.25839248  0.20433190  0.86826036  1.0
  H  H50  1  0.67671702  0.35998394  0.91624859  1.0
  H  H51  1  0.69515120  0.16832571  0.97385155  1.0
  H  H52  1  0.71321681  0.25970655  0.05443295  1.0
  H  H53  1  0.60414867  0.31074453  0.79345762  1.0
  H  H54  1  0.53726799  0.25839713  0.86826093  1.0
  H  H55  1  0.03670395  0.64002255  0.58374675  1.0
  H  H56  1  0.86347126  0.83168354  0.52614402  1.0
  H  H57  1  0.97292291  0.74030280  0.44556339  1.0
  H  H58  1  0.91489425  0.68926311  0.70653577  1.0
  H  H59  1  0.79566710  0.74160155  0.63173210  1.0
  H  H60  1  0.64002450  0.32327325  0.58374840  1.0
  H  H61  1  0.83168279  0.30484793  0.52614221  1.0
  H  H62  1  0.74030049  0.28677590  0.44556474  1.0
  H  H63  1  0.68926402  0.39584398  0.70653864  1.0
  H  H64  1  0.74160173  0.46273105  0.63173601  1.0
  H  H65  1  0.32327406  0.03670321  0.58374900  1.0
  H  H66  1  0.30485208  0.86346808  0.52614367  1.0
  H  H67  1  0.28677261  0.97292356  0.44556503  1.0
  H  H68  1  0.39584726  0.91489308  0.70653842  1.0
  H  H69  1  0.46273241  0.79566766  0.63173360  1.0
  C  C70  1  0.81571263  0.44548483  0.93031261  1.0
  C  C71  1  0.90500069  0.34881496  0.99232383  1.0
  C  C72  1  0.88308308  0.44855959  0.14274995  1.0
  C  C73  1  0.87146437  0.56572911  0.16158767  1.0
  C  C74  1  0.73880781  0.81570943  0.93031271  1.0
  C  C75  1  0.74619029  0.90499872  0.99232319  1.0
  C  C76  1  0.66836303  0.88308116  0.14274913  1.0
  C  C77  1  0.56281377  0.87145767  0.16158658  1.0
  C  C78  1  0.44548300  0.73880560  0.93031350  1.0
  C  C79  1  0.34881411  0.74618522  0.99232372  1.0
  C  C80  1  0.44856284  0.66835846  0.14274927  1.0
  C  C81  1  0.56573024  0.56280636  0.16158218  1.0
  C  C82  1  0.18428421  0.26119336  0.56969428  1.0
  C  C83  1  0.09499757  0.25380650  0.50768300  1.0
  C  C84  1  0.11691832  0.33164114  0.35725752  1.0
  C  C85  1  0.12853264  0.43719114  0.33842135  1.0
  C  C86  1  0.26119176  0.55452321  0.56969252  1.0
  C  C87  1  0.25380907  0.65119197  0.50768077  1.0
  C  C88  1  0.33164031  0.55143988  0.35725388  1.0
  C  C89  1  0.43718963  0.43427268  0.33842055  1.0
  C  C90  1  0.55452387  0.18428160  0.56969424  1.0
  C  C91  1  0.65119287  0.09499806  0.50768116  1.0
  C  C92  1  0.55143835  0.11692003  0.35725471  1.0
  C  C93  1  0.43427213  0.12853466  0.33841894  1.0
  C  C94  1  0.18428990  0.55451589  0.06968739  1.0
  C  C95  1  0.09500110  0.65118575  0.00767478  1.0
  C  C96  1  0.11691796  0.55144112  0.85724865  1.0
  C  C97  1  0.12853357  0.43427332  0.83841304  1.0
  C  C98  1  0.26119322  0.18429129  0.06968870  1.0
  C  C99  1  0.25381117  0.09500115  0.00767682  1.0
  C  C100  1  0.33163694  0.11691870  0.85725018  1.0
  C  C101  1  0.43718718  0.12853874  0.83841203  1.0
  C  C102  1  0.55451869  0.26119081  0.06968861  1.0
  C  C103  1  0.65118512  0.25381463  0.00767699  1.0
  C  C104  1  0.55143713  0.33164140  0.85725074  1.0
  C  C105  1  0.43426836  0.43719177  0.83841573  1.0
  C  C106  1  0.81571407  0.73880391  0.43030713  1.0
  C  C107  1  0.90499898  0.74619423  0.49231841  1.0
  C  C108  1  0.88307973  0.66835957  0.64274389  1.0
  C  C109  1  0.87146616  0.56280957  0.66158075  1.0
  C  C110  1  0.73880617  0.44547924  0.43030748  1.0
  C  C111  1  0.74619122  0.34880875  0.49231924  1.0
  C  C112  1  0.66836052  0.44855826  0.64274543  1.0
  C  C113  1  0.56281120  0.56572546  0.66158296  1.0
  C  C114  1  0.44547728  0.81571739  0.43030437  1.0
  C  C115  1  0.34880785  0.90500180  0.49231884  1.0
  C  C116  1  0.44856045  0.88308069  0.64274460  1.0
  C  C117  1  0.56572623  0.87146692  0.66158177  1.0
  N  N118  1  0.95731321  0.38993758  0.06134994  1.0
  N  N119  1  0.65275301  0.95731159  0.06134834  1.0
  N  N120  1  0.38993989  0.65275016  0.06135043  1.0
  N  N121  1  0.04268709  0.34724551  0.43865680  1.0
  N  N122  1  0.34724502  0.61006595  0.43865336  1.0
  N  N123  1  0.61006783  0.04268775  0.43865349  1.0
  N  N124  1  0.04268826  0.61006228  0.93864866  1.0
  N  N125  1  0.34724728  0.04268913  0.93865167  1.0
  N  N126  1  0.61005890  0.34725057  0.93865028  1.0
  N  N127  1  0.95731052  0.65275607  0.56134461  1.0
  N  N128  1  0.65275539  0.38993304  0.56134665  1.0
  N  N129  1  0.38993363  0.95731212  0.56134652  1.0
  O  O130  1  0.80724473  0.54495038  0.93700656  1.0
  O  O131  1  0.75591436  0.42383429  0.87463564  1.0
  O  O132  1  0.81204903  0.62354794  0.23076348  1.0
  O  O133  1  0.92054109  0.60297531  0.10630556  1.0
  O  O134  1  0.64780520  0.80724677  0.93700923  1.0
  O  O135  1  0.82025334  0.75590896  0.87463808  1.0
  O  O136  1  0.56441987  0.81203953  0.23075893  1.0
  O  O137  1  0.47648669  0.92053507  0.10630492  1.0
  O  O138  1  0.54494992  0.64780701  0.93700543  1.0
  O  O139  1  0.42383278  0.82025582  0.87464016  1.0
  O  O140  1  0.62355096  0.56440903  0.23076168  1.0
  O  O141  1  0.60297975  0.47648371  0.10630487  1.0
  O  O142  1  0.19274500  0.35219424  0.56299836  1.0
  O  O143  1  0.24408860  0.17974302  0.62536699  1.0
  O  O144  1  0.18795385  0.43559073  0.26923718  1.0
  O  O145  1  0.07946031  0.52351642  0.39369584  1.0
  O  O146  1  0.35219504  0.45505914  0.56300153  1.0
  O  O147  1  0.17973897  0.57617156  0.62536153  1.0
  O  O148  1  0.43558947  0.37645057  0.26923761  1.0
  O  O149  1  0.52351479  0.39701833  0.39369801  1.0
  O  O150  1  0.45505964  0.19274652  0.56300086  1.0
  O  O151  1  0.57617375  0.24408437  0.62536697  1.0
  O  O152  1  0.37644718  0.18795210  0.26924017  1.0
  O  O153  1  0.39702454  0.07945848  0.39369826  1.0
  O  O154  1  0.19275705  0.45505034  0.06299414  1.0
  O  O155  1  0.24408998  0.57616729  0.12536087  1.0
  O  O156  1  0.18795094  0.37645191  0.76923652  1.0
  O  O157  1  0.07945833  0.39702714  0.89369444  1.0
  O  O158  1  0.35219509  0.19275395  0.06299148  1.0
  O  O159  1  0.17974781  0.24409004  0.12536262  1.0
  O  O160  1  0.43558214  0.18795774  0.76923618  1.0
  O  O161  1  0.52351446  0.07946393  0.89369159  1.0
  O  O162  1  0.45505091  0.35219113  0.06299878  1.0
  O  O163  1  0.57617041  0.17974059  0.12535844  1.0
  O  O164  1  0.37644956  0.43558824  0.76923902  1.0
  O  O165  1  0.39701873  0.52351614  0.89369374  1.0
  O  O166  1  0.80725316  0.64780476  0.43700025  1.0
  O  O167  1  0.75590988  0.82025683  0.37463442  1.0
  O  O168  1  0.81204538  0.56440912  0.73076493  1.0
  O  O169  1  0.92053923  0.47648431  0.60630557  1.0
  O  O170  1  0.64780407  0.54494244  0.43699848  1.0
  O  O171  1  0.82025939  0.42383002  0.37463708  1.0
  O  O172  1  0.56441203  0.62354324  0.73075820  1.0
  O  O173  1  0.47648424  0.60297893  0.60630270  1.0
  O  O174  1  0.54494151  0.80725247  0.43699775  1.0
  O  O175  1  0.42382622  0.75591549  0.37463234  1.0
  O  O176  1  0.62355055  0.81204776  0.73075773  1.0
  O  O177  1  0.60297574  0.92054225  0.60630245  1.0
