# generated using pymatgen
data_Al6H42C84Br13O28F13
_symmetry_space_group_name_H-M   'P 1'
_cell_length_a   13.70191674
_cell_length_b   13.74583915
_cell_length_c   28.06104602
_cell_angle_alpha   90.37682802
_cell_angle_beta   90.05031300
_cell_angle_gamma   119.27282745
_symmetry_Int_Tables_number   1
_chemical_formula_structural   Al6H42C84Br13O28F13
_chemical_formula_sum   'Al6 H42 C84 Br13 O28 F13'
_cell_volume   4610.08320044
_cell_formula_units_Z   1
loop_
 _symmetry_equiv_pos_site_id
 _symmetry_equiv_pos_as_xyz
  1  'x, y, z'
loop_
 _atom_site_type_symbol
 _atom_site_label
 _atom_site_symmetry_multiplicity
 _atom_site_fract_x
 _atom_site_fract_y
 _atom_site_fract_z
 _atom_site_occupancy
  Al  Al0  1  0.41751754  0.58784374  0.50255657  1.0
  Al  Al1  1  0.64274653  0.56952939  0.49946068  1.0
  Al  Al2  1  0.42380226  0.35740049  0.50139769  1.0
  Al  Al3  1  0.92104611  0.07953677  0.99697466  1.0
  Al  Al4  1  0.90854417  0.30706634  0.00262917  1.0
  Al  Al5  1  0.69232435  0.09143661  0.00111572  1.0
  H  H6  1  0.79230346  0.51034268  0.78293793  1.0
  H  H7  1  0.64912739  0.00395967  0.77976031  1.0
  H  H8  1  0.78644916  0.02563310  0.77037481  1.0
  H  H9  1  0.72377850  0.73394671  0.79216386  1.0
  H  H10  1  0.58005045  0.65566564  0.72769159  1.0
  H  H11  1  0.53186903  0.68921758  0.80167188  1.0
  H  H12  1  0.49443905  0.29723252  0.19127450  1.0
  H  H13  1  0.46539693  0.26833549  0.27356738  1.0
  H  H14  1  0.69792632  0.21727364  0.29917456  1.0
  H  H15  1  0.55039921  0.15576954  0.29761843  1.0
  H  H16  1  0.54635277  0.14531885  0.21400727  1.0
  H  H17  1  0.05819991  0.14452826  0.79252315  1.0
  H  H18  1  0.68729035  0.17806198  0.21725177  1.0
  H  H19  1  0.81956342  0.41591074  0.29949325  1.0
  H  H20  1  0.50885668  0.21563852  0.78353999  1.0
  H  H21  1  0.59963045  0.43788970  0.20063382  1.0
  H  H22  1  0.83866836  0.38689924  0.21976428  1.0
  H  H23  1  0.28845222  0.52217953  0.28283658  1.0
  H  H24  1  0.00940042  0.25449015  0.29840047  1.0
  H  H25  1  0.07408511  0.42426927  0.22094704  1.0
  H  H26  1  0.59223652  0.13964802  0.70778077  1.0
  H  H27  1  0.12527361  0.16325584  0.29783112  1.0
  H  H28  1  0.14501112  0.47409933  0.69644713  1.0
  H  H29  1  0.36660090  0.45117535  0.27789740  1.0
  H  H30  1  0.06006059  0.15369263  0.22141779  1.0
  H  H31  1  0.81134383  0.00753816  0.30615646  1.0
  H  H32  1  0.85626346  0.90667049  0.30295608  1.0
  H  H33  1  0.80126705  0.22876539  0.75523465  1.0
  H  H34  1  0.84293512  0.02905426  0.22434001  1.0
  H  H35  1  0.60365242  0.94647410  0.31102837  1.0
  H  H36  1  0.67505226  0.01221451  0.23696060  1.0
  H  H37  1  0.26461243  0.29318001  0.79739906  1.0
  H  H38  1  0.31901824  0.33419504  0.71778015  1.0
  H  H39  1  0.01470685  0.34889855  0.69798253  1.0
  H  H40  1  0.00587892  0.16257738  0.69751463  1.0
  H  H41  1  0.32023796  0.46358815  0.72067843  1.0
  H  H42  1  0.30268286  0.43561762  0.80345747  1.0
  H  H43  1  0.01557447  0.39593287  0.77877615  1.0
  H  H44  1  0.87459426  0.43429224  0.70746320  1.0
  H  H45  1  0.58181129  0.91435931  0.70523036  1.0
  H  H46  1  0.34003223  0.69442993  0.53316915  1.0
  H  H47  1  0.00926138  0.97975682  0.02279125  1.0
  C  C48  1  0.62198269  0.70760813  0.56664301  1.0
  C  C49  1  0.65781402  0.35044918  0.64915386  1.0
  C  C50  1  0.27184506  0.37494477  0.72971544  1.0
  C  C51  1  0.60385973  0.39483586  0.56446090  1.0
  C  C52  1  0.08314723  0.20427266  0.71862722  1.0
  C  C53  1  0.05286559  0.20817950  0.77110827  1.0
  C  C54  1  0.08140583  0.30803423  0.88602044  1.0
  C  C55  1  0.16054640  0.32402662  0.70111330  1.0
  C  C56  1  0.24900504  0.35886457  0.78345648  1.0
  C  C57  1  0.12518340  0.32534321  0.79327272  1.0
  C  C58  1  0.09665903  0.40701432  0.76689838  1.0
  C  C59  1  0.63638199  0.36706009  0.60880944  1.0
  C  C60  1  0.09987661  0.39156361  0.71294512  1.0
  C  C61  1  0.10330742  0.32086847  0.84387522  1.0
  C  C62  1  0.18936257  0.33200986  0.65103527  1.0
  C  C63  1  0.29146875  0.38739524  0.56771460  1.0
  C  C64  1  0.22788593  0.35185298  0.61105582  1.0
  C  C65  1  0.56737877  0.72860272  0.72661084  1.0
  C  C66  1  0.66762992  0.93321157  0.71334094  1.0
  C  C67  1  0.69740525  0.96607744  0.76565492  1.0
  C  C68  1  0.68246459  0.90796108  0.88722732  1.0
  C  C69  1  0.67308268  0.82512118  0.70194663  1.0
  C  C70  1  0.75254774  0.27140584  0.75063574  1.0
  C  C71  1  0.55568689  0.76108975  0.77844179  1.0
  C  C72  1  0.67041496  0.85978106  0.79475994  1.0
  C  C73  1  0.75788624  0.82136468  0.78196084  1.0
  C  C74  1  0.77789798  0.83173013  0.72779530  1.0
  C  C75  1  0.61480647  0.70842745  0.43628080  1.0
  C  C76  1  0.67219693  0.88267020  0.84527782  1.0
  C  C77  1  0.67184433  0.80178794  0.65165820  1.0
  C  C78  1  0.65908929  0.76941455  0.61067211  1.0
  C  C79  1  0.54523412  0.34275482  0.26523946  1.0
  C  C80  1  0.62797564  0.22178509  0.28206230  1.0
  C  C81  1  0.70639143  0.31362956  0.79360492  1.0
  C  C82  1  0.62891703  0.20767819  0.22743480  1.0
  C  C83  1  0.69543041  0.29247399  0.11027585  1.0
  C  C84  1  0.63874197  0.33699492  0.29445873  1.0
  C  C85  1  0.57047002  0.35156247  0.21168843  1.0
  C  C86  1  0.66240617  0.31969522  0.20193882  1.0
  C  C87  1  0.59272020  0.39140871  0.43382000  1.0
  C  C88  1  0.77326189  0.41038967  0.22431505  1.0
  C  C89  1  0.75708565  0.42562258  0.27836962  1.0
  C  C90  1  0.67815397  0.30722947  0.15148911  1.0
  C  C91  1  0.62426513  0.34880581  0.34500338  1.0
  C  C92  1  0.63652541  0.22156855  0.72494485  1.0
  C  C93  1  0.61330011  0.36233042  0.38711307  1.0
  C  C94  1  0.28569295  0.44558900  0.26981261  1.0
  C  C95  1  0.07536020  0.33401426  0.28462767  1.0
  C  C96  1  0.06407458  0.34297601  0.23075921  1.0
  C  C97  1  0.10062754  0.30317509  0.11129703  1.0
  C  C98  1  0.19102932  0.34455000  0.29604364  1.0
  C  C99  1  0.29638840  0.39577806  0.43461701  1.0
  C  C100  1  0.26751999  0.43194171  0.21578496  1.0
  C  C101  1  0.15381966  0.32610288  0.20313591  1.0
  C  C102  1  0.14824992  0.21846309  0.22384106  1.0
  C  C103  1  0.67758525  0.33525569  0.69729765  1.0
  C  C104  1  0.18441352  0.23505089  0.27664497  1.0
  C  C105  1  0.13023508  0.31603205  0.15260951  1.0
  C  C106  1  0.21571254  0.35551806  0.34663387  1.0
  C  C107  1  0.24462609  0.36827229  0.38810241  1.0
  C  C108  1  0.65090283  0.72991012  0.27316226  1.0
  C  C109  1  0.79468964  0.92853057  0.28916530  1.0
  C  C110  1  0.80779123  0.94146075  0.23478958  1.0
  C  C111  1  0.79353894  0.38510849  0.72469088  1.0
  C  C112  1  0.71402614  0.92768659  0.11731132  1.0
  C  C113  1  0.67534702  0.83678886  0.30255546  1.0
  C  C114  1  0.59022686  0.26314986  0.76645447  1.0
  C  C115  1  0.63943664  0.74785531  0.21860019  1.0
  C  C116  1  0.69182831  0.87510961  0.20913168  1.0
  C  C117  1  0.62124164  0.92128018  0.23535616  1.0
  C  C118  1  0.59339832  0.87832760  0.28705811  1.0
  C  C119  1  0.70268454  0.90056032  0.15881558  1.0
  C  C120  1  0.66376945  0.80760257  0.35250694  1.0
  C  C121  1  0.64841384  0.77134736  0.39268883  1.0
  C  C122  1  0.03442107  0.27584701  0.93280460  1.0
  C  C123  1  0.74822650  0.42777599  0.76631769  1.0
  C  C124  1  0.74144328  0.26559271  0.93369526  1.0
  C  C125  1  0.63230448  0.37661295  0.74109303  1.0
  C  C126  1  0.71479235  0.95843084  0.93389961  1.0
  C  C127  1  0.04419562  0.27578019  0.06587551  1.0
  C  C128  1  0.72668001  0.26578830  0.06525491  1.0
  C  C129  1  0.73608789  0.97119662  0.06954658  1.0
  C  C130  1  0.72464282  0.28862249  0.88555311  1.0
  C  C131  1  0.71839473  0.30098676  0.84288169  1.0
  Br  Br132  1  0.15177925  0.10836368  0.71080199  1.0
  Br  Br133  1  0.91112959  0.23741378  0.20900816  1.0
  Br  Br134  1  0.22266495  0.15494504  0.18586555  1.0
  Br  Br135  1  0.70228661  0.67586988  0.17892343  1.0
  Br  Br136  1  0.48999459  0.90359223  0.20100623  1.0
  Br  Br137  1  0.43746427  0.80002701  0.79003528  1.0
  Br  Br138  1  0.43329120  0.67658934  0.68714769  1.0
  Br  Br139  1  0.75653295  0.05730461  0.66977445  1.0
  Br  Br140  1  0.81172956  0.71527583  0.70548929  1.0
  Br  Br141  1  0.54194167  0.44672997  0.73493936  1.0
  Br  Br142  1  0.89788516  0.89880405  0.81749051  1.0
  Br  Br143  1  0.27094017  0.56543554  0.18763807  1.0
  Br  Br144  1  0.05135239  0.44644574  0.31801477  1.0
  O  O145  1  0.32375004  0.48604129  0.55435695  1.0
  O  O146  1  0.66923219  0.17204137  0.95102913  1.0
  O  O147  1  0.64338282  0.97707703  0.95646453  1.0
  O  O148  1  0.52502399  0.68324781  0.55263298  1.0
  O  O149  1  0.82746369  0.98984351  0.05108005  1.0
  O  O150  1  0.02373414  0.18460408  0.04669476  1.0
  O  O151  1  0.01472996  0.34589248  0.05051946  1.0
  O  O152  1  0.82388665  0.33373618  0.04939922  1.0
  O  O153  1  0.65722144  0.17303457  0.04542510  1.0
  O  O154  1  0.66166130  0.99087711  0.05090965  1.0
  O  O155  1  0.83984357  0.16002029  0.00074215  1.0
  O  O156  1  0.66506002  0.48649110  0.45065902  1.0
  O  O157  1  0.68875160  0.67847162  0.54701128  1.0
  O  O158  1  0.67391626  0.48669798  0.54494834  1.0
  O  O159  1  0.50555282  0.32799958  0.54871479  1.0
  O  O160  1  0.31373458  0.31614588  0.54716883  1.0
  O  O161  1  0.32108657  0.49021005  0.45155778  1.0
  O  O162  1  0.51921832  0.68276552  0.45196264  1.0
  O  O163  1  0.68443642  0.68042193  0.45389345  1.0
  O  O164  1  0.50150912  0.32276926  0.45437176  1.0
  O  O165  1  0.31645708  0.32224047  0.45355574  1.0
  O  O166  1  0.49558421  0.50445646  0.50123412  1.0
  O  O167  1  0.81209687  0.98454934  0.94767657  1.0
  O  O168  1  0.00747840  0.17794433  0.94541376  1.0
  O  O169  1  0.01967122  0.34780023  0.95686103  1.0
  O  O170  1  0.83030729  0.33839344  0.95502295  1.0
  O  O171  1  0.34467061  0.66257600  0.50303839  1.0
  O  O172  1  0.99305415  0.00435776  0.99311227  1.0
  F  F173  1  0.93883112  0.18301808  0.77296697  1.0
  F  F174  1  0.88381986  0.90809833  0.21872411  1.0
  F  F175  1  0.48340742  0.79317460  0.29195823  1.0
  F  F176  1  0.55555142  0.63943875  0.28839076  1.0
  F  F177  1  0.52686280  0.69800180  0.20777179  1.0
  F  F178  1  0.17699181  0.51722728  0.78000620  1.0
  F  F179  1  0.86935708  0.93245669  0.71608207  1.0
  F  F180  1  0.77476527  0.53271629  0.28723186  1.0
  F  F181  1  0.80976431  0.51116235  0.20044437  1.0
  F  F182  1  0.53360962  0.43453238  0.27996719  1.0
  F  F183  1  0.28949661  0.24370074  0.28322388  1.0
  F  F184  1  0.35277589  0.42122626  0.19438291  1.0
  F  F185  1  0.73758550  0.70926956  0.28122399  1.0
