# generated using pymatgen
data_AlH2C6O5F
_symmetry_space_group_name_H-M   'P 1'
_cell_length_a   6.65148318
_cell_length_b   14.12666392
_cell_length_c   17.34665901
_cell_angle_alpha   86.70640640
_cell_angle_beta   89.99856337
_cell_angle_gamma   89.99529958
_symmetry_Int_Tables_number   1
_chemical_formula_structural   AlH2C6O5F
_chemical_formula_sum   'Al4 H8 C24 O20 F4'
_cell_volume   1627.25648103
_cell_formula_units_Z   4
loop_
 _symmetry_equiv_pos_site_id
 _symmetry_equiv_pos_as_xyz
  1  'x, y, z'
loop_
 _atom_site_type_symbol
 _atom_site_label
 _atom_site_symmetry_multiplicity
 _atom_site_fract_x
 _atom_site_fract_y
 _atom_site_fract_z
 _atom_site_occupancy
  Al  Al0  1  0.11278745  0.50342986  0.49650856  1.0
  Al  Al1  1  0.61344313  0.49804639  0.49932739  1.0
  Al  Al2  1  0.62029136  0.00159010  0.00081650  1.0
  Al  Al3  1  0.11961929  0.99721842  0.00339780  1.0
  H  H4  1  0.58093925  0.18348348  0.80025057  1.0
  H  H5  1  0.08184944  0.79301333  0.18424406  1.0
  H  H6  1  0.57862206  0.31732445  0.70218247  1.0
  H  H7  1  0.08063239  0.71112141  0.31648687  1.0
  H  H8  1  0.35285224  0.38036298  0.52844038  1.0
  H  H9  1  0.85754928  0.61578562  0.52885385  1.0
  H  H10  1  0.36163068  0.12103193  0.97474796  1.0
  H  H11  1  0.86561248  0.88388009  0.97202772  1.0
  C  C12  1  0.35765386  0.61108537  0.60059225  1.0
  C  C13  1  0.87073775  0.39365333  0.39624043  1.0
  C  C14  1  0.37319372  0.60856707  0.38759941  1.0
  C  C15  1  0.86033991  0.38057961  0.60341693  1.0
  C  C16  1  0.72355582  0.21687047  0.78350266  1.0
  C  C17  1  0.22286774  0.78173288  0.21555775  1.0
  C  C18  1  0.87866548  0.19197835  0.83075349  1.0
  C  C19  1  0.38083353  0.83193173  0.18598567  1.0
  C  C20  1  0.72177359  0.28358686  0.71757960  1.0
  C  C21  1  0.22150055  0.71999700  0.28463539  1.0
  C  C22  1  0.87432191  0.30793967  0.66895275  1.0
  C  C23  1  0.37629410  0.66706203  0.31355844  1.0
  C  C24  1  0.87190167  0.16802327  0.16732177  1.0
  C  C25  1  0.36834636  0.82892891  0.83496011  1.0
  C  C26  1  0.86853732  0.22084831  0.22071359  1.0
  C  C27  1  0.36800615  0.77828253  0.78008427  1.0
  C  C28  1  0.86683257  0.27922377  0.27955864  1.0
  C  C29  1  0.36618373  0.72234682  0.71955843  1.0
  C  C30  1  0.86699826  0.33200640  0.33299899  1.0
  C  C31  1  0.36299001  0.67173424  0.66469528  1.0
  C  C32  1  0.37912135  0.89086414  0.11214352  1.0
  C  C33  1  0.86663517  0.11954743  0.89652586  1.0
  C  C34  1  0.36446803  0.88952426  0.89909938  1.0
  C  C35  1  0.87700080  0.10649097  0.10402102  1.0
  O  O36  1  0.54075853  0.57380872  0.40957754  1.0
  O  O37  1  0.02437190  0.40110360  0.56876967  1.0
  O  O38  1  0.18507582  0.58091056  0.58178528  1.0
  O  O39  1  0.70638396  0.40401037  0.43232325  1.0
  O  O40  1  0.20609777  0.59957359  0.42328424  1.0
  O  O41  1  0.68698597  0.41515180  0.58799160  1.0
  O  O42  1  0.03916328  0.43122503  0.41085487  1.0
  O  O43  1  0.52559221  0.59392433  0.56899762  1.0
  O  O44  1  0.36093171  0.44288010  0.50244909  1.0
  O  O45  1  0.86120679  0.55925008  0.49963746  1.0
  O  O46  1  0.19221315  0.91990576  0.91808350  1.0
  O  O47  1  0.71241751  0.09523767  0.06829393  1.0
  O  O48  1  0.54744568  0.92476292  0.09007092  1.0
  O  O49  1  0.03121807  0.09931318  0.93086317  1.0
  O  O50  1  0.53276453  0.90637920  0.93057098  1.0
  O  O51  1  0.04604675  0.06988210  0.08892908  1.0
  O  O52  1  0.69364825  0.08491090  0.91245442  1.0
  O  O53  1  0.21193675  0.90097990  0.07670060  1.0
  O  O54  1  0.36813958  0.05704618  0.99797951  1.0
  O  O55  1  0.86844048  0.94106222  0.00043287  1.0
  F  F56  1  0.06163938  0.23320199  0.82299316  1.0
  F  F57  1  0.55922251  0.83380124  0.22316102  1.0
  F  F58  1  0.05690385  0.26604617  0.67523715  1.0
  F  F59  1  0.55307914  0.66203059  0.27562807  1.0
