# generated using pymatgen
data_SmH54C57(N2O5)3
_symmetry_space_group_name_H-M   'P 1'
_cell_length_a   10.93458604
_cell_length_b   19.78196163
_cell_length_c   19.78187767
_cell_angle_alpha   120.00003569
_cell_angle_beta   90.00004460
_cell_angle_gamma   89.99977261
_symmetry_Int_Tables_number   1
_chemical_formula_structural   SmH54C57(N2O5)3
_chemical_formula_sum   'Sm2 H108 C114 N12 O30'
_cell_volume   3705.69514756
_cell_formula_units_Z   2
loop_
 _symmetry_equiv_pos_site_id
 _symmetry_equiv_pos_as_xyz
  1  'x, y, z'
loop_
 _atom_site_type_symbol
 _atom_site_label
 _atom_site_symmetry_multiplicity
 _atom_site_fract_x
 _atom_site_fract_y
 _atom_site_fract_z
 _atom_site_occupancy
  Sm  Sm0  1  0.14397129  0.66666667  0.33333333  1.0
  Sm  Sm1  1  0.85602915  0.33333333  0.66666667  1.0
  H  H2  1  0.79827425  0.89177990  0.45672622  1.0
  H  H3  1  0.79827518  0.56494585  0.10821840  1.0
  H  H4  1  0.79827549  0.54327133  0.43505259  1.0
  H  H5  1  0.20172526  0.10822078  0.54327346  1.0
  H  H6  1  0.20172434  0.43505432  0.89178126  1.0
  H  H7  1  0.20172494  0.45672681  0.56494707  1.0
  H  H8  1  0.16669855  0.84355872  0.35274614  1.0
  H  H9  1  0.16669778  0.50918904  0.15644193  1.0
  H  H10  1  0.16669752  0.64725350  0.49081232  1.0
  H  H11  1  0.83329914  0.15644196  0.64725353  1.0
  H  H12  1  0.83330174  0.49081113  0.84355774  1.0
  H  H13  1  0.83330200  0.35274414  0.50918735  1.0
  H  H14  1  0.91843463  0.07499997  0.40581193  1.0
  H  H15  1  0.91844139  0.33081291  0.92499804  1.0
  H  H16  1  0.91843661  0.59418683  0.66918911  1.0
  H  H17  1  0.08156580  0.92500179  0.59418890  1.0
  H  H18  1  0.08155812  0.66918805  0.07500220  1.0
  H  H19  1  0.08156291  0.40581363  0.33081114  1.0
  H  H20  1  0.25620590  0.94582423  0.32949305  1.0
  H  H21  1  0.25620681  0.38366904  0.05417892  1.0
  H  H22  1  0.25620617  0.67050946  0.61633297  1.0
  H  H23  1  0.74379362  0.05417522  0.67050720  1.0
  H  H24  1  0.74379180  0.61633041  0.94582133  1.0
  H  H25  1  0.74379335  0.32949100  0.38366727  1.0
  H  H26  1  0.12799320  0.06020318  0.35351302  1.0
  H  H27  1  0.12800009  0.29331013  0.93979683  1.0
  H  H28  1  0.12799409  0.64648809  0.70669146  1.0
  H  H29  1  0.87200815  0.93979800  0.64648665  1.0
  H  H30  1  0.87199942  0.70668983  0.06020343  1.0
  H  H31  1  0.87200543  0.35351317  0.29330938  1.0
  H  H32  1  0.62514229  0.11698947  0.58224044  1.0
  H  H33  1  0.62514308  0.46525269  0.88301186  1.0
  H  H34  1  0.62514392  0.41775973  0.53474717  1.0
  H  H35  1  0.37485631  0.88301424  0.41775923  1.0
  H  H36  1  0.37485735  0.53474777  0.11698838  1.0
  H  H37  1  0.37485651  0.58224074  0.46525309  1.0
  H  H38  1  0.71491452  0.02265615  0.38173259  1.0
  H  H39  1  0.71491465  0.35907829  0.97734584  1.0
  H  H40  1  0.71491440  0.61826709  0.64092093  1.0
  H  H41  1  0.28508774  0.97734554  0.61826708  1.0
  H  H42  1  0.28508578  0.64092138  0.02265384  1.0
  H  H43  1  0.28508695  0.38173257  0.35907874  1.0
  H  H44  1  0.75854472  0.08816065  0.48070053  1.0
  H  H45  1  0.75854394  0.39253911  0.91183874  1.0
  H  H46  1  0.75854327  0.51929987  0.60746061  1.0
  H  H47  1  0.24145754  0.91184255  0.51929913  1.0
  H  H48  1  0.24145650  0.60746135  0.08816151  1.0
  H  H49  1  0.24145625  0.48070059  0.39253964  1.0
  H  H50  1  0.49855104  0.84578826  0.30926726  1.0
  H  H51  1  0.49855047  0.46347986  0.15421262  1.0
  H  H52  1  0.49855175  0.69073175  0.53651890  1.0
  H  H53  1  0.50144940  0.15421380  0.69073416  1.0
  H  H54  1  0.50144905  0.53651981  0.84578706  1.0
  H  H55  1  0.50144868  0.30926792  0.46348077  1.0
  H  H56  1  0.65634298  0.86170271  0.33337234  1.0
  H  H57  1  0.65634241  0.47167026  0.13829866  1.0
  H  H58  1  0.65634198  0.66666667  0.52836934  1.0
  H  H59  1  0.34365837  0.13829863  0.66662966  1.0
  H  H60  1  0.34365711  0.52832940  0.86166273  1.0
  H  H61  1  0.34365845  0.33337303  0.47167036  1.0
  H  H62  1  0.57974542  0.92054203  0.30371249  1.0
  H  H63  1  0.57974537  0.38317118  0.07945839  1.0
  H  H64  1  0.57974553  0.69628613  0.61682838  1.0
  H  H65  1  0.42025592  0.07945756  0.69628601  1.0
  H  H66  1  0.42025507  0.61682878  0.92054187  1.0
  H  H67  1  0.42025490  0.30371354  0.38317129  1.0
  H  H68  1  0.84698722  0.72738032  0.41785083  1.0
  H  H69  1  0.84698360  0.69046987  0.27261919  1.0
  H  H70  1  0.84698584  0.58214909  0.30952888  1.0
  H  H71  1  0.15301321  0.27262036  0.58214885  1.0
  H  H72  1  0.15301592  0.30952979  0.72738048  1.0
  H  H73  1  0.15301276  0.41785145  0.69047254  1.0
  H  H74  1  0.69849863  0.75850826  0.40719044  1.0
  H  H75  1  0.69849708  0.64868112  0.24148909  1.0
  H  H76  1  0.69849827  0.59280781  0.35131723  1.0
  H  H77  1  0.30150089  0.24149061  0.59280865  1.0
  H  H78  1  0.30150335  0.35131854  0.75851057  1.0
  H  H79  1  0.30150033  0.40719100  0.64868477  1.0
  H  H80  1  0.92199690  0.75813264  0.54594276  1.0
  H  H81  1  0.92199475  0.78780698  0.24186593  1.0
  H  H82  1  0.92199684  0.45405525  0.21218895  1.0
  H  H83  1  0.07800353  0.24186644  0.45405574  1.0
  H  H84  1  0.07800659  0.21219290  0.75813316  1.0
  H  H85  1  0.07800176  0.54594500  0.78781189  1.0
  H  H86  1  0.58245464  0.85725618  0.52549286  1.0
  H  H87  1  0.58245231  0.66823799  0.14274349  1.0
  H  H88  1  0.58245497  0.47450658  0.33176172  1.0
  H  H89  1  0.41754396  0.14274399  0.47450681  1.0
  H  H90  1  0.41754629  0.33176255  0.85725792  1.0
  H  H91  1  0.41754181  0.52549207  0.66823794  1.0
  H  H92  1  0.68576910  0.87935422  0.74580855  1.0
  H  H93  1  0.68576779  0.86645632  0.12064956  1.0
  H  H94  1  0.68576908  0.25419134  0.13354392  1.0
  H  H95  1  0.31423133  0.12064595  0.25419112  1.0
  H  H96  1  0.31422990  0.13354422  0.87935186  1.0
  H  H97  1  0.31423043  0.74580803  0.86645516  1.0
  H  H98  1  0.53927781  0.90594450  0.66506362  1.0
  H  H99  1  0.53927610  0.75912278  0.09405851  1.0
  H  H100  1  0.53927773  0.33493691  0.24087951  1.0
  H  H101  1  0.46072263  0.09405567  0.33493605  1.0
  H  H102  1  0.46072342  0.24087834  0.90594407  1.0
  H  H103  1  0.46072179  0.66506145  0.75911957  1.0
  H  H104  1  0.87642035  0.80340582  0.68496774  1.0
  H  H105  1  0.87642064  0.88155900  0.19659511  1.0
  H  H106  1  0.87642079  0.31503219  0.11843776  1.0
  H  H107  1  0.12358008  0.19659305  0.31503134  1.0
  H  H108  1  0.12357888  0.11844096  0.80340515  1.0
  H  H109  1  0.12357873  0.68496798  0.88156191  1.0
  C  C110  1  0.99277263  0.89923222  0.39037736  1.0
  C  C111  1  0.99277663  0.49114591  0.10076783  1.0
  C  C112  1  0.99277558  0.60962137  0.50885409  1.0
  C  C113  1  0.00722506  0.10076795  0.60962231  1.0
  C  C114  1  0.00722380  0.50885383  0.89923300  1.0
  C  C115  1  0.00722485  0.39037489  0.49114382  1.0
  C  C116  1  0.92296089  0.96624011  0.40682529  1.0
  C  C117  1  0.92296160  0.44058458  0.03375781  1.0
  C  C118  1  0.92295959  0.59317336  0.55941686  1.0
  C  C119  1  0.07703955  0.03376136  0.59317495  1.0
  C  C120  1  0.07703792  0.55941538  0.96624245  1.0
  C  C121  1  0.07704084  0.40682537  0.44058397  1.0
  C  C122  1  0.11275760  0.89398428  0.36309249  1.0
  C  C123  1  0.11275529  0.46910903  0.10601587  1.0
  C  C124  1  0.11275773  0.63690774  0.53089327  1.0
  C  C125  1  0.88724283  0.10601538  0.63690717  1.0
  C  C126  1  0.88724331  0.53089173  0.89398497  1.0
  C  C127  1  0.88724545  0.36309063  0.46910582  1.0
  C  C128  1  0.97206921  0.02349849  0.39285170  1.0
  C  C129  1  0.97207387  0.36935376  0.97650108  1.0
  C  C130  1  0.97207003  0.60714827  0.63064624  1.0
  C  C131  1  0.02793305  0.97650248  0.60714855  1.0
  C  C132  1  0.02792657  0.63064700  0.02349976  1.0
  C  C133  1  0.02793132  0.39285081  0.36935225  1.0
  C  C134  1  0.16243371  0.95111836  0.35011755  1.0
  C  C135  1  0.16243639  0.39899941  0.04888346  1.0
  C  C136  1  0.16243222  0.64988387  0.60100113  1.0
  C  C137  1  0.83756581  0.04888260  0.64988269  1.0
  C  C138  1  0.83756312  0.60100076  0.95111621  1.0
  C  C139  1  0.83756821  0.35011500  0.39899795  1.0
  C  C140  1  0.09086256  0.01529823  0.36410462  1.0
  C  C141  1  0.09086546  0.34880652  0.98470212  1.0
  C  C142  1  0.09086328  0.63589687  0.65119577  1.0
  C  C143  1  0.90913695  0.98470202  0.63589621  1.0
  C  C144  1  0.90913223  0.65119394  0.01529813  1.0
  C  C145  1  0.90913715  0.36410258  0.34880448  1.0
  C  C146  1  0.94567644  0.83147398  0.39537465  1.0
  C  C147  1  0.94567358  0.56390055  0.16852446  1.0
  C  C148  1  0.94567363  0.60462306  0.43609907  1.0
  C  C149  1  0.05432216  0.16852699  0.60462560  1.0
  C  C150  1  0.05432593  0.43609970  0.83147637  1.0
  C  C151  1  0.05432681  0.39537429  0.56390002  1.0
  C  C152  1  0.60546191  0.01429544  0.46913725  1.0
  C  C153  1  0.60546252  0.45484383  0.98570578  1.0
  C  C154  1  0.60546103  0.53086161  0.54515532  1.0
  C  C155  1  0.39453852  0.98570769  0.53086126  1.0
  C  C156  1  0.39453791  0.54515613  0.01429448  1.0
  C  C157  1  0.39453758  0.46913856  0.45484435  1.0
  C  C158  1  0.56958297  0.06540507  0.54612245  1.0
  C  C159  1  0.56958358  0.48071854  0.93459668  1.0
  C  C160  1  0.56958430  0.45387857  0.51928158  1.0
  C  C161  1  0.43041564  0.93459893  0.45387780  1.0
  C  C162  1  0.43041685  0.51928091  0.06540357  1.0
  C  C163  1  0.43041522  0.54612240  0.48071868  1.0
  C  C164  1  0.72307763  0.02965719  0.44042297  1.0
  C  C165  1  0.72307846  0.41076571  0.97034235  1.0
  C  C166  1  0.72307857  0.55957629  0.58923345  1.0
  C  C167  1  0.27692280  0.97034529  0.55957727  1.0
  C  C168  1  0.27692288  0.58923417  0.02965674  1.0
  C  C169  1  0.27692277  0.44042338  0.41076622  1.0
  C  C170  1  0.53523892  0.94731153  0.42123512  1.0
  C  C171  1  0.53523945  0.47392547  0.05269022  1.0
  C  C172  1  0.53524032  0.57876381  0.52607456  1.0
  C  C173  1  0.46476059  0.05269197  0.57876513  1.0
  C  C174  1  0.46476007  0.52607470  0.94730945  1.0
  C  C175  1  0.46476011  0.42123564  0.47392569  1.0
  C  C176  1  0.56873919  0.89089925  0.33787573  1.0
  C  C177  1  0.56873880  0.44697740  0.10910180  1.0
  C  C178  1  0.56873834  0.66212353  0.55302233  1.0
  C  C179  1  0.43126215  0.10910223  0.66212453  1.0
  C  C180  1  0.43126164  0.55302227  0.89089787  1.0
  C  C181  1  0.43126210  0.33787664  0.44697734  1.0
  C  C182  1  0.75510243  0.80416331  0.52637776  1.0
  C  C183  1  0.75510066  0.72221313  0.19583416  1.0
  C  C184  1  0.75510344  0.47361973  0.27778419  1.0
  C  C185  1  0.24489617  0.19583607  0.47362133  1.0
  C  C186  1  0.24489885  0.27778704  0.80416551  1.0
  C  C187  1  0.24489425  0.52637922  0.72221607  1.0
  C  C188  1  0.78351324  0.77680692  0.44183572  1.0
  C  C189  1  0.78351074  0.66502766  0.22319244  1.0
  C  C190  1  0.78351303  0.55816394  0.33497082  1.0
  C  C191  1  0.21648719  0.22319274  0.55816394  1.0
  C  C192  1  0.21648878  0.33497259  0.77680840  1.0
  C  C193  1  0.21648557  0.44183479  0.66503001  1.0
  C  C194  1  0.83734797  0.78956431  0.57191174  1.0
  C  C195  1  0.83734866  0.78234268  0.21043457  1.0
  C  C196  1  0.83734993  0.42808996  0.21765493  1.0
  C  C197  1  0.16265155  0.21043464  0.42808852  1.0
  C  C198  1  0.16265178  0.21765569  0.78956452  1.0
  C  C199  1  0.16264867  0.57191029  0.78234590  1.0
  C  C200  1  0.64780240  0.84615344  0.56056197  1.0
  C  C201  1  0.64779985  0.71440611  0.15384629  1.0
  C  C202  1  0.64780367  0.43943959  0.28559207  1.0
  C  C203  1  0.35219803  0.15384551  0.43943828  1.0
  C  C204  1  0.35220150  0.28559342  0.84615513  1.0
  C  C205  1  0.35219493  0.56055928  0.71440702  1.0
  C  C206  1  0.70529251  0.85829901  0.68434610  1.0
  C  C207  1  0.70529041  0.82604805  0.14170368  1.0
  C  C208  1  0.70529226  0.31565403  0.17395282  1.0
  C  C209  1  0.29470884  0.14170095  0.31565416  1.0
  C  C210  1  0.29470911  0.17395271  0.85829717  1.0
  C  C211  1  0.29470725  0.68434513  0.82604685  1.0
  C  C212  1  0.62339631  0.87356136  0.63934214  1.0
  C  C213  1  0.62339268  0.76578322  0.12643840  1.0
  C  C214  1  0.62339604  0.36065522  0.23421690  1.0
  C  C215  1  0.37660320  0.12643823  0.36065637  1.0
  C  C216  1  0.37660501  0.23421724  0.87356184  1.0
  C  C217  1  0.37660256  0.63934344  0.76578277  1.0
  C  C218  1  0.81213253  0.81588522  0.65042164  1.0
  C  C219  1  0.81213213  0.83453578  0.18411473  1.0
  C  C220  1  0.81213386  0.34957510  0.16546199  1.0
  C  C221  1  0.18786791  0.18411386  0.34957686  1.0
  C  C222  1  0.18786830  0.16546460  0.81588435  1.0
  C  C223  1  0.18786474  0.65042377  0.83453709  1.0
  N  N224  1  0.84077992  0.83880477  0.43345638  1.0
  N  N225  1  0.84078244  0.59465130  0.16119533  1.0
  N  N226  1  0.84078362  0.56654303  0.40534778  1.0
  N  N227  1  0.15921959  0.16119511  0.56654270  1.0
  N  N228  1  0.15921799  0.40534895  0.83880550  1.0
  N  N229  1  0.15921864  0.43345490  0.59465247  1.0
  N  N230  1  0.28260458  0.75451628  0.48086796  1.0
  N  N231  1  0.28260360  0.72635107  0.24548415  1.0
  N  N232  1  0.28260162  0.51913047  0.27364521  1.0
  N  N233  1  0.71739494  0.24548339  0.51913172  1.0
  N  N234  1  0.71739683  0.27364939  0.75451610  1.0
  N  N235  1  0.71740156  0.48086789  0.72635388  1.0
  O  O236  1  0.18561680  0.78210558  0.46625345  1.0
  O  O237  1  0.18561698  0.68414785  0.21789487  1.0
  O  O238  1  0.18561484  0.53374616  0.31585088  1.0
  O  O239  1  0.81438363  0.21789438  0.53374681  1.0
  O  O240  1  0.81438437  0.31585182  0.78210481  1.0
  O  O241  1  0.81438650  0.46625380  0.68414937  1.0
  O  O242  1  0.00281517  0.76711230  0.36167716  1.0
  O  O243  1  0.00281478  0.59456553  0.23288956  1.0
  O  O244  1  0.00281566  0.63832234  0.40543446  1.0
  O  O245  1  0.99718435  0.23288816  0.63832309  1.0
  O  O246  1  0.99718382  0.40543443  0.76711069  1.0
  O  O247  1  0.99718477  0.36167530  0.59456520  1.0
  O  O248  1  0.80862826  0.97117393  0.43597090  1.0
  O  O249  1  0.80863070  0.46479708  0.02882484  1.0
  O  O250  1  0.80863070  0.56402654  0.53520145  1.0
  O  O251  1  0.19137126  0.02882892  0.56403110  1.0
  O  O252  1  0.19136882  0.53520339  0.97117542  1.0
  O  O253  1  0.19136973  0.43597233  0.46479763  1.0
  O  O254  1  0.31110153  0.68391436  0.42921841  1.0
  O  O255  1  0.31110215  0.74530281  0.31608526  1.0
  O  O256  1  0.31109907  0.57078163  0.25469477  1.0
  O  O257  1  0.68889890  0.31608531  0.57078126  1.0
  O  O258  1  0.68889829  0.25469686  0.68391441  1.0
  O  O259  1  0.68890228  0.42921854  0.74530490  1.0
  O  O260  1  0.34361731  0.79303507  0.54056169  1.0
  O  O261  1  0.34361724  0.74752559  0.20696463  1.0
  O  O262  1  0.34361099  0.45943618  0.25246741  1.0
  O  O263  1  0.65638312  0.20696518  0.45943915  1.0
  O  O264  1  0.65638228  0.25247517  0.79303621  1.0
  O  O265  1  0.65638944  0.54056449  0.74753225  1.0
