# generated using pymatgen
data_ZnH16C24N2O5
_symmetry_space_group_name_H-M   'P 1'
_cell_length_a   10.35560968
_cell_length_b   15.31876269
_cell_length_c   27.43613727
_cell_angle_alpha   93.94331779
_cell_angle_beta   100.88904857
_cell_angle_gamma   109.75862483
_symmetry_Int_Tables_number   1
_chemical_formula_structural   ZnH16C24N2O5
_chemical_formula_sum   'Zn4 H64 C96 N8 O20'
_cell_volume   3980.70393362
_cell_formula_units_Z   4
loop_
 _symmetry_equiv_pos_site_id
 _symmetry_equiv_pos_as_xyz
  1  'x, y, z'
loop_
 _atom_site_type_symbol
 _atom_site_label
 _atom_site_symmetry_multiplicity
 _atom_site_fract_x
 _atom_site_fract_y
 _atom_site_fract_z
 _atom_site_occupancy
  Zn  Zn0  1  0.88286728  0.72945394  0.52100519  1.0
  Zn  Zn1  1  0.13207682  0.77076688  0.97892113  1.0
  Zn  Zn2  1  0.11713439  0.27054458  0.47899472  1.0
  Zn  Zn3  1  0.86792148  0.22923092  0.02107959  1.0
  H  H4  1  0.82366764  0.66448770  0.07490419  1.0
  H  H5  1  0.58402026  0.83501220  0.42505755  1.0
  H  H6  1  0.17632494  0.33551222  0.92509546  1.0
  H  H7  1  0.41598570  0.16499053  0.57494101  1.0
  H  H8  1  0.84478973  0.53534869  0.20969465  1.0
  H  H9  1  0.59987802  0.96425119  0.29028240  1.0
  H  H10  1  0.15521873  0.46465332  0.79030625  1.0
  H  H11  1  0.40012277  0.03575294  0.70971656  1.0
  H  H12  1  0.97788114  0.95691773  0.03313306  1.0
  H  H13  1  0.48781995  0.54265089  0.46680199  1.0
  H  H14  1  0.02212459  0.04308288  0.96686796  1.0
  H  H15  1  0.51218606  0.45734833  0.53319717  1.0
  H  H16  1  0.95731234  0.80900416  0.06728082  1.0
  H  H17  1  0.58108985  0.69041503  0.43250579  1.0
  H  H18  1  0.04268769  0.19099504  0.93272117  1.0
  H  H19  1  0.41891190  0.30958909  0.56749397  1.0
  H  H20  1  0.73728876  0.87791519  0.17339884  1.0
  H  H21  1  0.18561811  0.62171930  0.32660383  1.0
  H  H22  1  0.26270037  0.12208193  0.82659935  1.0
  H  H23  1  0.81438358  0.37827922  0.67339571  1.0
  H  H24  1  0.76426817  0.80861958  0.36078808  1.0
  H  H25  1  0.09462337  0.69116603  0.13916163  1.0
  H  H26  1  0.23571979  0.19137543  0.63921176  1.0
  H  H27  1  0.90537193  0.30883529  0.86083864  1.0
  H  H28  1  0.95365590  0.58675439  0.28646065  1.0
  H  H29  1  0.58036017  0.91292305  0.21348008  1.0
  H  H30  1  0.04634444  0.41324902  0.71354117  1.0
  H  H31  1  0.41964070  0.08707758  0.78651875  1.0
  H  H32  1  0.96858227  0.60791050  0.37834571  1.0
  H  H33  1  0.48220864  0.89180567  0.12157806  1.0
  H  H34  1  0.03141750  0.39209009  0.62165704  1.0
  H  H35  1  0.51779238  0.10818795  0.87842051  1.0
  H  H36  1  0.75012799  0.78906082  0.26842103  1.0
  H  H37  1  0.19259281  0.71058323  0.23151232  1.0
  H  H38  1  0.24986677  0.21093769  0.73157945  1.0
  H  H39  1  0.80740830  0.28942159  0.76848924  1.0
  H  H40  1  0.75294271  0.02697967  0.13718802  1.0
  H  H41  1  0.08837280  0.47276163  0.36288370  1.0
  H  H42  1  0.24704235  0.97301535  0.86280905  1.0
  H  H43  1  0.91163015  0.52724109  0.63711646  1.0
  H  H44  1  0.66119081  0.72676305  0.54155236  1.0
  H  H45  1  0.89233204  0.77337144  0.95833039  1.0
  H  H46  1  0.33881456  0.27324039  0.45844510  1.0
  H  H47  1  0.10766334  0.22662638  0.04166975  1.0
  H  H48  1  0.73334261  0.81766980  0.58035759  1.0
  H  H49  1  0.83518805  0.68245654  0.91955673  1.0
  H  H50  1  0.26665648  0.18232942  0.41964251  1.0
  H  H51  1  0.16481105  0.31754267  0.08044265  1.0
  H  H52  1  0.94130543  0.57705040  0.05548981  1.0
  H  H53  1  0.80865229  0.92257130  0.44451946  1.0
  H  H54  1  0.05869073  0.42294882  0.94450899  1.0
  H  H55  1  0.19135283  0.07742442  0.55547841  1.0
  H  H56  1  0.94437955  0.42948988  0.01012682  1.0
  H  H57  1  0.00448010  0.07020497  0.48997782  1.0
  H  H58  1  0.05562731  0.57051283  0.98987436  1.0
  H  H59  1  0.99552603  0.92979076  0.51001976  1.0
  H  H60  1  0.75668702  0.26719321  0.10907789  1.0
  H  H61  1  0.87974925  0.23251890  0.39108899  1.0
  H  H62  1  0.24331586  0.73280390  0.89092169  1.0
  H  H63  1  0.12026177  0.76748241  0.60891281  1.0
  H  H64  1  0.73307654  0.40465257  0.15658808  1.0
  H  H65  1  0.67150081  0.09500777  0.34346662  1.0
  H  H66  1  0.26692415  0.59534595  0.84341175  1.0
  H  H67  1  0.32850364  0.90499775  0.65653413  1.0
  C  C68  1  0.83518282  0.50317620  0.10996658  1.0
  C  C69  1  0.72189188  0.99645518  0.39005002  1.0
  C  C70  1  0.16482116  0.49682300  0.89003461  1.0
  C  C71  1  0.27811266  0.00354684  0.60995023  1.0
  C  C72  1  0.83252171  0.58780159  0.13832646  1.0
  C  C73  1  0.60634768  0.91177919  0.36164870  1.0
  C  C74  1  0.16747715  0.41219903  0.86167404  1.0
  C  C75  1  0.39365629  0.08822354  0.63835080  1.0
  C  C76  1  0.83506824  0.74658141  0.14414052  1.0
  C  C77  1  0.44419911  0.75299508  0.35579165  1.0
  C  C78  1  0.16492699  0.25341430  0.85585916  1.0
  C  C79  1  0.55580300  0.24700974  0.64420889  1.0
  C  C80  1  0.84086132  0.67599310  0.21631495  1.0
  C  C81  1  0.44852073  0.82361524  0.28362442  1.0
  C  C82  1  0.15913679  0.32400612  0.78368508  1.0
  C  C83  1  0.55148089  0.17638679  0.71637489  1.0
  C  C84  1  0.82959139  0.66579838  0.11501634  1.0
  C  C85  1  0.54865201  0.83375663  0.38494634  1.0
  C  C86  1  0.17040360  0.33419873  0.88498374  1.0
  C  C87  1  0.45135329  0.16624679  0.61505366  1.0
  C  C88  1  0.84339576  0.83332428  0.12218427  1.0
  C  C89  1  0.38770577  0.66625485  0.37774336  1.0
  C  C90  1  0.15660234  0.16667493  0.87781612  1.0
  C  C91  1  0.61229950  0.33374856  0.62225773  1.0
  C  C92  1  0.84901240  0.68596538  0.27101493  1.0
  C  C93  1  0.39197575  0.81367013  0.22892097  1.0
  C  C94  1  0.15098238  0.31403314  0.72898518  1.0
  C  C95  1  0.60802723  0.18633260  0.77107846  1.0
  C  C96  1  0.83933866  0.59373983  0.18997323  1.0
  C  C97  1  0.55568612  0.90585219  0.30999197  1.0
  C  C98  1  0.16065844  0.40625938  0.81002745  1.0
  C  C99  1  0.44431785  0.09415054  0.69000717  1.0
  C  C100  1  0.87564772  0.72119765  0.43002552  1.0
  C  C101  1  0.22406771  0.77858544  0.06989708  1.0
  C  C102  1  0.12434566  0.27880015  0.56997519  1.0
  C  C103  1  0.77592925  0.22141167  0.93010315  1.0
  C  C104  1  0.86701677  0.70941291  0.37508211  1.0
  C  C105  1  0.28235340  0.79026454  0.12483972  1.0
  C  C106  1  0.13297501  0.29058559  0.62491888  1.0
  C  C107  1  0.71764703  0.20973537  0.87516124  1.0
  C  C108  1  0.92342214  0.93956409  0.06341919  1.0
  C  C109  1  0.42037863  0.56003003  0.43652713  1.0
  C  C110  1  0.07657805  0.06043722  0.93658217  1.0
  C  C111  1  0.57962580  0.43996989  0.56347121  1.0
  C  C112  1  0.91061225  0.85580809  0.08239313  1.0
  C  C113  1  0.47235640  0.64369581  0.41748113  1.0
  C  C114  1  0.08938797  0.14419323  0.91760750  1.0
  C  C115  1  0.52764716  0.35630621  0.58251905  1.0
  C  C116  1  0.86640105  0.00128166  0.08317452  1.0
  C  C117  1  0.28172881  0.49843632  0.41687284  1.0
  C  C118  1  0.13359619  0.99871965  0.91682662  1.0
  C  C119  1  0.71827299  0.50156782  0.58312547  1.0
  C  C120  1  0.78842192  0.89611193  0.14239253  1.0
  C  C121  1  0.24957181  0.60356693  0.35762677  1.0
  C  C122  1  0.21156841  0.10388379  0.85760642  1.0
  C  C123  1  0.75043156  0.39643650  0.64237236  1.0
  C  C124  1  0.80575838  0.76049539  0.34399568  1.0
  C  C125  1  0.20112456  0.73919059  0.15593692  1.0
  C  C126  1  0.19423501  0.23950242  0.65600504  1.0
  C  C127  1  0.79887084  0.26081282  0.84406526  1.0
  C  C128  1  0.91000331  0.63474306  0.30234213  1.0
  C  C129  1  0.47280026  0.86495887  0.19759089  1.0
  C  C130  1  0.08999369  0.36525965  0.69765977  1.0
  C  C131  1  0.52720140  0.13503964  0.80240901  1.0
  C  C132  1  0.91950656  0.64639512  0.35380212  1.0
  C  C133  1  0.41917655  0.85329774  0.14611637  1.0
  C  C134  1  0.08048820  0.35360339  0.64619836  1.0
  C  C135  1  0.58082096  0.14670218  0.85388364  1.0
  C  C136  1  0.79718676  0.74924355  0.29266792  1.0
  C  C137  1  0.25519150  0.75039000  0.20725643  1.0
  C  C138  1  0.20281109  0.25075706  0.70733288  1.0
  C  C139  1  0.74480927  0.24961413  0.79274362  1.0
  C  C140  1  0.79802674  0.97863997  0.12268748  1.0
  C  C141  1  0.19638498  0.52107153  0.37737140  1.0
  C  C142  1  0.20196239  0.02135715  0.87731107  1.0
  C  C143  1  0.80361898  0.47893120  0.62262810  1.0
  C  C144  1  0.87637460  0.08951987  0.06209038  1.0
  C  C145  1  0.22462315  0.41024121  0.43798763  1.0
  C  C146  1  0.12362016  0.91047864  0.93791010  1.0
  C  C147  1  0.77537553  0.58976082  0.56201073  1.0
  C  C148  1  0.89486764  0.50938001  0.06778368  1.0
  C  C149  1  0.81750658  0.99026116  0.43227124  1.0
  C  C150  1  0.10513632  0.49061919  0.93221824  1.0
  C  C151  1  0.18249731  0.00973596  0.56772768  1.0
  C  C152  1  0.89998981  0.42883469  0.04312079  1.0
  C  C153  1  0.92774030  0.07086665  0.45698446  1.0
  C  C154  1  0.10001281  0.57116381  0.95687991  1.0
  C  C155  1  0.07226989  0.92913117  0.54301386  1.0
  C  C156  1  0.79358404  0.33719072  0.09849174  1.0
  C  C157  1  0.85740780  0.16248844  0.40164290  1.0
  C  C158  1  0.20641679  0.66280989  0.90150818  1.0
  C  C159  1  0.14259972  0.83751359  0.59835684  1.0
  C  C160  1  0.78283326  0.41425209  0.12474747  1.0
  C  C161  1  0.74351422  0.08538775  0.37530532  1.0
  C  C162  1  0.21717175  0.58574713  0.87525234  1.0
  C  C163  1  0.25648772  0.91461496  0.62469586  1.0
  N  N164  1  0.83727616  0.75030175  0.19343529  1.0
  N  N165  1  0.39342881  0.74930749  0.30649749  1.0
  N  N166  1  0.16271898  0.24969746  0.80656488  1.0
  N  N167  1  0.60657254  0.25069593  0.69350294  1.0
  N  N168  1  0.85163207  0.34437099  0.05826100  1.0
  N  N169  1  0.94853798  0.15534676  0.44187474  1.0
  N  N170  1  0.14836273  0.65562753  0.94173802  1.0
  N  N171  1  0.05147181  0.84465035  0.55812462  1.0
  O  O172  1  0.82669877  0.77865010  0.44954314  1.0
  O  O173  1  0.09826861  0.72098922  0.05035524  1.0
  O  O174  1  0.17328893  0.22134630  0.55045746  1.0
  O  O175  1  0.90172652  0.27900999  0.94964566  1.0
  O  O176  1  0.93036786  0.67320679  0.45770634  1.0
  O  O177  1  0.29889653  0.82691474  0.04226754  1.0
  O  O178  1  0.06963447  0.32679663  0.54229489  1.0
  O  O179  1  0.70110260  0.17308096  0.95773353  1.0
  O  O180  1  0.94474005  0.11229314  0.02743811  1.0
  O  O181  1  0.30493880  0.38749956  0.47263359  1.0
  O  O182  1  0.05525956  0.88770535  0.97256492  1.0
  O  O183  1  0.69505873  0.61250036  0.52736497  1.0
  O  O184  1  0.81563227  0.14234161  0.07788960  1.0
  O  O185  1  0.09523629  0.35738006  0.42221130  1.0
  O  O186  1  0.18436425  0.85765831  0.92211034  1.0
  O  O187  1  0.90475957  0.64262407  0.57778802  1.0
  O  O188  1  0.71612840  0.79435819  0.54496376  1.0
  O  O189  1  0.87647408  0.70582570  0.95495792  1.0
  O  O190  1  0.28388305  0.20564383  0.45503627  1.0
  O  O191  1  0.12352463  0.29417281  0.04504213  1.0
