# generated using pymatgen
data_Zn4H29C42Cl6O13
_symmetry_space_group_name_H-M   'P 1'
_cell_length_a   18.26184408
_cell_length_b   18.27070390
_cell_length_c   18.31264554
_cell_angle_alpha   119.87912840
_cell_angle_beta   119.74912018
_cell_angle_gamma   90.15224887
_symmetry_Int_Tables_number   1
_chemical_formula_structural   Zn4H29C42Cl6O13
_chemical_formula_sum   'Zn8 H58 C84 Cl12 O26'
_cell_volume   4338.99969835
_cell_formula_units_Z   2
loop_
 _symmetry_equiv_pos_site_id
 _symmetry_equiv_pos_as_xyz
  1  'x, y, z'
loop_
 _atom_site_type_symbol
 _atom_site_label
 _atom_site_symmetry_multiplicity
 _atom_site_fract_x
 _atom_site_fract_y
 _atom_site_fract_z
 _atom_site_occupancy
  Zn  Zn0  1  0.13023288  0.05035630  0.58774542  1.0
  Zn  Zn1  1  0.95222606  0.86918038  0.41131291  1.0
  Zn  Zn2  1  0.95997967  0.03978230  0.40871833  1.0
  Zn  Zn3  1  0.96202641  0.04602181  0.59407258  1.0
  Zn  Zn4  1  0.36536267  0.45664043  0.40760815  1.0
  Zn  Zn5  1  0.54190056  0.45578833  0.58463961  1.0
  Zn  Zn6  1  0.53913240  0.63064981  0.58297039  1.0
  Zn  Zn7  1  0.54116253  0.44774962  0.41075123  1.0
  H  H8  1  0.13347437  0.28790594  0.90526275  1.0
  H  H9  1  0.53395163  0.81395719  0.25017891  1.0
  H  H10  1  0.43650353  0.69828347  0.22676910  1.0
  H  H11  1  0.30896364  0.41013518  0.08997286  1.0
  H  H12  1  0.78673856  0.65052419  0.79770815  1.0
  H  H13  1  0.19206142  0.79529096  0.39055815  1.0
  H  H14  1  0.10590838  0.17903853  0.92383012  1.0
  H  H15  1  0.32831127  0.22146001  0.91111778  1.0
  H  H16  1  0.36327967  0.04658674  0.55231943  1.0
  H  H17  1  0.30041355  0.05867301  0.60330356  1.0
  H  H18  1  0.24941409  0.03688537  0.47949539  1.0
  H  H19  1  0.39785150  0.23266027  0.09694353  1.0
  H  H20  1  0.52020247  0.47006665  0.74606805  1.0
  H  H21  1  0.41090144  0.47764303  0.69910564  1.0
  H  H22  1  0.47458072  0.48847114  0.81700595  1.0
  H  H23  1  0.22947485  0.40425236  0.92934190  1.0
  H  H24  1  0.30745362  0.34627597  0.93104819  1.0
  H  H25  1  0.19821826  0.29815729  0.81796972  1.0
  H  H26  1  0.08352941  0.36110389  0.75511417  1.0
  H  H27  1  0.02935283  0.25704545  0.71891273  1.0
  H  H28  1  0.01060969  0.27287702  0.62340735  1.0
  H  H29  1  0.95034930  0.77664141  0.67051326  1.0
  H  H30  1  0.15100021  0.09138614  0.90026853  1.0
  H  H31  1  0.95866471  0.77786278  0.57864019  1.0
  H  H32  1  0.96058679  0.87601691  0.67550538  1.0
  H  H33  1  0.48956568  0.55212255  0.29229287  1.0
  H  H34  1  0.47475089  0.63675726  0.38396445  1.0
  H  H35  1  0.40889947  0.60293891  0.25518546  1.0
  H  H36  1  0.08388253  0.86211140  0.23575996  1.0
  H  H37  1  0.00712832  0.91547048  0.25010400  1.0
  H  H38  1  0.00787661  0.81702118  0.24794080  1.0
  H  H39  1  0.52751369  0.63448540  0.83164071  1.0
  H  H40  1  0.54127338  0.73440711  0.93784895  1.0
  H  H41  1  0.27817790  0.16889159  0.06781247  1.0
  H  H42  1  0.53917685  0.73502741  0.84006408  1.0
  H  H43  1  0.13357259  0.34131321  0.05498914  1.0
  H  H44  1  0.22445744  0.43959921  0.16909993  1.0
  H  H45  1  0.16513426  0.42987513  0.05096351  1.0
  H  H46  1  0.26320145  0.67946566  0.79480393  1.0
  H  H47  1  0.35971564  0.66792873  0.79416180  1.0
  H  H48  1  0.36124497  0.77331165  0.88257290  1.0
  H  H49  1  0.26714825  0.61586084  0.31123923  1.0
  H  H50  1  0.26099971  0.71549016  0.31656682  1.0
  H  H51  1  0.36409635  0.71200663  0.40137218  1.0
  H  H52  1  0.52058895  0.36024783  0.81968778  1.0
  H  H53  1  0.23347998  0.23530064  0.18584952  1.0
  H  H54  1  0.14743788  0.25846230  0.10557754  1.0
  H  H55  1  0.14179133  0.14604190  0.06185223  1.0
  H  H56  1  0.29206673  0.07711379  0.94008668  1.0
  H  H57  1  0.28059894  0.05957860  0.82977878  1.0
  H  H58  1  0.38741594  0.11393747  0.94844380  1.0
  H  H59  1  0.41249379  0.38457174  0.07122860  1.0
  H  H60  1  0.48727674  0.38415081  0.18004732  1.0
  H  H61  1  0.47382592  0.30980315  0.06178956  1.0
  H  H62  1  0.18676841  0.28082347  0.36524276  1.0
  H  H63  1  0.91632664  0.51549025  0.86307492  1.0
  H  H64  1  0.76489692  0.45315224  0.70407581  1.0
  H  H65  1  0.61953877  0.20723699  0.35115200  1.0
  C  C66  1  0.85677348  0.86501098  0.50021672  1.0
  C  C67  1  0.41991826  0.35358088  0.68614274  1.0
  C  C68  1  0.33943422  0.29601748  0.58504323  1.0
  C  C69  1  0.14011522  0.12036312  0.48186016  1.0
  C  C70  1  0.29291266  0.21237468  0.55509720  1.0
  C  C71  1  0.19735176  0.17269600  0.47581825  1.0
  C  C72  1  0.15968012  0.20103800  0.41106237  1.0
  C  C73  1  0.21395924  0.26697592  0.42324932  1.0
  C  C74  1  0.30107166  0.31493518  0.50884714  1.0
  C  C75  1  0.94539147  0.33822637  0.69747874  1.0
  C  C76  1  0.96303318  0.41538230  0.78650773  1.0
  C  C77  1  0.30489445  0.19851407  0.94347677  1.0
  C  C78  1  0.89826109  0.45562429  0.79054712  1.0
  C  C79  1  0.81438041  0.42079179  0.70207313  1.0
  C  C80  1  0.79091080  0.34217576  0.60809475  1.0
  C  C81  1  0.13734558  0.86679580  0.50565608  1.0
  C  C82  1  0.85513818  0.29674543  0.60665890  1.0
  C  C83  1  0.82610911  0.21202048  0.51319913  1.0
  C  C84  1  0.74161280  0.18088491  0.42455471  1.0
  C  C85  1  0.68336013  0.23110660  0.42307734  1.0
  C  C86  1  0.70654683  0.30901693  0.51355922  1.0
  C  C87  1  0.65472742  0.81544679  0.36298106  1.0
  C  C88  1  0.20720218  0.19712842  0.89983753  1.0
  C  C89  1  0.56327291  0.78620322  0.29463168  1.0
  C  C90  1  0.50867110  0.72138171  0.28267643  1.0
  C  C91  1  0.54279890  0.68595503  0.33930812  1.0
  C  C92  1  0.63821391  0.71678449  0.41276920  1.0
  C  C93  1  0.87965337  0.14941298  0.50901568  1.0
  C  C94  1  0.69649511  0.78120854  0.42342112  1.0
  C  C95  1  0.79097182  0.80669211  0.49263810  1.0
  C  C96  1  0.83021781  0.77542847  0.55383198  1.0
  C  C97  1  0.77195067  0.71633660  0.54590586  1.0
  C  C98  1  0.67984739  0.68706751  0.47783891  1.0
  C  C99  1  0.30304024  0.29971867  0.10150392  1.0
  C  C100  1  0.94942608  0.79350450  0.09959392  1.0
  C  C101  1  0.98068782  0.76086626  0.03742444  1.0
  C  C102  1  0.92162533  0.70971228  0.92824457  1.0
  C  C103  1  0.83092223  0.68902418  0.88127453  1.0
  C  C104  1  0.79523694  0.71914085  0.94027015  1.0
  C  C105  1  0.86326398  0.85846612  0.22001526  1.0
  C  C106  1  0.85410686  0.77253464  0.05071758  1.0
  C  C107  1  0.81270426  0.80169381  0.10464428  1.0
  C  C108  1  0.72030480  0.77983504  0.05152412  1.0
  C  C109  1  0.66172143  0.72830385  0.94282278  1.0
  C  C110  1  0.23610175  0.21071818  0.05696259  1.0
  C  C111  1  0.70123833  0.69826158  0.89010807  1.0
  C  C112  1  0.20742865  0.81983315  0.66324913  1.0
  C  C113  1  0.24103230  0.79766150  0.73325840  1.0
  C  C114  1  0.28911875  0.73624803  0.72805263  1.0
  C  C115  1  0.30281552  0.70003169  0.65063393  1.0
  C  C116  1  0.27729221  0.72649418  0.58190148  1.0
  C  C117  1  0.14691231  0.14086941  0.78272213  1.0
  C  C118  1  0.22568438  0.78677651  0.58705911  1.0
  C  C119  1  0.19549408  0.80948463  0.51530514  1.0
  C  C120  1  0.21656386  0.77673606  0.44467065  1.0
  C  C121  1  0.36392836  0.26804504  0.06288474  1.0
  C  C122  1  0.26892012  0.72058500  0.44033082  1.0
  C  C123  1  0.29882052  0.69634497  0.50877566  1.0
  C  C124  1  0.64227192  0.36008258  0.50743891  1.0
  C  C125  1  0.35820807  0.63994619  0.50190596  1.0
  C  C126  1  0.35736478  0.37097626  0.50509157  1.0
  C  C127  1  0.62755176  0.62892241  0.48379076  1.0
  C  C128  1  0.64120539  0.64050711  0.77456576  1.0
  C  C129  1  0.20460076  0.29432513  0.93864691  1.0
  C  C130  1  0.35857910  0.35561828  0.21891488  1.0
  C  C131  1  0.25484392  0.35340907  0.05836938  1.0
  C  C132  1  0.34160758  0.17188204  0.60513695  1.0
  C  C133  1  0.16854984  0.16441815  0.94046692  1.0
  C  C134  1  0.31089839  0.07354621  0.55745201  1.0
  C  C135  1  0.45837121  0.45244134  0.73885521  1.0
  C  C136  1  0.23698915  0.33777756  0.90222151  1.0
  C  C137  1  0.02061158  0.30491440  0.69803895  1.0
  C  C138  1  0.93028359  0.80282224  0.62372395  1.0
  C  C139  1  0.47617727  0.61578464  0.31722899  1.0
  C  C140  1  0.01539125  0.84989301  0.21446827  1.0
  C  C141  1  0.56211425  0.70714082  0.88561268  1.0
  C  C142  1  0.19144491  0.39337137  0.08600748  1.0
  C  C143  1  0.42496775  0.22684635  0.69750520  1.0
  C  C144  1  0.32034858  0.71237321  0.80363261  1.0
  C  C145  1  0.29139618  0.68926939  0.36310260  1.0
  C  C146  1  0.18744714  0.21387824  0.10608515  1.0
  C  C147  1  0.31615746  0.10682418  0.91324323  1.0
  C  C148  1  0.43815938  0.34147059  0.09651133  1.0
  C  C149  1  0.45989755  0.31811578  0.74174157  1.0
  Cl  Cl150  1  0.04741869  0.16270116  0.31458347  1.0
  Cl  Cl151  1  0.14234892  0.88769503  0.67077530  1.0
  Cl  Cl152  1  0.22123020  0.84164493  0.82718669  1.0
  Cl  Cl153  1  0.34808874  0.61407776  0.63425235  1.0
  Cl  Cl154  1  0.48881814  0.18401851  0.76417952  1.0
  Cl  Cl155  1  0.70238777  0.07658248  0.31206400  1.0
  Cl  Cl156  1  0.06986667  0.46971504  0.90031855  1.0
  Cl  Cl157  1  0.71406961  0.89780870  0.37234496  1.0
  Cl  Cl158  1  0.81702414  0.67970313  0.62546226  1.0
  Cl  Cl159  1  0.67480780  0.81667048  0.12232701  1.0
  Cl  Cl160  1  0.09399240  0.78167357  0.09069918  1.0
  Cl  Cl161  1  0.96234290  0.67438261  0.85348813  1.0
  O  O162  1  0.99931363  0.00010121  0.50017876  1.0
  O  O163  1  0.60606802  0.67154137  0.54592536  1.0
  O  O164  1  0.61653554  0.55639375  0.73178986  1.0
  O  O165  1  0.89229532  0.94757215  0.57440964  1.0
  O  O166  1  0.44087857  0.36224997  0.26717574  1.0
  O  O167  1  0.62014120  0.68041153  0.73041929  1.0
  O  O168  1  0.31879216  0.39051809  0.26222467  1.0
  O  O169  1  0.31776363  0.40013119  0.45010515  1.0
  O  O170  1  0.61180499  0.54498635  0.42938599  1.0
  O  O171  1  0.62088904  0.38533368  0.57077544  1.0
  O  O172  1  0.44221414  0.68174637  0.56615612  1.0
  O  O173  1  0.17725897  0.94980017  0.55527360  1.0
  O  O174  1  0.17283220  0.13555367  0.57013645  1.0
  O  O175  1  0.05382792  0.82431318  0.44065262  1.0
  O  O176  1  0.90964508  0.13345337  0.45466104  1.0
  O  O177  1  0.88392835  0.81779797  0.26330554  1.0
  O  O178  1  0.06245566  0.12100451  0.74029244  1.0
  O  O179  1  0.87773784  0.94196689  0.26244656  1.0
  O  O180  1  0.18400316  0.11958973  0.73503619  1.0
  O  O181  1  0.88722483  0.11665061  0.55846687  1.0
  O  O182  1  0.87557269  0.82313824  0.43518265  1.0
  O  O183  1  0.06109928  0.06854947  0.40259517  1.0
  O  O184  1  0.49700180  0.49947379  0.49782775  1.0
  O  O185  1  0.61408687  0.37399424  0.43793712  1.0
  O  O186  1  0.31959673  0.55777220  0.42723074  1.0
  O  O187  1  0.44015972  0.37936424  0.55181114  1.0
