# generated using pymatgen
data_Al4H31C42N3O23
_symmetry_space_group_name_H-M   'P 1'
_cell_length_a   6.72431511
_cell_length_b   16.46485836
_cell_length_c   18.54387993
_cell_angle_alpha   73.12519342
_cell_angle_beta   89.79273929
_cell_angle_gamma   89.55977910
_symmetry_Int_Tables_number   1
_chemical_formula_structural   Al4H31C42N3O23
_chemical_formula_sum   'Al4 H31 C42 N3 O23'
_cell_volume   1964.62059639
_cell_formula_units_Z   1
loop_
 _symmetry_equiv_pos_site_id
 _symmetry_equiv_pos_as_xyz
  1  'x, y, z'
loop_
 _atom_site_type_symbol
 _atom_site_label
 _atom_site_symmetry_multiplicity
 _atom_site_fract_x
 _atom_site_fract_y
 _atom_site_fract_z
 _atom_site_occupancy
  Al  Al0  1  0.89644243  0.50303183  0.49755931  1.0
  Al  Al1  1  0.39653102  0.50492204  0.49825048  1.0
  Al  Al2  1  0.33795407  0.00263365  0.99981070  1.0
  Al  Al3  1  0.83659153  0.00224522  0.00189111  1.0
  H  H4  1  0.01968703  0.79782005  0.36229574  1.0
  H  H5  1  0.32925977  0.87392326  0.26003658  1.0
  H  H6  1  0.47303700  0.70852360  0.26924095  1.0
  H  H7  1  0.77075031  0.80522341  0.23693243  1.0
  H  H8  1  0.72816660  0.37155675  0.76626833  1.0
  H  H9  1  0.84295992  0.20098339  0.65572175  1.0
  H  H10  1  0.95219214  0.08092484  0.82324697  1.0
  H  H11  1  0.19432063  0.12113469  0.82898021  1.0
  H  H12  1  0.07974081  0.13932081  0.73870681  1.0
  H  H13  1  0.31173790  0.75504096  0.08839976  1.0
  H  H14  1  0.30177783  0.62326051  0.06728878  1.0
  H  H15  1  0.13386285  0.58459152  0.14383465  1.0
  H  H16  1  0.38736122  0.59860525  0.16237350  1.0
  H  H17  1  0.84244278  0.58668298  0.29704715  1.0
  H  H18  1  0.69877294  0.56346654  0.18718727  1.0
  H  H19  1  0.84290335  0.64820403  0.12975098  1.0
  H  H20  1  0.64242933  0.67109487  0.18336584  1.0
  H  H21  1  0.74209085  0.03937978  0.70958713  1.0
  H  H22  1  0.52157323  0.97630246  0.71799429  1.0
  H  H23  1  0.60913631  0.00668704  0.79747171  1.0
  H  H24  1  0.25201992  0.18154816  0.61408946  1.0
  H  H25  1  0.35133833  0.28295769  0.56337150  1.0
  H  H26  1  0.08880081  0.27101627  0.57796799  1.0
  H  H27  1  0.19448068  0.27606249  0.82564042  1.0
  H  H28  1  0.27575125  0.32687776  0.92929884  1.0
  H  H29  1  0.52589105  0.34331757  0.89767630  1.0
  H  H30  1  0.43906795  0.23817009  0.94051027  1.0
  H  H31  1  0.64771740  0.60539333  0.50963521  1.0
  H  H32  1  0.14855544  0.40175575  0.55280057  1.0
  H  H33  1  0.58990932  0.89533145  0.04993137  1.0
  H  H34  1  0.08153663  0.11404324  0.96631802  1.0
  C  C35  1  0.63842892  0.38176409  0.60791359  1.0
  C  C36  1  0.65248881  0.42195682  0.40990306  1.0
  C  C37  1  0.15321093  0.61820833  0.38390655  1.0
  C  C38  1  0.13621733  0.59047705  0.58421564  1.0
  C  C39  1  0.13421375  0.64026137  0.63658405  1.0
  C  C40  1  0.12717491  0.68379031  0.68017478  1.0
  C  C41  1  0.11822865  0.73143929  0.72774836  1.0
  C  C42  1  0.10781224  0.77540513  0.77138649  1.0
  C  C43  1  0.09688511  0.82255858  0.81933466  1.0
  C  C44  1  0.08752977  0.86514784  0.86365959  1.0
  C  C45  1  0.23843757  0.82009670  0.25722302  1.0
  C  C46  1  0.06336751  0.78041009  0.31182359  1.0
  C  C47  1  0.14493928  0.68961530  0.31408492  1.0
  C  C48  1  0.31826448  0.72967290  0.26009730  1.0
  C  C49  1  0.17772502  0.73104234  0.19002677  1.0
  C  C50  1  0.00492722  0.69002089  0.24639423  1.0
  C  C51  1  0.92485249  0.78257935  0.24363858  1.0
  C  C52  1  0.09858531  0.82234471  0.18935934  1.0
  C  C53  1  0.42600909  0.25812786  0.70645787  1.0
  C  C54  1  0.54233525  0.17094280  0.72668453  1.0
  C  C55  1  0.59737023  0.17651446  0.80893744  1.0
  C  C56  1  0.47214747  0.26896068  0.78585366  1.0
  C  C57  1  0.67439036  0.31332503  0.75609229  1.0
  C  C58  1  0.78815460  0.22698204  0.77421052  1.0
  C  C59  1  0.73941028  0.21925807  0.69381777  1.0
  C  C60  1  0.62526527  0.30592191  0.67447510  1.0
  C  C61  1  0.64451226  0.37420221  0.35606078  1.0
  C  C62  1  0.63068346  0.33164821  0.31189508  1.0
  C  C63  1  0.61583106  0.28421523  0.26439834  1.0
  C  C64  1  0.60243406  0.23947532  0.22157407  1.0
  C  C65  1  0.59212381  0.19054208  0.17519527  1.0
  C  C66  1  0.58586601  0.14530843  0.13306769  1.0
  C  C67  1  0.58984676  0.09259631  0.08305687  1.0
  C  C68  1  0.58499636  0.11243702  0.88272421  1.0
  C  C69  1  0.08206905  0.91399540  0.91689340  1.0
  C  C70  1  0.09288270  0.89063205  0.11752885  1.0
  C  C71  1  0.05390887  0.13336965  0.79838191  1.0
  C  C72  1  0.26278311  0.62542988  0.12424229  1.0
  C  C73  1  0.76406747  0.62536448  0.18377241  1.0
  C  C74  1  0.59370954  0.02675811  0.73572182  1.0
  C  C75  1  0.23496703  0.25053472  0.60303853  1.0
  C  C76  1  0.39718399  0.30120868  0.90259872  1.0
  N  N77  1  0.21273500  0.71323370  0.12079542  1.0
  N  N78  1  0.90382155  0.61550982  0.24562765  1.0
  N  N79  1  0.33475923  0.29888268  0.82817409  1.0
  O  O80  1  0.48798157  0.43129023  0.44070686  1.0
  O  O81  1  0.80686976  0.40280565  0.57600547  1.0
  O  O82  1  0.96773708  0.56287243  0.57091499  1.0
  O  O83  1  0.82192249  0.44929894  0.42205677  1.0
  O  O84  1  0.98668072  0.59609172  0.41713324  1.0
  O  O85  1  0.47455277  0.42177183  0.58875744  1.0
  O  O86  1  0.64710547  0.55526967  0.49221281  1.0
  O  O87  1  0.32189887  0.58540104  0.40685704  1.0
  O  O88  1  0.30478056  0.58031322  0.55622492  1.0
  O  O89  1  0.14745587  0.45215378  0.50956818  1.0
  O  O90  1  0.74457896  0.09388315  0.92175274  1.0
  O  O91  1  0.42436751  0.08107792  0.05431560  1.0
  O  O92  1  0.26166051  0.92167604  0.09189600  1.0
  O  O93  1  0.41519229  0.07979361  0.90591377  1.0
  O  O94  1  0.24906830  0.92549899  0.94428841  1.0
  O  O95  1  0.76035232  0.06398106  0.07260037  1.0
  O  O96  1  0.58799744  0.94995797  0.01176149  1.0
  O  O97  1  0.91154690  0.94000346  0.93083539  1.0
  O  O98  1  0.92576720  0.91150486  0.08487350  1.0
  O  O99  1  0.08655688  0.05346982  0.99095407  1.0
  O  O100  1  0.97432748  0.21192619  0.80671278  1.0
  O  O101  1  0.46690096  0.10030577  0.71098647  1.0
  O  O102  1  0.24229245  0.27376526  0.67221604  1.0
