# generated using pymatgen
data_Zn3H16C38(NO10)2
_symmetry_space_group_name_H-M   'P 1'
_cell_length_a   18.13135927
_cell_length_b   18.41524351
_cell_length_c   18.80476411
_cell_angle_alpha   108.53580874
_cell_angle_beta   108.77650134
_cell_angle_gamma   108.42804443
_symmetry_Int_Tables_number   1
_chemical_formula_structural   Zn3H16C38(NO10)2
_chemical_formula_sum   'Zn6 H32 C76 N4 O40'
_cell_volume   4986.46579206
_cell_formula_units_Z   2
loop_
 _symmetry_equiv_pos_site_id
 _symmetry_equiv_pos_as_xyz
  1  'x, y, z'
loop_
 _atom_site_type_symbol
 _atom_site_label
 _atom_site_symmetry_multiplicity
 _atom_site_fract_x
 _atom_site_fract_y
 _atom_site_fract_z
 _atom_site_occupancy
  Zn  Zn0  1  0.51033043  0.43500327  0.46114597  1.0
  Zn  Zn1  1  0.49655285  0.56685598  0.56465320  1.0
  Zn  Zn2  1  0.94963111  0.43868202  0.01924380  1.0
  Zn  Zn3  1  0.06754912  0.54832022  0.99578292  1.0
  Zn  Zn4  1  0.92415559  0.99400926  0.42180506  1.0
  Zn  Zn5  1  0.05736319  0.99876974  0.54449070  1.0
  H  H6  1  0.21047942  0.36505333  0.29917761  1.0
  H  H7  1  0.77572530  0.50514063  0.66014210  1.0
  H  H8  1  0.48017147  0.54302510  0.32034418  1.0
  H  H9  1  0.51274086  0.43368146  0.68531659  1.0
  H  H10  1  0.52350949  0.61525460  0.23830040  1.0
  H  H11  1  0.46603062  0.40140901  0.78740597  1.0
  H  H12  1  0.09506422  0.37156504  0.18910937  1.0
  H  H13  1  0.88401977  0.51149650  0.78692538  1.0
  H  H14  1  0.59326976  0.74384542  0.45850358  1.0
  H  H15  1  0.36499785  0.29618943  0.57057525  1.0
  H  H16  1  0.74316516  0.60445556  0.57483526  1.0
  H  H17  1  0.25162646  0.46468527  0.46712691  1.0
  H  H18  1  0.88821237  0.60905217  0.60811166  1.0
  H  H19  1  0.10274272  0.44676743  0.39001552  1.0
  H  H20  1  0.99100494  0.69973217  0.57196687  1.0
  H  H21  1  0.96989325  0.31808191  0.35591329  1.0
  H  H22  1  0.95082935  0.78751930  0.50938430  1.0
  H  H23  1  0.98641990  0.20762788  0.39770146  1.0
  H  H24  1  0.69704997  0.83798458  0.42664023  1.0
  H  H25  1  0.23454595  0.17597989  0.54893760  1.0
  H  H26  1  0.08344313  0.66540702  0.28662282  1.0
  H  H27  1  0.00882396  0.36794554  0.73326341  1.0
  H  H28  1  0.99764170  0.71442496  0.04545805  1.0
  H  H29  1  0.02757747  0.29430423  0.95988754  1.0
  H  H30  1  0.96849854  0.82751669  0.01731157  1.0
  H  H31  1  0.02813063  0.17027836  0.98209898  1.0
  H  H32  1  0.01189391  0.96627521  0.14094057  1.0
  H  H33  1  0.99236422  0.03464174  0.86069173  1.0
  H  H34  1  0.17799214  0.09398712  0.40991855  1.0
  H  H35  1  0.94393930  0.89303396  0.66537930  1.0
  H  H36  1  0.19133649  0.51187610  0.94114171  1.0
  H  H37  1  0.85779598  0.57370259  0.07807531  1.0
  C  C38  1  0.61393727  0.63257079  0.51736581  1.0
  C  C39  1  0.37194392  0.42112882  0.53113185  1.0
  C  C40  1  0.38669824  0.45554461  0.36183371  1.0
  C  C41  1  0.61336790  0.48153625  0.62286488  1.0
  C  C42  1  0.42984229  0.53728440  0.26485364  1.0
  C  C43  1  0.56023197  0.43968015  0.74275857  1.0
  C  C44  1  0.45467395  0.57635472  0.21949834  1.0
  C  C45  1  0.53404593  0.42295205  0.79915408  1.0
  C  C46  1  0.38843967  0.55947707  0.14294104  1.0
  C  C47  1  0.59821767  0.43837896  0.87617462  1.0
  C  C48  1  0.29917171  0.51277681  0.11527233  1.0
  C  C49  1  0.68592151  0.46425573  0.89625536  1.0
  C  C50  1  0.27194856  0.48197849  0.16841206  1.0
  C  C51  1  0.71198405  0.47165572  0.83327722  1.0
  C  C52  1  0.33941550  0.48836061  0.23982910  1.0
  C  C53  1  0.64856973  0.46454288  0.75790388  1.0
  C  C54  1  0.31531439  0.44504296  0.28557602  1.0
  C  C55  1  0.67409875  0.47925234  0.69733539  1.0
  C  C56  1  0.22827640  0.39856022  0.26414948  1.0
  C  C57  1  0.75755037  0.49557898  0.70760392  1.0
  C  C58  1  0.16304817  0.40066821  0.20093749  1.0
  C  C59  1  0.81840173  0.49945929  0.77902306  1.0
  C  C60  1  0.18278129  0.44312911  0.15517861  1.0
  C  C61  1  0.79727869  0.48694226  0.84037440  1.0
  C  C62  1  0.78892402  0.64579570  0.56156199  1.0
  C  C63  1  0.19360604  0.40806872  0.45113481  1.0
  C  C64  1  0.86975976  0.64800348  0.57978321  1.0
  C  C65  1  0.11047162  0.39802124  0.40842641  1.0
  C  C66  1  0.92796893  0.69953513  0.56022241  1.0
  C  C67  1  0.03545824  0.32532196  0.38919259  1.0
  C  C68  1  0.90551705  0.74947559  0.52491480  1.0
  C  C69  1  0.04414015  0.26341209  0.41244968  1.0
  C  C70  1  0.82359201  0.75080685  0.50693747  1.0
  C  C71  1  0.12846938  0.27101931  0.45612186  1.0
  C  C72  1  0.76318642  0.69566537  0.52427761  1.0
  C  C73  1  0.20508684  0.34563297  0.47621029  1.0
  C  C74  1  0.67968298  0.69423327  0.50562149  1.0
  C  C75  1  0.29019418  0.35284305  0.51765934  1.0
  C  C76  1  0.65684188  0.74499744  0.47143758  1.0
  C  C77  1  0.29984298  0.29103898  0.54094933  1.0
  C  C78  1  0.71511079  0.79767989  0.45295506  1.0
  C  C79  1  0.22607811  0.22172291  0.52619279  1.0
  C  C80  1  0.79732573  0.80228873  0.47082062  1.0
  C  C81  1  0.14127024  0.20956350  0.48304722  1.0
  C  C82  1  0.04578538  0.63778299  0.12710834  1.0
  C  C83  1  0.01476410  0.38830350  0.88129952  1.0
  C  C84  1  0.11077226  0.45584301  0.10366950  1.0
  C  C85  1  0.86773528  0.48523503  0.90732393  1.0
  C  C86  1  0.99840608  0.09924661  0.62059902  1.0
  C  C87  1  0.04455582  0.90795233  0.39213755  1.0
  C  C88  1  0.85944322  0.86857533  0.45999815  1.0
  C  C89  1  0.06997106  0.13057754  0.47063621  1.0
  C  C90  1  0.00820731  0.77141075  0.09704369  1.0
  C  C91  1  0.01758855  0.23787643  0.90857570  1.0
  C  C92  1  0.99296330  0.83476541  0.08152439  1.0
  C  C93  1  0.01709351  0.16795810  0.92071795  1.0
  C  C94  1  0.01472464  0.91148879  0.15010875  1.0
  C  C95  1  0.99885125  0.09222681  0.85309344  1.0
  C  C96  1  0.04479383  0.92209659  0.23228437  1.0
  C  C97  1  0.98468443  0.08819258  0.77477465  1.0
  C  C98  1  0.04814341  0.85195988  0.24860308  1.0
  C  C99  1  0.99476907  0.16343085  0.76303784  1.0
  C  C100  1  0.03729606  0.77892705  0.18007493  1.0
  C  C101  1  0.00635887  0.23804027  0.83029121  1.0
  C  C102  1  0.05276117  0.71292218  0.19582823  1.0
  C  C103  1  0.01024781  0.31178112  0.81766349  1.0
  C  C104  1  0.07215874  0.71579132  0.27410036  1.0
  C  C105  1  0.00605917  0.31237771  0.74346158  1.0
  C  C106  1  0.07250413  0.78242050  0.33692454  1.0
  C  C107  1  0.00092225  0.24139930  0.68161358  1.0
  C  C108  1  0.05915517  0.84937688  0.32688362  1.0
  C  C109  1  0.99659154  0.16787887  0.68897107  1.0
  C  C110  1  0.08432091  0.01315637  0.29883940  1.0
  C  C111  1  0.94349019  0.00112437  0.70101820  1.0
  C  C112  1  0.23453975  0.48076565  0.02536314  1.0
  C  C113  1  0.74855754  0.48524656  0.98389399  1.0
  N  N114  1  0.08128093  0.77179873  0.41355992  1.0
  N  N115  1  0.00783419  0.25326709  0.60973139  1.0
  N  N116  1  0.42046826  0.58925516  0.08911113  1.0
  N  N117  1  0.56715823  0.42940449  0.93829249  1.0
  O  O118  1  0.59352113  0.55304637  0.47868460  1.0
  O  O119  1  0.39462083  0.50182465  0.57332603  1.0
  O  O120  1  0.58136437  0.66242542  0.56412376  1.0
  O  O121  1  0.41604851  0.39337422  0.49989960  1.0
  O  O122  1  0.42045148  0.40377355  0.35025299  1.0
  O  O123  1  0.58527720  0.53666412  0.63819723  1.0
  O  O124  1  0.40856267  0.51601584  0.43227230  1.0
  O  O125  1  0.59709872  0.42892384  0.54893538  1.0
  O  O126  1  0.99165793  0.56276917  0.10984979  1.0
  O  O127  1  0.06279568  0.46511898  0.89394322  1.0
  O  O128  1  0.09356523  0.65437384  0.09134087  1.0
  O  O129  1  0.96914834  0.37450635  0.91857512  1.0
  O  O130  1  0.03166635  0.41127427  0.08945242  1.0
  O  O131  1  0.94662530  0.53707178  0.93047842  1.0
  O  O132  1  0.13160535  0.51345898  0.08015563  1.0
  O  O133  1  0.84547588  0.42983777  0.93399975  1.0
  O  O134  1  0.94484431  0.07375431  0.54479984  1.0
  O  O135  1  0.09407815  0.93258670  0.47058816  1.0
  O  O136  1  0.05731424  0.07532028  0.64534713  1.0
  O  O137  1  0.98122279  0.92380523  0.36389750  1.0
  O  O138  1  0.82772740  0.89505581  0.40749774  1.0
  O  O139  1  0.09681442  0.09619016  0.51551220  1.0
  O  O140  1  0.94158072  0.89805564  0.50575153  1.0
  O  O141  1  0.98869248  0.09862941  0.41680421  1.0
  O  O142  1  0.06355835  0.06736294  0.28842323  1.0
  O  O143  1  0.15369234  0.03225277  0.37070896  1.0
  O  O144  1  0.88057992  0.97702702  0.63354513  1.0
  O  O145  1  0.97763404  0.94897510  0.71739314  1.0
  O  O146  1  0.01475457  0.75055875  0.42321213  1.0
  O  O147  1  0.15305799  0.78017134  0.45918999  1.0
  O  O148  1  0.07420199  0.25602965  0.60294276  1.0
  O  O149  1  0.94986543  0.26409514  0.56481355  1.0
  O  O150  1  0.47407181  0.66672592  0.12335846  1.0
  O  O151  1  0.39393157  0.53458686  0.01590522  1.0
  O  O152  1  0.50416016  0.35903062  0.91259014  1.0
  O  O153  1  0.60402527  0.49297881  0.00884147  1.0
  O  O154  1  0.18521215  0.40355565  0.97814620  1.0
  O  O155  1  0.23821182  0.54272256  0.00078347  1.0
  O  O156  1  0.73826799  0.43795648  0.01649274  1.0
  O  O157  1  0.81724453  0.56623207  0.02368892  1.0
