# generated using pymatgen
data_ZnH16C19NO4
_symmetry_space_group_name_H-M   'P 1'
_cell_length_a   9.69264095
_cell_length_b   11.06953824
_cell_length_c   17.69049686
_cell_angle_alpha   90.79277871
_cell_angle_beta   89.86780580
_cell_angle_gamma   89.76757969
_symmetry_Int_Tables_number   1
_chemical_formula_structural   ZnH16C19NO4
_chemical_formula_sum   'Zn2 H32 C38 N2 O8'
_cell_volume   1897.86492738
_cell_formula_units_Z   2
loop_
 _symmetry_equiv_pos_site_id
 _symmetry_equiv_pos_as_xyz
  1  'x, y, z'
loop_
 _atom_site_type_symbol
 _atom_site_label
 _atom_site_symmetry_multiplicity
 _atom_site_fract_x
 _atom_site_fract_y
 _atom_site_fract_z
 _atom_site_occupancy
  Zn  Zn0  1  0.36394843  0.48742095  0.49665774  1.0
  Zn  Zn1  1  0.64578490  0.48849322  0.49742243  1.0
  H  H2  1  0.72896175  0.09513423  0.46312757  1.0
  H  H3  1  0.27505737  0.51782684  0.25728845  1.0
  H  H4  1  0.87395485  0.70085621  0.61879512  1.0
  H  H5  1  0.71135961  0.57999921  0.26343301  1.0
  H  H6  1  0.70986243  0.62178011  0.12454243  1.0
  H  H7  1  0.34646485  0.43094982  0.89456586  1.0
  H  H8  1  0.65011526  0.65323050  0.71943830  1.0
  H  H9  1  0.64913145  0.70725619  0.85708625  1.0
  H  H10  1  0.72577862  0.87066199  0.47002367  1.0
  H  H11  1  0.98520557  0.45155083  0.05376393  1.0
  H  H12  1  0.08680197  0.49100575  0.97434344  1.0
  H  H13  1  0.21932345  0.11445009  0.57754370  1.0
  H  H14  1  0.06157064  0.33647591  0.99640944  1.0
  H  H15  1  0.29872648  0.40481467  0.03659115  1.0
  H  H16  1  0.19967250  0.36286633  0.11561684  1.0
  H  H17  1  0.14533344  0.57780574  0.14490305  1.0
  H  H18  1  0.23184469  0.62330940  0.06170438  1.0
  H  H19  1  0.87153505  0.56335052  0.67070790  1.0
  H  H20  1  0.08936475  0.19997874  0.73172925  1.0
  H  H21  1  0.23822006  0.10624594  0.73560868  1.0
  H  H22  1  0.11857820  0.10863517  0.81188805  1.0
  H  H23  1  0.32819793  0.23075102  0.84566799  1.0
  H  H24  1  0.17716068  0.10678629  0.47959001  1.0
  H  H25  1  0.17962149  0.32317781  0.84233664  1.0
  H  H26  1  0.24204847  0.38502728  0.71035397  1.0
  H  H27  1  0.38482044  0.28945304  0.71082987  1.0
  H  H28  1  0.21518548  0.88801115  0.58361997  1.0
  H  H29  1  0.17328143  0.87886036  0.48535660  1.0
  H  H30  1  0.87498181  0.38917738  0.39680606  1.0
  H  H31  1  0.13602786  0.38806189  0.39707618  1.0
  H  H32  1  0.13397139  0.56058853  0.67195354  1.0
  H  H33  1  0.13661694  0.69747760  0.62017923  1.0
  C  C34  1  0.51002427  0.72434408  0.50173655  1.0
  C  C35  1  0.49635241  0.57246281  0.88455138  1.0
  C  C36  1  0.39124292  0.92832959  0.50783365  1.0
  C  C37  1  0.49957320  0.49169712  0.64586294  1.0
  C  C38  1  0.50961351  0.85855791  0.49665478  1.0
  C  C39  1  0.63146732  0.92254236  0.48006476  1.0
  C  C40  1  0.63319479  0.04831499  0.47606796  1.0
  C  C41  1  0.51332297  0.11835475  0.48918163  1.0
  C  C42  1  0.39332324  0.05421670  0.50458671  1.0
  C  C43  1  0.24148389  0.06696924  0.52388883  1.0
  C  C44  1  0.23890223  0.92420545  0.52749771  1.0
  C  C45  1  0.49125203  0.58974028  0.11238261  1.0
  C  C46  1  0.93267503  0.53970367  0.55150832  1.0
  C  C47  1  0.93324787  0.43273109  0.44211386  1.0
  C  C48  1  0.07713265  0.43162310  0.44242105  1.0
  C  C49  1  0.51509114  0.25287355  0.48921237  1.0
  C  C50  1  0.07655402  0.53801420  0.55209278  1.0
  C  C51  1  0.08615269  0.60944102  0.62524982  1.0
  C  C52  1  0.92195112  0.61149829  0.62450565  1.0
  C  C53  1  0.49517250  0.51290859  0.34989449  1.0
  C  C54  1  0.36537152  0.56305313  0.14991114  1.0
  C  C55  1  0.36980618  0.53983425  0.22711868  1.0
  C  C56  1  0.49398270  0.59933500  0.03267391  1.0
  C  C57  1  0.49372820  0.54289277  0.26774771  1.0
  C  C58  1  0.61623615  0.57496530  0.23088536  1.0
  C  C59  1  0.61494792  0.59859074  0.15409095  1.0
  C  C60  1  0.23192090  0.55542920  0.10667082  1.0
  C  C61  1  0.20737163  0.43015118  0.07050744  1.0
  C  C62  1  0.07822660  0.42689426  0.02112661  1.0
  C  C63  1  0.32069160  0.34721152  0.74832175  1.0
  C  C64  1  0.25031732  0.26810328  0.80700806  1.0
  C  C65  1  0.16963820  0.16504746  0.76964938  1.0
  C  C66  1  0.49625485  0.59412250  0.96365030  1.0
  C  C67  1  0.41097031  0.48005466  0.85505124  1.0
  C  C68  1  0.40957393  0.44929724  0.77836883  1.0
  C  C69  1  0.49788787  0.51385807  0.72972023  1.0
  C  C70  1  0.58344573  0.60514540  0.75851607  1.0
  C  C71  1  0.58288487  0.63574003  0.83502936  1.0
  N  N72  1  0.85777716  0.48808483  0.49748432  1.0
  N  N73  1  0.15203986  0.48525703  0.49831597  1.0
  O  O74  1  0.39355108  0.67180549  0.49582147  1.0
  O  O75  1  0.62619670  0.67250029  0.51152186  1.0
  O  O76  1  0.38301433  0.49440675  0.61284893  1.0
  O  O77  1  0.61628347  0.47615677  0.61396599  1.0
  O  O78  1  0.39853906  0.30529399  0.49800521  1.0
  O  O79  1  0.63104615  0.30561830  0.48191391  1.0
  O  O80  1  0.38001863  0.48694083  0.38073407  1.0
  O  O81  1  0.61154937  0.51579199  0.38347871  1.0
