# generated using pymatgen
data_Al3H10C45I15O14
_symmetry_space_group_name_H-M   'P 1'
_cell_length_a   16.37153677
_cell_length_b   16.51010256
_cell_length_c   26.54943117
_cell_angle_alpha   90.34280645
_cell_angle_beta   90.15127737
_cell_angle_gamma   60.73641086
_symmetry_Int_Tables_number   1
_chemical_formula_structural   Al3H10C45I15O14
_chemical_formula_sum   'Al6 H20 C90 I30 O28'
_cell_volume   6260.26028050
_cell_formula_units_Z   2
loop_
 _symmetry_equiv_pos_site_id
 _symmetry_equiv_pos_as_xyz
  1  'x, y, z'
loop_
 _atom_site_type_symbol
 _atom_site_label
 _atom_site_symmetry_multiplicity
 _atom_site_fract_x
 _atom_site_fract_y
 _atom_site_fract_z
 _atom_site_occupancy
  Al  Al0  1  0.73389327  0.75003708  0.49137514  1.0
  Al  Al1  1  0.73753101  0.55244138  0.49825727  1.0
  Al  Al2  1  0.55315778  0.72896697  0.49775095  1.0
  Al  Al3  1  0.48289301  0.26303807  0.00019569  1.0
  Al  Al4  1  0.28619155  0.45027540  0.99780947  1.0
  Al  Al5  1  0.28392195  0.27033932  0.99782645  1.0
  H  H6  1  0.29553133  0.69601405  0.28099834  1.0
  H  H7  1  0.32134241  0.71308421  0.21810234  1.0
  H  H8  1  0.26582803  0.64500243  0.22976866  1.0
  H  H9  1  0.69342957  0.01098298  0.27370359  1.0
  H  H10  1  0.70999320  0.96479881  0.21145983  1.0
  H  H11  1  0.64270482  0.08713056  0.22151633  1.0
  H  H12  1  0.00828234  0.29220523  0.26978328  1.0
  H  H13  1  0.96387308  0.32172794  0.20733589  1.0
  H  H14  1  0.08722477  0.26487269  0.21828285  1.0
  H  H15  1  0.99034541  0.30171204  0.78131706  1.0
  H  H16  1  0.91051182  0.35185850  0.73014690  1.0
  H  H17  1  0.03324924  0.28413099  0.71833578  1.0
  H  H18  1  0.70416334  0.99168821  0.77365741  1.0
  H  H19  1  0.72917263  0.91443731  0.72159031  1.0
  H  H20  1  0.67523081  0.03669897  0.71142140  1.0
  H  H21  1  0.30158148  0.70725012  0.77059420  1.0
  H  H22  1  0.35361879  0.73448999  0.71922699  1.0
  H  H23  1  0.28726527  0.67661090  0.70807963  1.0
  H  H24  1  0.80628539  0.83028165  0.52459757  1.0
  H  H25  1  0.63762965  0.20377864  0.97256097  1.0
  C  C26  1  0.55358827  0.85112294  0.43068548  1.0
  C  C27  1  0.84299290  0.59252071  0.42610400  1.0
  C  C28  1  0.60400231  0.55978563  0.43303528  1.0
  C  C29  1  0.40693069  0.14993190  0.93221040  1.0
  C  C30  1  0.43508956  0.41182450  0.92804005  1.0
  C  C31  1  0.16309714  0.44030250  0.93263432  1.0
  C  C32  1  0.58782665  0.84541870  0.56547573  1.0
  C  C33  1  0.85938293  0.54527205  0.56567366  1.0
  C  C34  1  0.56287571  0.59991759  0.56344119  1.0
  C  C35  1  0.43050437  0.15957811  0.06757764  1.0
  C  C36  1  0.40906810  0.44693671  0.06551259  1.0
  C  C37  1  0.16233244  0.40241855  0.06281823  1.0
  C  C38  1  0.44247395  0.49227942  0.28364583  1.0
  C  C39  1  0.48834551  0.06609369  0.27879479  1.0
  C  C40  1  0.07068537  0.43674817  0.27683039  1.0
  C  C41  1  0.93511727  0.50609652  0.78397957  1.0
  C  C42  1  0.55534750  0.93434369  0.77896711  1.0
  C  C43  1  0.50704512  0.56358078  0.77742387  1.0
  C  C44  1  0.41255445  0.57847532  0.24773554  1.0
  C  C45  1  0.57403422  0.00947445  0.24213013  1.0
  C  C46  1  0.01260504  0.40937527  0.23931211  1.0
  C  C47  1  0.99087958  0.41913938  0.74819900  1.0
  C  C48  1  0.58386649  0.99166047  0.74238097  1.0
  C  C49  1  0.42231985  0.59018450  0.73994596  1.0
  C  C50  1  0.42889823  0.48197680  0.11095815  1.0
  C  C51  1  0.46425109  0.09600046  0.10921321  1.0
  C  C52  1  0.10136100  0.42725673  0.10575973  1.0
  C  C53  1  0.91255493  0.50876546  0.61137925  1.0
  C  C54  1  0.55983490  0.90602472  0.60862052  1.0
  C  C55  1  0.52746159  0.57440025  0.60648466  1.0
  C  C56  1  0.57924827  0.52351758  0.38982104  1.0
  C  C57  1  0.51616804  0.90851184  0.38710828  1.0
  C  C58  1  0.90546278  0.56405242  0.38355555  1.0
  C  C59  1  0.10234635  0.47574940  0.88968385  1.0
  C  C60  1  0.42775237  0.09237000  0.88797842  1.0
  C  C61  1  0.46796306  0.43829103  0.88422901  1.0
  C  C62  1  0.49694756  0.42382543  0.23920177  1.0
  C  C63  1  0.41779400  0.07835381  0.23556357  1.0
  C  C64  1  0.08648243  0.49316526  0.23420135  1.0
  C  C65  1  0.92207470  0.57347152  0.73935139  1.0
  C  C66  1  0.49751939  0.92061367  0.73585127  1.0
  C  C67  1  0.57890319  0.50710801  0.73464513  1.0
  C  C68  1  0.46734426  0.50959028  0.20287076  1.0
  C  C69  1  0.50304381  0.02142419  0.19825241  1.0
  C  C70  1  0.02845410  0.46629484  0.19606142  1.0
  C  C71  1  0.97757946  0.48692938  0.70318172  1.0
  C  C72  1  0.52523275  0.97831439  0.69868368  1.0
  C  C73  1  0.49472598  0.53335524  0.69652105  1.0
  C  C74  1  0.58880734  0.42565526  0.25449775  1.0
  C  C75  1  0.41888073  0.98653626  0.25185136  1.0
  C  C76  1  0.99495838  0.58348722  0.25063956  1.0
  C  C77  1  0.01531840  0.57260554  0.75451338  1.0
  C  C78  1  0.40727475  0.01176666  0.75266771  1.0
  C  C79  1  0.57686646  0.41666058  0.75069622  1.0
  C  C80  1  0.53500709  0.49379622  0.29964985  1.0
  C  C81  1  0.48877925  0.97434354  0.29589522  1.0
  C  C82  1  0.97944076  0.52730780  0.29396844  1.0
  C  C83  1  0.02879042  0.50544811  0.79979889  1.0
  C  C84  1  0.46473626  0.02543497  0.79659578  1.0
  C  C85  1  0.50549121  0.47273397  0.79418621  1.0
  C  C86  1  0.55972777  0.51138369  0.21832511  1.0
  C  C87  1  0.50432093  0.92931488  0.21510493  1.0
  C  C88  1  0.93648306  0.55706988  0.21297682  1.0
  C  C89  1  0.07136119  0.48613121  0.71839562  1.0
  C  C90  1  0.43486178  0.06971697  0.71597532  1.0
  C  C91  1  0.49276913  0.44235146  0.71299114  1.0
  C  C92  1  0.50500669  0.57934497  0.26287774  1.0
  C  C93  1  0.57420622  0.91814152  0.25866180  1.0
  C  C94  1  0.92182371  0.50033735  0.25577207  1.0
  C  C95  1  0.08381738  0.41911216  0.76308989  1.0
  C  C96  1  0.49315071  0.08236304  0.75934360  1.0
  C  C97  1  0.42171975  0.49904525  0.75599345  1.0
  C  C98  1  0.44049433  0.50504883  0.15287086  1.0
  C  C99  1  0.49468664  0.05415426  0.14854130  1.0
  C  C100  1  0.06150434  0.44103038  0.14622844  1.0
  C  C101  1  0.94666584  0.48881493  0.65334502  1.0
  C  C102  1  0.54910499  0.94633629  0.64870630  1.0
  C  C103  1  0.50240279  0.55913321  0.64685515  1.0
  C  C104  1  0.56378876  0.49904704  0.34913117  1.0
  C  C105  1  0.49327299  0.94404923  0.34572357  1.0
  C  C106  1  0.94636539  0.55236770  0.34363470  1.0
  C  C107  1  0.06247680  0.50095041  0.84924274  1.0
  C  C108  1  0.43956945  0.05599523  0.84663165  1.0
  C  C109  1  0.49714721  0.44841299  0.84390249  1.0
  C  C110  1  0.31838345  0.66266065  0.24387358  1.0
  C  C111  1  0.65958683  0.01902808  0.23684002  1.0
  C  C112  1  0.01872090  0.31672047  0.23321122  1.0
  C  C113  1  0.98029588  0.33463153  0.74426236  1.0
  C  C114  1  0.67850597  0.98284278  0.73684629  1.0
  C  C115  1  0.33667120  0.68245393  0.73401420  1.0
  I  I116  1  0.35695774  0.47558666  0.33691524  1.0
  I  I117  1  0.47405115  0.16729061  0.33192280  1.0
  I  I118  1  0.16938957  0.35121182  0.33063349  1.0
  I  I119  1  0.83279728  0.52391345  0.83741295  1.0
  I  I120  1  0.64238581  0.83405008  0.83144791  1.0
  I  I121  1  0.52048394  0.65010901  0.83145363  1.0
  I  I122  1  0.51415173  0.69573457  0.28723337  1.0
  I  I123  1  0.69319225  0.79689511  0.28256712  1.0
  I  I124  1  0.79586054  0.50889949  0.27921295  1.0
  I  I125  1  0.20761095  0.30337982  0.78746716  1.0
  I  I126  1  0.48901844  0.20557666  0.78334312  1.0
  I  I127  1  0.30435856  0.49003855  0.77923869  1.0
  I  I128  1  0.64160963  0.52827812  0.16312785  1.0
  I  I129  1  0.51947526  0.82723934  0.16273296  1.0
  I  I130  1  0.83528886  0.64467415  0.16112393  1.0
  I  I131  1  0.16990064  0.46883490  0.66303206  1.0
  I  I132  1  0.34821864  0.17067272  0.66397456  1.0
  I  I133  1  0.47899886  0.35402516  0.66068127  1.0
  I  I134  1  0.72067983  0.30655558  0.26030211  1.0
  I  I135  1  0.29891095  0.97250960  0.25992284  1.0
  I  I136  1  0.98318157  0.71498573  0.25989629  1.0
  I  I137  1  0.02890742  0.69236177  0.76010463  1.0
  I  I138  1  0.27424864  0.02398245  0.76093433  1.0
  I  I139  1  0.69581779  0.28582045  0.75937233  1.0
  I  I140  1  0.48842443  0.30765486  0.21444926  1.0
  I  I141  1  0.30247366  0.20215126  0.21200129  1.0
  I  I142  1  0.21400551  0.48239969  0.21201209  1.0
  I  I143  1  0.79880764  0.68896098  0.71480003  1.0
  I  I144  1  0.50711416  0.79548296  0.71163028  1.0
  I  I145  1  0.69588955  0.51764138  0.71249870  1.0
  O  O146  1  0.80199982  0.67889666  0.43523937  1.0
  O  O147  1  0.68614010  0.50746040  0.45149593  1.0
  O  O148  1  0.50511874  0.81417640  0.44727017  1.0
  O  O149  1  0.48473056  0.32761328  0.94082733  1.0
  O  O150  1  0.19153091  0.49476021  0.95119641  1.0
  O  O151  1  0.32051389  0.18518260  0.94757685  1.0
  O  O152  1  0.63107807  0.83800843  0.44816671  1.0
  O  O153  1  0.83151204  0.53132056  0.44962816  1.0
  O  O154  1  0.54615580  0.64091468  0.44863143  1.0
  O  O155  1  0.46872914  0.16503069  0.95102963  1.0
  O  O156  1  0.35936141  0.47240586  0.94941001  1.0
  O  O157  1  0.18762520  0.35894465  0.94800952  1.0
  O  O158  1  0.84781859  0.62005109  0.54816011  1.0
  O  O159  1  0.64503139  0.54542376  0.54793864  1.0
  O  O160  1  0.52816445  0.82636728  0.54498723  1.0
  O  O161  1  0.47011028  0.37033983  0.04761478  1.0
  O  O162  1  0.18873422  0.45860843  0.04744940  1.0
  O  O163  1  0.35429496  0.17519001  0.04564391  1.0
  O  O164  1  0.67245392  0.81371837  0.55209274  1.0
  O  O165  1  0.82272598  0.49602710  0.54743176  1.0
  O  O166  1  0.50728764  0.68097253  0.54488837  1.0
  O  O167  1  0.47988208  0.19707876  0.05744310  1.0
  O  O168  1  0.32494264  0.49860702  0.04791934  1.0
  O  O169  1  0.18898999  0.32067123  0.04434839  1.0
  O  O170  1  0.67661068  0.67529176  0.49776408  1.0
  O  O171  1  0.35005702  0.32821582  0.99829007  1.0
  O  O172  1  0.80811079  0.79743603  0.49397280  1.0
  O  O173  1  0.60486638  0.19988789  0.00188777  1.0
