# generated using pymatgen
data_Zn8H66C90N2O31
_symmetry_space_group_name_H-M   'P 1'
_cell_length_a   18.33504753
_cell_length_b   18.37068104
_cell_length_c   18.38616687
_cell_angle_alpha   60.25827141
_cell_angle_beta   60.69489575
_cell_angle_gamma   60.48265457
_symmetry_Int_Tables_number   1
_chemical_formula_structural   Zn8H66C90N2O31
_chemical_formula_sum   'Zn8 H66 C90 N2 O31'
_cell_volume   4426.33239089
_cell_formula_units_Z   1
loop_
 _symmetry_equiv_pos_site_id
 _symmetry_equiv_pos_as_xyz
  1  'x, y, z'
loop_
 _atom_site_type_symbol
 _atom_site_label
 _atom_site_symmetry_multiplicity
 _atom_site_fract_x
 _atom_site_fract_y
 _atom_site_fract_z
 _atom_site_occupancy
  Zn  Zn0  1  0.54107384  0.04121796  0.87120330  1.0
  Zn  Zn1  1  0.54273805  0.86515303  0.04436258  1.0
  Zn  Zn2  1  0.37124798  0.04091333  0.04760028  1.0
  Zn  Zn3  1  0.54904068  0.03704000  0.04208061  1.0
  Zn  Zn4  1  0.95416254  0.46042480  0.63127441  1.0
  Zn  Zn5  1  0.12560469  0.46101758  0.45808780  1.0
  Zn  Zn6  1  0.95629282  0.63596382  0.45946475  1.0
  Zn  Zn7  1  0.95673925  0.46250828  0.45244146  1.0
  H  H8  1  0.26553880  0.29573280  0.29429620  1.0
  H  H9  1  0.67182381  0.94182658  0.47673304  1.0
  H  H10  1  0.80310358  0.99207062  0.39760012  1.0
  H  H11  1  0.91928796  0.95094435  0.26481090  1.0
  H  H12  1  0.90478279  0.85814834  0.21314161  1.0
  H  H13  1  0.07774799  0.11758195  0.26905908  1.0
  H  H14  1  0.17559722  0.96208369  0.29660985  1.0
  H  H15  1  0.12371124  0.94392801  0.10295788  1.0
  H  H16  1  0.02587983  0.10216883  0.07310589  1.0
  H  H17  1  0.68977177  0.21076592  0.68844015  1.0
  H  H18  1  0.08711737  0.81400587  0.29886046  1.0
  H  H19  1  0.20202606  0.21764632  0.18115071  1.0
  H  H20  1  0.41298121  0.68704909  0.21628832  1.0
  H  H21  1  0.33086437  0.55007900  0.44069375  1.0
  H  H22  1  0.45213222  0.30102494  0.39457160  1.0
  H  H23  1  0.42821898  0.38091534  0.24759690  1.0
  H  H24  1  0.35573256  0.54524630  0.19777073  1.0
  H  H25  1  0.49126540  0.16507195  0.55617551  1.0
  H  H26  1  0.41995906  0.05359195  0.68217930  1.0
  H  H27  1  0.51179793  0.90525954  0.75606091  1.0
  H  H28  1  0.74538286  0.17611703  0.83952833  1.0
  H  H29  1  0.74723009  0.97574336  0.57674093  1.0
  H  H30  1  0.56302232  0.57085300  0.23881833  1.0
  H  H31  1  0.65547823  0.12500834  0.50328242  1.0
  H  H32  1  0.75864148  0.80999429  0.59302975  1.0
  H  H33  1  0.72543465  0.69273127  0.91077803  1.0
  H  H34  1  0.74251904  0.51850738  0.90544481  1.0
  H  H35  1  0.83037119  0.37270794  0.98760595  1.0
  H  H36  1  0.98573294  0.34558977  0.96507881  1.0
  H  H37  1  0.05323975  0.46483242  0.85875623  1.0
  H  H38  1  0.96578563  0.61002261  0.77484153  1.0
  H  H39  1  0.09149968  0.32348583  0.81214759  1.0
  H  H40  1  0.26587660  0.32378363  0.65387480  1.0
  H  H41  1  0.83841497  0.64979447  0.07510828  1.0
  H  H42  1  0.32774110  0.19044039  0.74715963  1.0
  H  H43  1  0.10080675  0.31039597  0.27500479  1.0
  H  H44  1  0.48082596  0.09325019  0.22084368  1.0
  H  H45  1  0.39516018  0.08326936  0.32636171  1.0
  H  H46  1  0.41539956  0.20294556  0.33807921  1.0
  H  H47  1  0.51615565  0.11217449  0.32518396  1.0
  H  H48  1  0.50117559  0.21158212  0.23327747  1.0
  H  H49  1  0.53367248  0.57293918  0.13113159  1.0
  H  H50  1  0.58127219  0.46242978  0.19602125  1.0
  H  H51  1  0.64275423  0.41246918  0.06511075  1.0
  H  H52  1  0.81033013  0.56717948  0.02257471  1.0
  H  H53  1  0.52520391  0.46035700  0.09823685  1.0
  H  H54  1  0.59152610  0.52291005  0.00280164  1.0
  H  H55  1  0.64163383  0.54559747  0.39571499  1.0
  H  H56  1  0.55731798  0.53477281  0.38317514  1.0
  H  H57  1  0.44194516  0.65147265  0.45328354  1.0
  H  H58  1  0.50216672  0.56138425  0.52574142  1.0
  H  H59  1  0.52599431  0.66284700  0.46555870  1.0
  H  H60  1  0.03524453  0.26222174  0.18424666  1.0
  H  H61  1  0.94303293  0.22627049  0.26815716  1.0
  H  H62  1  0.84742185  0.34692793  0.17068742  1.0
  H  H63  1  0.81368142  0.58846823  0.29027256  1.0
  H  H64  1  0.89149796  0.39037660  0.20178703  1.0
  H  H65  1  0.93950575  0.38432688  0.09337064  1.0
  H  H66  1  0.40680466  0.47128977  0.53266617  1.0
  H  H67  1  0.51313752  0.40121825  0.48570173  1.0
  H  H68  1  0.48635722  0.27152780  0.62853129  1.0
  H  H69  1  0.48492363  0.35957722  0.64553990  1.0
  H  H70  1  0.38364342  0.34571662  0.67470595  1.0
  H  H71  1  0.68605306  0.91437372  0.21112406  1.0
  H  H72  1  0.77492098  0.30280439  0.75961010  1.0
  H  H73  1  0.65747656  0.84939454  0.42416815  1.0
  C  C74  1  0.64004731  0.85926731  0.13752268  1.0
  C  C75  1  0.31913201  0.18785639  0.19769000  1.0
  C  C76  1  0.62387317  0.58736139  0.20178485  1.0
  C  C77  1  0.36115465  0.14131887  0.86575757  1.0
  C  C78  1  0.64140231  0.63220339  0.23151921  1.0
  C  C79  1  0.71757775  0.65690701  0.18589746  1.0
  C  C80  1  0.77828363  0.63188865  0.11098209  1.0
  C  C81  1  0.76282870  0.58657532  0.08068905  1.0
  C  C82  1  0.68416850  0.56565036  0.12529284  1.0
  C  C83  1  0.78576355  0.66056727  0.27152442  1.0
  C  C84  1  0.80381544  0.70230473  0.30441514  1.0
  C  C85  1  0.71060255  0.17589081  0.80564750  1.0
  C  C86  1  0.76820390  0.79556960  0.28262829  1.0
  C  C87  1  0.71500221  0.84244389  0.22866646  1.0
  C  C88  1  0.69714844  0.80082032  0.19554812  1.0
  C  C89  1  0.62719175  0.86043028  0.86345288  1.0
  C  C90  1  0.73320808  0.70748797  0.21695435  1.0
  C  C91  1  0.71492217  0.87166298  0.38942675  1.0
  C  C92  1  0.72309642  0.92337065  0.41902674  1.0
  C  C93  1  0.79668772  0.95169771  0.37454764  1.0
  C  C94  1  0.86186472  0.92852880  0.30012213  1.0
  C  C95  1  0.85359123  0.87688165  0.27070735  1.0
  C  C96  1  0.16324112  0.30584392  0.78016394  1.0
  C  C97  1  0.78030704  0.84744714  0.31541470  1.0
  C  C98  1  0.08774643  0.08080650  0.23149367  1.0
  C  C99  1  0.14314723  0.99232182  0.24720636  1.0
  C  C100  1  0.15678623  0.94156487  0.20206096  1.0
  C  C101  1  0.37071179  0.13216614  0.13911291  1.0
  C  C102  1  0.11358308  0.98214378  0.13932798  1.0
  C  C103  1  0.05906856  0.07046009  0.12213208  1.0
  C  C104  1  0.04482343  0.12050635  0.16875351  1.0
  C  C105  1  0.15918074  0.78677743  0.27912318  1.0
  C  C106  1  0.19846647  0.69441650  0.30901986  1.0
  C  C107  1  0.19564622  0.33319661  0.69118259  1.0
  C  C108  1  0.29172613  0.65596836  0.28711911  1.0
  C  C109  1  0.34097419  0.71378302  0.23467435  1.0
  C  C110  1  0.30152751  0.80642959  0.20304168  1.0
  C  C111  1  0.20825720  0.84482468  0.22624732  1.0
  C  C112  1  0.35423069  0.51303794  0.39764046  1.0
  C  C113  1  0.36177952  0.86078464  0.14214394  1.0
  C  C114  1  0.39511097  0.42053003  0.42539353  1.0
  C  C115  1  0.42135517  0.37299651  0.37141956  1.0
  C  C116  1  0.40775567  0.41821769  0.28945971  1.0
  C  C117  1  0.36779659  0.51022831  0.26112863  1.0
  C  C118  1  0.21879539  0.25394465  0.83724049  1.0
  C  C119  1  0.33917726  0.55799016  0.31591931  1.0
  C  C120  1  0.49167483  0.03721359  0.65914875  1.0
  C  C121  1  0.54317092  0.95373625  0.70075464  1.0
  C  C122  1  0.63566094  0.93074434  0.67171535  1.0
  C  C123  1  0.67539272  0.99306022  0.59970603  1.0
  C  C124  1  0.62368271  0.07696041  0.55869212  1.0
  C  C125  1  0.64704176  0.12631265  0.86217715  1.0
  C  C126  1  0.53161880  0.09939688  0.58820769  1.0
  C  C127  1  0.75148361  0.78553726  0.66286345  1.0
  C  C128  1  0.80227842  0.69798575  0.69905424  1.0
  C  C129  1  0.30162143  0.19694474  0.81188357  1.0
  C  C130  1  0.79393760  0.66282218  0.78960098  1.0
  C  C131  1  0.73261064  0.71759254  0.84088631  1.0
  C  C132  1  0.68225813  0.80511334  0.80461225  1.0
  C  C133  1  0.69072829  0.84055677  0.71393631  1.0
  C  C134  1  0.81116567  0.50602146  0.89408462  1.0
  C  C135  1  0.86065207  0.42418121  0.94004351  1.0
  C  C136  1  0.94797388  0.40876290  0.92722723  1.0
  C  C137  1  0.78263196  0.27134640  0.65931330  1.0
  C  C138  1  0.98566601  0.47583081  0.86766490  1.0
  C  C139  1  0.93656651  0.55743659  0.82079292  1.0
  C  C140  1  0.17158816  0.28776919  0.26450426  1.0
  C  C141  1  0.84872846  0.57323905  0.83366083  1.0
  C  C142  1  0.13407666  0.36818255  0.36088257  1.0
  C  C143  1  0.86014219  0.64287462  0.63989070  1.0
  C  C144  1  0.13665662  0.38026868  0.63696810  1.0
  C  C145  1  0.86001057  0.64402904  0.36335479  1.0
  C  C146  1  0.13760669  0.64053816  0.36351560  1.0
  C  C147  1  0.86378224  0.36338229  0.63500114  1.0
  C  C148  1  0.80389093  0.31002773  0.68962860  1.0
  C  C149  1  0.72388094  0.21776113  0.71824051  1.0
  C  C150  1  0.81338024  0.28069055  0.56783396  1.0
  C  C151  1  0.19639330  0.31480191  0.30298592  1.0
  C  C152  1  0.42941534  0.12858077  0.26752439  1.0
  C  C153  1  0.46744231  0.16646117  0.29248449  1.0
  C  C154  1  0.58847839  0.50990281  0.12775669  1.0
  C  C155  1  0.58721899  0.47428417  0.06984805  1.0
  C  C156  1  0.57559557  0.58129533  0.38725854  1.0
  C  C157  1  0.50727426  0.61646920  0.46233872  1.0
  C  C158  1  0.97164691  0.25869247  0.19648296  1.0
  C  C159  1  0.90892314  0.35033169  0.16333991  1.0
  C  C160  1  0.44617205  0.40230047  0.53375844  1.0
  C  C161  1  0.45036929  0.34097831  0.62591208  1.0
  C  C162  1  0.23017580  0.23031286  0.21229068  1.0
  C  C163  1  0.18009905  0.26752362  0.92061906  1.0
  N  N164  1  0.83185658  0.28213327  0.49671971  1.0
  N  N165  1  0.14315403  0.28681224  0.98460628  1.0
  O  O166  1  0.50092986  0.99619632  0.00049486  1.0
  O  O167  1  0.89349831  0.68071376  0.37703172  1.0
  O  O168  1  0.17100456  0.55906942  0.37017300  1.0
  O  O169  1  0.60296423  0.94111550  0.13224506  1.0
  O  O170  1  0.89368628  0.37941191  0.55185440  1.0
  O  O171  1  0.05629864  0.68118068  0.39823295  1.0
  O  O172  1  0.87930309  0.38811160  0.67846822  1.0
  O  O173  1  0.05437575  0.38973509  0.67720375  1.0
  O  O174  1  0.87009240  0.56130369  0.39504346  1.0
  O  O175  1  0.16978708  0.37632931  0.40043000  1.0
  O  O176  1  0.88209349  0.68461969  0.55663762  1.0
  O  O177  1  0.62059314  0.94230100  0.82657000  1.0
  O  O178  1  0.44245667  0.10914298  0.82308902  1.0
  O  O179  1  0.59434093  0.82072709  0.94581270  1.0
  O  O180  1  0.32837820  0.09810119  0.13342554  1.0
  O  O181  1  0.44409977  0.82068648  0.13400247  1.0
  O  O182  1  0.63686725  0.09404584  0.94488441  1.0
  O  O183  1  0.32698856  0.94240328  0.10151793  1.0
  O  O184  1  0.60808687  0.12060944  0.82459834  1.0
  O  O185  1  0.36380704  0.20313590  0.22671370  1.0
  O  O186  1  0.67172274  0.52464321  0.08924032  1.0
  O  O187  1  0.58092439  0.65597665  0.30584481  1.0
  O  O188  1  0.45248482  0.12503003  0.09889444  1.0
  O  O189  1  0.98805492  0.20571690  0.14941221  1.0
  O  O190  1  0.40722904  0.37136312  0.50730905  1.0
  O  O191  1  0.63287118  0.82507816  0.09671174  1.0
  O  O192  1  0.32680000  0.13012893  0.94816047  1.0
  O  O193  1  0.99558177  0.50541431  0.50190389  1.0
  O  O194  1  0.05150046  0.40150522  0.36905180  1.0
  O  O195  1  0.88061656  0.55894007  0.67751603  1.0
  O  O196  1  0.17537628  0.40656546  0.55342491  1.0
