# generated using pymatgen
data_Zn4H24C44(N2O5)3
_symmetry_space_group_name_H-M   'P 1'
_cell_length_a   19.18959071
_cell_length_b   19.22697240
_cell_length_c   19.24374427
_cell_angle_alpha   94.90058967
_cell_angle_beta   94.79310054
_cell_angle_gamma   90.13481077
_symmetry_Int_Tables_number   1
_chemical_formula_structural   Zn4H24C44(N2O5)3
_chemical_formula_sum   'Zn4 H24 C44 N6 O15'
_cell_volume   7049.11212949
_cell_formula_units_Z   1
loop_
 _symmetry_equiv_pos_site_id
 _symmetry_equiv_pos_as_xyz
  1  'x, y, z'
loop_
 _atom_site_type_symbol
 _atom_site_label
 _atom_site_symmetry_multiplicity
 _atom_site_fract_x
 _atom_site_fract_y
 _atom_site_fract_z
 _atom_site_occupancy
  Zn  Zn0  1  0.44043235  0.55773503  0.43934293  1.0
  Zn  Zn1  1  0.55436660  0.43767311  0.43959891  1.0
  Zn  Zn2  1  0.44172796  0.44648943  0.55427678  1.0
  Zn  Zn3  1  0.56377107  0.55955100  0.56536951  1.0
  H  H4  1  0.90139691  0.44730754  0.41238732  1.0
  H  H5  1  0.56000317  0.61994363  0.91338176  1.0
  H  H6  1  0.49322186  0.09992796  0.59732996  1.0
  H  H7  1  0.56310308  0.61180951  0.78196440  1.0
  H  H8  1  0.52994777  0.38403724  0.22498094  1.0
  H  H9  1  0.44692723  0.42512199  0.89680029  1.0
  H  H10  1  0.52933134  0.37696580  0.09347742  1.0
  H  H11  1  0.44725895  0.41860625  0.76576178  1.0
  H  H12  1  0.52135471  0.90956710  0.63353437  1.0
  H  H13  1  0.49882472  0.22364668  0.38107848  1.0
  H  H14  1  0.49309123  0.89802638  0.40917487  1.0
  H  H15  1  0.09136889  0.55326129  0.38358203  1.0
  H  H16  1  0.49118982  0.76734674  0.40511586  1.0
  H  H17  1  0.76989612  0.44163439  0.40744695  1.0
  H  H18  1  0.51190828  0.29318733  0.63003959  1.0
  H  H19  1  0.53142461  0.81121716  0.69629676  1.0
  H  H20  1  0.49487385  0.09235155  0.37317293  1.0
  H  H21  1  0.22318917  0.55666919  0.39134273  1.0
  H  H22  1  0.77638547  0.53850644  0.61755840  1.0
  H  H23  1  0.09819163  0.44968741  0.57314929  1.0
  H  H24  1  0.90825223  0.53892443  0.62451171  1.0
  H  H25  1  0.22966491  0.44938250  0.57867645  1.0
  H  H26  1  0.45030289  0.59274239  0.22491022  1.0
  H  H27  1  0.45508602  0.58768978  0.09410115  1.0
  C  C28  1  0.68790314  0.49104882  0.50816980  1.0
  C  C29  1  0.49522007  0.12329622  0.42337563  1.0
  C  C30  1  0.23376891  0.50327911  0.48546728  1.0
  C  C31  1  0.31171664  0.50279570  0.48911705  1.0
  C  C32  1  0.19878263  0.47283805  0.53683127  1.0
  C  C33  1  0.12635865  0.47277694  0.53384470  1.0
  C  C34  1  0.08794865  0.50224132  0.47836406  1.0
  C  C35  1  0.12261133  0.53140252  0.42623268  1.0
  C  C36  1  0.19526124  0.53308640  0.43050298  1.0
  C  C37  1  0.87323481  0.46679121  0.45681296  1.0
  C  C38  1  0.80077063  0.46392479  0.45418671  1.0
  C  C39  1  0.50753943  0.91136282  0.52183518  1.0
  C  C40  1  0.91157197  0.49477025  0.51841524  1.0
  C  C41  1  0.76584781  0.49069197  0.51193276  1.0
  C  C42  1  0.80438632  0.51819093  0.57336296  1.0
  C  C43  1  0.49180554  0.49303333  0.31020315  1.0
  C  C44  1  0.87696178  0.51873687  0.57718544  1.0
  C  C45  1  0.50613324  0.51441081  0.76678224  1.0
  C  C46  1  0.47263239  0.46188154  0.79870442  1.0
  C  C47  1  0.47220523  0.46537479  0.87092284  1.0
  C  C48  1  0.50448083  0.52243529  0.91202149  1.0
  C  C49  1  0.53632685  0.57591133  0.88017567  1.0
  C  C50  1  0.51527094  0.87764801  0.58364564  1.0
  C  C51  1  0.53817702  0.57133771  0.80785074  1.0
  C  C52  1  0.47104830  0.54361736  0.12353432  1.0
  C  C53  1  0.46869601  0.54630264  0.19563370  1.0
  C  C54  1  0.49403992  0.48247905  0.08716235  1.0
  C  C55  1  0.50648093  0.50978666  0.68908058  1.0
  C  C56  1  0.49090155  0.48907144  0.23238836  1.0
  C  C57  1  0.51318925  0.42797864  0.19572968  1.0
  C  C58  1  0.51324121  0.42410003  0.12332423  1.0
  C  C59  1  0.49549755  0.31242503  0.49386528  1.0
  C  C60  1  0.50563529  0.68645904  0.51021255  1.0
  C  C61  1  0.51267228  0.80486097  0.58212673  1.0
  C  C62  1  0.50488289  0.76485842  0.51690048  1.0
  C  C63  1  0.49786057  0.79891227  0.45510768  1.0
  C  C64  1  0.49898649  0.87133502  0.45700190  1.0
  C  C65  1  0.49548260  0.23740223  0.62564298  1.0
  C  C66  1  0.51161138  0.77466762  0.65046936  1.0
  C  C67  1  0.49379566  0.12670454  0.54972065  1.0
  C  C68  1  0.49363083  0.19952053  0.55443094  1.0
  C  C69  1  0.49498891  0.08835442  0.48451850  1.0
  C  C70  1  0.49600994  0.23444045  0.49284266  1.0
  C  C71  1  0.49711751  0.19581407  0.42787614  1.0
  N  N72  1  0.50836434  0.98504640  0.53075108  1.0
  N  N73  1  0.49530643  0.01462373  0.47485971  1.0
  N  N74  1  0.01409154  0.50266883  0.47016318  1.0
  N  N75  1  0.98525414  0.49899000  0.52657918  1.0
  N  N76  1  0.50543102  0.53077401  0.98581564  1.0
  N  N77  1  0.49748537  0.47439154  0.01393736  1.0
  O  O78  1  0.50013527  0.50061395  0.49935641  1.0
  O  O79  1  0.53651739  0.33893334  0.45434213  1.0
  O  O80  1  0.55768264  0.65698435  0.54033896  1.0
  O  O81  1  0.45357825  0.34483233  0.53298539  1.0
  O  O82  1  0.45502447  0.65735312  0.47122451  1.0
  O  O83  1  0.48140577  0.20914130  0.67744317  1.0
  O  O84  1  0.48902031  0.71679552  0.65895428  1.0
  O  O85  1  0.46126344  0.54479540  0.34060777  1.0
  O  O86  1  0.54482600  0.55354367  0.66309159  1.0
  O  O87  1  0.65516184  0.45594783  0.45587344  1.0
  O  O88  1  0.34284851  0.46860928  0.53651770  1.0
  O  O89  1  0.66010730  0.52682753  0.55739896  1.0
  O  O90  1  0.34100106  0.53620990  0.44464055  1.0
  O  O91  1  0.52373839  0.44418377  0.34048140  1.0
  O  O92  1  0.46829040  0.46180389  0.65471018  1.0
