# generated using pymatgen
data_Al2H12C27(SO2)6
_symmetry_space_group_name_H-M   'P 1'
_cell_length_a   3.96345486
_cell_length_b   20.12037042
_cell_length_c   20.12041945
_cell_angle_alpha   60.00008693
_cell_angle_beta   89.99996498
_cell_angle_gamma   89.99939575
_symmetry_Int_Tables_number   1
_chemical_formula_structural   Al2H12C27(SO2)6
_chemical_formula_sum   'Al2 H12 C27 S6 O12'
_cell_volume   1389.56200451
_cell_formula_units_Z   1
loop_
 _symmetry_equiv_pos_site_id
 _symmetry_equiv_pos_as_xyz
  1  'x, y, z'
loop_
 _atom_site_type_symbol
 _atom_site_label
 _atom_site_symmetry_multiplicity
 _atom_site_fract_x
 _atom_site_fract_y
 _atom_site_fract_z
 _atom_site_occupancy
  Al  Al0  1  0.00206972  0.99999743  0.50000127  1.0
  Al  Al1  1  0.00374058  0.66666516  0.16666676  1.0
  H  H2  1  0.46319895  0.43779394  0.38624350  1.0
  H  H3  1  0.46321135  0.88624314  0.17596223  1.0
  H  H4  1  0.46319547  0.67596137  0.93779542  1.0
  H  H5  1  0.71600034  0.18824723  0.26850021  1.0
  H  H6  1  0.48747539  0.27204260  0.20385660  1.0
  H  H7  1  0.27148919  0.18701569  0.27107769  1.0
  H  H8  1  0.71599332  0.76849711  0.54325211  1.0
  H  H9  1  0.48747726  0.70385257  0.52410024  1.0
  H  H10  1  0.27148208  0.77107394  0.54190657  1.0
  H  H11  1  0.71599844  0.04325018  0.68824976  1.0
  H  H12  1  0.48748100  0.02409858  0.77204567  1.0
  H  H13  1  0.27148730  0.04190443  0.68701912  1.0
  C  C14  1  0.50244011  0.94066067  0.61793411  1.0
  C  C15  1  0.50243824  0.11793175  0.44140649  1.0
  C  C16  1  0.50244291  0.94140070  0.44066470  1.0
  C  C17  1  0.50332794  0.54884310  0.22587035  1.0
  C  C18  1  0.50331822  0.72586943  0.22528450  1.0
  C  C19  1  0.50332609  0.72528491  0.04884536  1.0
  C  C20  1  0.49793635  0.25007231  0.31999558  1.0
  C  C21  1  0.48135294  0.41638292  0.34631882  1.0
  C  C22  1  0.50162365  0.20266402  0.39907028  1.0
  C  C23  1  0.50043365  0.46408674  0.26781801  1.0
  C  C24  1  0.50263690  0.33846388  0.36590042  1.0
  C  C25  1  0.51281780  0.32789890  0.30187420  1.0
  C  C26  1  0.49793239  0.81999293  0.42993205  1.0
  C  C27  1  0.48135809  0.84631840  0.23729794  1.0
  C  C28  1  0.50163672  0.89906659  0.39826643  1.0
  C  C29  1  0.50042933  0.76781630  0.26809380  1.0
  C  C30  1  0.50263941  0.86589866  0.29563564  1.0
  C  C31  1  0.51281140  0.80187203  0.37022552  1.0
  C  C32  1  0.49794158  0.92992961  0.75007432  1.0
  C  C33  1  0.48134976  0.73729532  0.91638479  1.0
  C  C34  1  0.50163624  0.89826307  0.70266682  1.0
  C  C35  1  0.50042566  0.76809353  0.96408928  1.0
  C  C36  1  0.50263533  0.79563344  0.83846533  1.0
  C  C37  1  0.51281894  0.87022328  0.82790205  1.0
  C  C38  1  0.49282797  0.22317256  0.26268398  1.0
  C  C39  1  0.49282711  0.76268036  0.51414327  1.0
  C  C40  1  0.49283022  0.01414024  0.72317605  1.0
  S  S41  1  0.51453777  0.25153422  0.44991300  1.0
  S  S42  1  0.53619676  0.41478318  0.21768153  1.0
  S  S43  1  0.51456365  0.94991131  0.29855393  1.0
  S  S44  1  0.53617204  0.71767913  0.36753403  1.0
  S  S45  1  0.51454925  0.79855039  0.75153548  1.0
  S  S46  1  0.53617980  0.86753354  0.91478539  1.0
  O  O47  1  0.73611655  0.99077895  0.42527066  1.0
  O  O48  1  0.73611802  0.92526667  0.58395103  1.0
  O  O49  1  0.73610893  0.08394768  0.49078249  1.0
  O  O50  1  0.26863964  0.92574004  0.49004784  1.0
  O  O51  1  0.26863051  0.08420933  0.42574449  1.0
  O  O52  1  0.26863274  0.99004355  0.58421311  1.0
  O  O53  1  0.73843616  0.74090037  0.08230566  1.0
  O  O54  1  0.73844272  0.58230372  0.17679333  1.0
  O  O55  1  0.73843507  0.67679240  0.24090116  1.0
  O  O56  1  0.27066669  0.67575689  0.08274978  1.0
  O  O57  1  0.27065975  0.74149113  0.17575835  1.0
  O  O58  1  0.27066889  0.58274752  0.24149356  1.0
