# generated using pymatgen
data_ZnH12C35N2(ClO5)4
_symmetry_space_group_name_H-M   'P 1'
_cell_length_a   16.75232327
_cell_length_b   16.83753279
_cell_length_c   23.20152889
_cell_angle_alpha   86.04285374
_cell_angle_beta   85.93132346
_cell_angle_gamma   80.30780085
_symmetry_Int_Tables_number   1
_chemical_formula_structural   ZnH12C35N2(ClO5)4
_chemical_formula_sum   'Zn2 H24 C70 N4 Cl8 O40'
_cell_volume   6423.88706621
_cell_formula_units_Z   2
loop_
 _symmetry_equiv_pos_site_id
 _symmetry_equiv_pos_as_xyz
  1  'x, y, z'
loop_
 _atom_site_type_symbol
 _atom_site_label
 _atom_site_symmetry_multiplicity
 _atom_site_fract_x
 _atom_site_fract_y
 _atom_site_fract_z
 _atom_site_occupancy
  Zn  Zn0  1  0.59698458  0.49523905  0.49274768  1.0
  Zn  Zn1  1  0.41235669  0.50363781  0.49894004  1.0
  H  H2  1  0.42187634  0.29704742  0.06955850  1.0
  H  H3  1  0.39802559  0.69547588  0.93244573  1.0
  H  H4  1  0.40643295  0.29348952  0.96213200  1.0
  H  H5  1  0.37959988  0.70226698  0.04133187  1.0
  H  H6  1  0.37820915  0.55898841  0.65826973  1.0
  H  H7  1  0.39100964  0.45252097  0.34885872  1.0
  H  H8  1  0.46399634  0.90095422  0.43051360  1.0
  H  H9  1  0.42963879  0.12028483  0.43658328  1.0
  H  H10  1  0.99919950  0.59387761  0.48381494  1.0
  H  H11  1  0.01042133  0.41311964  0.52194019  1.0
  H  H12  1  0.32341719  0.67670229  0.42248011  1.0
  H  H13  1  0.67257899  0.36266173  0.61355066  1.0
  H  H14  1  0.62253248  0.65412508  0.37468050  1.0
  H  H15  1  0.32683081  0.35371465  0.65794684  1.0
  H  H16  1  0.15871045  0.25077345  0.61038169  1.0
  H  H17  1  0.94960494  0.64744999  0.35154450  1.0
  H  H18  1  0.93417483  0.38355930  0.64997625  1.0
  H  H19  1  0.05421222  0.52196265  0.34785923  1.0
  H  H20  1  0.25470988  0.68342636  0.74413388  1.0
  H  H21  1  0.26640459  0.35786626  0.28394073  1.0
  H  H22  1  0.44861853  0.71559286  0.70924590  1.0
  H  H23  1  0.76124194  0.27171576  0.52362443  1.0
  H  H24  1  0.44029670  0.13827831  0.59207494  1.0
  H  H25  1  0.68615767  0.85665280  0.43669922  1.0
  C  C26  1  0.53377526  0.35503764  0.46456642  1.0
  C  C27  1  0.48193418  0.64525147  0.52227568  1.0
  C  C28  1  0.49258493  0.46174950  0.60573534  1.0
  C  C29  1  0.49809751  0.53130115  0.38540586  1.0
  C  C30  1  0.39030233  0.57793751  0.11990570  1.0
  C  C31  1  0.40245293  0.41739772  0.88305582  1.0
  C  C32  1  0.42766845  0.42679833  0.12869788  1.0
  C  C33  1  0.42101685  0.56314110  0.87214387  1.0
  C  C34  1  0.41232427  0.42546509  0.06664271  1.0
  C  C35  1  0.40489549  0.56733669  0.93537937  1.0
  C  C36  1  0.40254743  0.49838633  0.03172186  1.0
  C  C37  1  0.40351321  0.49539132  0.97059775  1.0
  C  C38  1  0.39307648  0.57419205  0.05628930  1.0
  C  C39  1  0.40416935  0.42044515  0.94639871  1.0
  C  C40  1  0.41407220  0.35237598  0.04180920  1.0
  C  C41  1  0.39666232  0.64105521  0.96054445  1.0
  C  C42  1  0.40708141  0.35022252  0.98192032  1.0
  C  C43  1  0.38789053  0.64474763  0.02102829  1.0
  C  C44  1  0.39253098  0.52760767  0.74890141  1.0
  C  C45  1  0.39799474  0.47415648  0.25649528  1.0
  C  C46  1  0.41353025  0.52052818  0.69013355  1.0
  C  C47  1  0.42168122  0.48084432  0.31217778  1.0
  C  C48  1  0.47805582  0.46302439  0.67046342  1.0
  C  C49  1  0.48196773  0.52534718  0.32269413  1.0
  C  C50  1  0.52308401  0.41246094  0.71089636  1.0
  C  C51  1  0.52130709  0.56191760  0.27538449  1.0
  C  C52  1  0.50685430  0.42289912  0.77057615  1.0
  C  C53  1  0.50206881  0.55141557  0.21855791  1.0
  C  C54  1  0.43978113  0.47878617  0.78958736  1.0
  C  C55  1  0.43859490  0.50989488  0.20911765  1.0
  C  C56  1  0.54235642  0.26762775  0.45195898  1.0
  C  C57  1  0.47678103  0.73555845  0.52496313  1.0
  C  C58  1  0.47626614  0.23099996  0.43904076  1.0
  C  C59  1  0.46683130  0.78345735  0.47348345  1.0
  C  C60  1  0.48262107  0.14727406  0.44349475  1.0
  C  C61  1  0.47153237  0.86507028  0.47124195  1.0
  C  C62  1  0.55462599  0.09769682  0.45814137  1.0
  C  C63  1  0.48837177  0.90097956  0.52058149  1.0
  C  C64  1  0.62387869  0.13334503  0.46186321  1.0
  C  C65  1  0.49336864  0.85469925  0.57344836  1.0
  C  C66  1  0.61769336  0.21722262  0.45979410  1.0
  C  C67  1  0.48580922  0.77246680  0.57630317  1.0
  C  C68  1  0.55452288  0.01094825  0.47263459  1.0
  C  C69  1  0.50169144  0.98576464  0.51440884  1.0
  C  C70  1  0.23657874  0.52506469  0.46259964  1.0
  C  C71  1  0.77035571  0.48936422  0.54375390  1.0
  C  C72  1  0.15607164  0.51531547  0.45925214  1.0
  C  C73  1  0.85124259  0.49839441  0.54693515  1.0
  C  C74  1  0.12011011  0.46762643  0.50251437  1.0
  C  C75  1  0.89062575  0.53694473  0.50011332  1.0
  C  C76  1  0.17328804  0.41923821  0.54032837  1.0
  C  C77  1  0.84172320  0.57372930  0.45587177  1.0
  C  C78  1  0.25572864  0.42705394  0.53740425  1.0
  C  C79  1  0.76095123  0.56131158  0.45586413  1.0
  C  C80  1  0.03227224  0.46917556  0.50758163  1.0
  C  C81  1  0.97839803  0.53690492  0.49698283  1.0
  C  C82  1  0.26858845  0.58605292  0.41998620  1.0
  C  C83  1  0.73043582  0.44976707  0.59561788  1.0
  C  C84  1  0.71846214  0.59159927  0.40145830  1.0
  C  C85  1  0.31119765  0.37163363  0.57756042  1.0
  C  C86  1  0.13961585  0.36105103  0.58361435  1.0
  C  C87  1  0.86965553  0.63273384  0.41063698  1.0
  C  C88  1  0.89477948  0.47453044  0.60167296  1.0
  C  C89  1  0.10957030  0.55433456  0.40870974  1.0
  C  C90  1  0.31811798  0.58406463  0.76735700  1.0
  C  C91  1  0.32697244  0.43422310  0.24839272  1.0
  C  C92  1  0.48860414  0.71942457  0.63106521  1.0
  C  C93  1  0.69414511  0.25142887  0.46599235  1.0
  C  C94  1  0.44547425  0.04403311  0.55116898  1.0
  C  C95  1  0.60949032  0.95327118  0.43472266  1.0
  N  N96  1  0.41903052  0.50419454  0.15079952  1.0
  N  N97  1  0.42252378  0.48655120  0.85016489  1.0
  N  N98  1  0.28622822  0.48286249  0.50141457  1.0
  N  N99  1  0.72558136  0.51707980  0.49782694  1.0
  Cl  Cl100  1  0.71574951  0.07234858  0.47341066  1.0
  Cl  Cl101  1  0.51756583  0.89984812  0.63288628  1.0
  Cl  Cl102  1  0.59473838  0.33192967  0.68944865  1.0
  Cl  Cl103  1  0.59210106  0.62253945  0.28418208  1.0
  Cl  Cl104  1  0.56948209  0.36796119  0.81944213  1.0
  Cl  Cl105  1  0.55704850  0.58924243  0.16088817  1.0
  Cl  Cl106  1  0.38486279  0.28320425  0.41697376  1.0
  Cl  Cl107  1  0.45055170  0.74192222  0.40958986  1.0
  O  O108  1  0.59781982  0.37935923  0.47842461  1.0
  O  O109  1  0.41732895  0.61569564  0.53098586  1.0
  O  O110  1  0.46385364  0.39698361  0.46345901  1.0
  O  O111  1  0.55246530  0.61008386  0.50711715  1.0
  O  O112  1  0.56183570  0.46793103  0.58293879  1.0
  O  O113  1  0.43368213  0.55005164  0.41779267  1.0
  O  O114  1  0.42871443  0.45870306  0.57978113  1.0
  O  O115  1  0.56982886  0.51559865  0.40137069  1.0
  O  O116  1  0.36843374  0.64033082  0.14496012  1.0
  O  O117  1  0.38801590  0.35927876  0.85901001  1.0
  O  O118  1  0.44926714  0.36540877  0.15904057  1.0
  O  O119  1  0.43425182  0.62128398  0.83997281  1.0
  O  O120  1  0.26927664  0.58088631  0.36794443  1.0
  O  O121  1  0.29066202  0.64440919  0.44855200  1.0
  O  O122  1  0.72104005  0.47945278  0.64240217  1.0
  O  O123  1  0.71081403  0.37968662  0.58242886  1.0
  O  O124  1  0.74767757  0.56674872  0.35514058  1.0
  O  O125  1  0.65258869  0.64694011  0.41030920  1.0
  O  O126  1  0.36266426  0.31650849  0.56197326  1.0
  O  O127  1  0.28946091  0.38945062  0.63311891  1.0
  O  O128  1  0.07904181  0.37850354  0.61548961  1.0
  O  O129  1  0.18306756  0.28581898  0.58109637  1.0
  O  O130  1  0.83848499  0.70364678  0.40843026  1.0
  O  O131  1  0.93229696  0.60150248  0.37470215  1.0
  O  O132  1  0.92167863  0.52253825  0.62842863  1.0
  O  O133  1  0.90135267  0.39438708  0.61599674  1.0
  O  O134  1  0.09041958  0.62678285  0.39868047  1.0
  O  O135  1  0.09157606  0.49627185  0.37691217  1.0
  O  O136  1  0.27199332  0.57282244  0.80910277  1.0
  O  O137  1  0.30561161  0.65080876  0.73024389  1.0
  O  O138  1  0.28300993  0.44811005  0.20780970  1.0
  O  O139  1  0.31418212  0.38002405  0.29303599  1.0
  O  O140  1  0.52214152  0.64916380  0.63370392  1.0
  O  O141  1  0.44623388  0.75602468  0.67651785  1.0
  O  O142  1  0.73554714  0.27551033  0.42544275  1.0
  O  O143  1  0.71433117  0.24434566  0.52182164  1.0
  O  O144  1  0.37330639  0.04088185  0.56016327  1.0
  O  O145  1  0.48285420  0.09967721  0.57315059  1.0
  O  O146  1  0.61401701  0.96293927  0.38204938  1.0
  O  O147  1  0.65282469  0.89084277  0.46492864  1.0
