# generated using pymatgen
data_Zn2H5C43N2(O2F5)4
_symmetry_space_group_name_H-M   'P 1'
_cell_length_a   16.68963803
_cell_length_b   17.88421351
_cell_length_c   30.97544325
_cell_angle_alpha   89.68726490
_cell_angle_beta   90.73755820
_cell_angle_gamma   89.95972748
_symmetry_Int_Tables_number   1
_chemical_formula_structural   Zn2H5C43N2(O2F5)4
_chemical_formula_sum   'Zn4 H10 C86 N4 O16 F40'
_cell_volume   9244.67631699
_cell_formula_units_Z   2
loop_
 _symmetry_equiv_pos_site_id
 _symmetry_equiv_pos_as_xyz
  1  'x, y, z'
loop_
 _atom_site_type_symbol
 _atom_site_label
 _atom_site_symmetry_multiplicity
 _atom_site_fract_x
 _atom_site_fract_y
 _atom_site_fract_z
 _atom_site_occupancy
  Zn  Zn0  1  0.42874879  0.50116917  0.50560597  1.0
  Zn  Zn1  1  0.59462818  0.50316886  0.50189319  1.0
  Zn  Zn2  1  0.57097720  0.49901126  0.92434962  1.0
  Zn  Zn3  1  0.40504316  0.50022010  0.92799388  1.0
  H  H4  1  0.60168572  0.50429998  0.78744755  1.0
  H  H5  1  0.34603122  0.49853736  0.79532520  1.0
  H  H6  1  0.39837417  0.50492653  0.64249373  1.0
  H  H7  1  0.65403091  0.49916998  0.63455983  1.0
  H  H8  1  0.70167763  0.54947603  0.74047313  1.0
  H  H9  1  0.70014667  0.45054206  0.74077326  1.0
  H  H10  1  0.73804941  0.49948724  0.69527874  1.0
  H  H11  1  0.29818652  0.54997753  0.68942460  1.0
  H  H12  1  0.30014862  0.45104812  0.68909074  1.0
  H  H13  1  0.26205828  0.49900180  0.73460786  1.0
  C  C14  1  0.51075463  0.35797166  0.50067766  1.0
  C  C15  1  0.51855501  0.50312925  0.58645765  1.0
  C  C16  1  0.51186677  0.64622520  0.50271614  1.0
  C  C17  1  0.50429276  0.49856527  0.42088460  1.0
  C  C18  1  0.48943252  0.35540859  0.92855711  1.0
  C  C19  1  0.48136064  0.50201211  0.84342784  1.0
  C  C20  1  0.48706926  0.64356284  0.92611644  1.0
  C  C21  1  0.49560210  0.49475625  0.00902785  1.0
  C  C22  1  0.76418165  0.45021293  0.52206569  1.0
  C  C23  1  0.84748343  0.44707859  0.52241157  1.0
  C  C24  1  0.89104719  0.49837362  0.49732176  1.0
  C  C25  1  0.84621974  0.55041562  0.47274966  1.0
  C  C26  1  0.76289809  0.54940512  0.47463922  1.0
  C  C27  1  0.97525391  0.49802074  0.49747317  1.0
  C  C28  1  0.04812705  0.49792638  0.49859225  1.0
  C  C29  1  0.13229302  0.49894106  0.50031646  1.0
  C  C30  1  0.17580093  0.45749922  0.53150888  1.0
  C  C31  1  0.25904626  0.46139688  0.53232804  1.0
  C  C32  1  0.26041312  0.54258310  0.47465425  1.0
  C  C33  1  0.17714090  0.54233687  0.47131478  1.0
  C  C34  1  0.50619578  0.27418056  0.49645312  1.0
  C  C35  1  0.43439201  0.23869830  0.48424725  1.0
  C  C36  1  0.42847535  0.16123562  0.48210134  1.0
  C  C37  1  0.49433575  0.11487804  0.49221204  1.0
  C  C38  1  0.56667323  0.15059543  0.50368529  1.0
  C  C39  1  0.57230627  0.22805940  0.50568831  1.0
  C  C40  1  0.48938829  0.03638700  0.49203516  1.0
  C  C41  1  0.48936912  0.96834227  0.49389638  1.0
  C  C42  1  0.49398689  0.88993121  0.49638859  1.0
  C  C43  1  0.42703829  0.84498063  0.50538456  1.0
  C  C44  1  0.43320419  0.76754491  0.50817936  1.0
  C  C45  1  0.50638231  0.73028252  0.50179830  1.0
  C  C46  1  0.57337589  0.77531375  0.49317937  1.0
  C  C47  1  0.56742626  0.85277777  0.49056713  1.0
  C  C48  1  0.54385438  0.50320462  0.77081756  1.0
  C  C49  1  0.39876736  0.50031431  0.77493230  1.0
  C  C50  1  0.39052430  0.50117449  0.73055625  1.0
  C  C51  1  0.46112112  0.50246416  0.70468296  1.0
  C  C52  1  0.45621962  0.50366954  0.65909703  1.0
  C  C53  1  0.60129225  0.50076810  0.65495823  1.0
  C  C54  1  0.60956128  0.50125326  0.69933776  1.0
  C  C55  1  0.53897837  0.50236348  0.72522804  1.0
  C  C56  1  0.47516135  0.50212058  0.79531664  1.0
  C  C57  1  0.52486960  0.50275238  0.63457297  1.0
  C  C58  1  0.49726966  0.49105869  0.05758727  1.0
  C  C59  1  0.56769510  0.50496061  0.08154309  1.0
  C  C60  1  0.56874271  0.50326967  0.12642921  1.0
  C  C61  1  0.49918409  0.48736457  0.14998271  1.0
  C  C62  1  0.42879004  0.47268602  0.12599010  1.0
  C  C63  1  0.42797305  0.47447816  0.08110432  1.0
  C  C64  1  0.49980903  0.48687079  0.19536516  1.0
  C  C65  1  0.50028130  0.48746099  0.23467102  1.0
  C  C66  1  0.50094272  0.48918876  0.28003681  1.0
  C  C67  1  0.57154394  0.47576265  0.30420845  1.0
  C  C68  1  0.57232840  0.47848073  0.34906063  1.0
  C  C69  1  0.50279365  0.49477509  0.37236079  1.0
  C  C70  1  0.43223044  0.50766323  0.34823535  1.0
  C  C71  1  0.43120202  0.50501841  0.30337939  1.0
  C  C72  1  0.23542253  0.44793563  0.90732107  1.0
  C  C73  1  0.15210557  0.44525498  0.90674618  1.0
  C  C74  1  0.10856414  0.49618878  0.93180693  1.0
  C  C75  1  0.15339419  0.54744782  0.95655968  1.0
  C  C76  1  0.23672296  0.54601118  0.95490065  1.0
  C  C77  1  0.02437390  0.49625997  0.93154337  1.0
  C  C78  1  0.95151972  0.49656116  0.93047901  1.0
  C  C79  1  0.86735764  0.49774444  0.92883428  1.0
  C  C80  1  0.82384338  0.45653846  0.89783053  1.0
  C  C81  1  0.74058040  0.46025583  0.89714840  1.0
  C  C82  1  0.73926461  0.54086529  0.95460129  1.0
  C  C83  1  0.82255380  0.54085340  0.95775656  1.0
  C  C84  1  0.49419756  0.27142398  0.93139659  1.0
  C  C85  1  0.56627720  0.23524549  0.94269132  1.0
  C  C86  1  0.57258758  0.15771286  0.94322322  1.0
  C  C87  1  0.50679880  0.11198331  0.93245208  1.0
  C  C88  1  0.43419359  0.14833934  0.92189627  1.0
  C  C89  1  0.42819294  0.22588476  0.92142178  1.0
  C  C90  1  0.51185631  0.03352631  0.93163194  1.0
  C  C91  1  0.51192716  0.96553922  0.92960022  1.0
  C  C92  1  0.50672926  0.88715464  0.92778264  1.0
  C  C93  1  0.57298136  0.84142316  0.91872904  1.0
  C  C94  1  0.56614562  0.76396914  0.91732447  1.0
  C  C95  1  0.49301157  0.72756450  0.92521418  1.0
  C  C96  1  0.42664232  0.77334922  0.93369056  1.0
  C  C97  1  0.43322157  0.85081017  0.93490843  1.0
  C  C98  1  0.69159825  0.50014582  0.72002443  1.0
  C  C99  1  0.30850077  0.50026058  0.70986006  1.0
  N  N100  1  0.72305902  0.50045840  0.49882380  1.0
  N  N101  1  0.30020667  0.50276230  0.50444878  1.0
  N  N102  1  0.27657221  0.49740531  0.93075943  1.0
  N  N103  1  0.69945353  0.50120252  0.92501988  1.0
  O  O104  1  0.44858013  0.38914151  0.51545474  1.0
  O  O105  1  0.57519671  0.38954323  0.48934397  1.0
  O  O106  1  0.58207788  0.48695775  0.56583764  1.0
  O  O107  1  0.45070981  0.51928590  0.56931959  1.0
  O  O108  1  0.57880119  0.61719303  0.51291952  1.0
  O  O109  1  0.44792954  0.61170448  0.49245554  1.0
  O  O110  1  0.44133413  0.47851925  0.44025283  1.0
  O  O111  1  0.56915279  0.52165599  0.43808489  1.0
  O  O112  1  0.55163978  0.38743598  0.91428163  1.0
  O  O113  1  0.42492473  0.38629857  0.94025198  1.0
  O  O114  1  0.41793124  0.48516863  0.86404307  1.0
  O  O115  1  0.54898756  0.51844435  0.86057942  1.0
  O  O116  1  0.42002192  0.61447257  0.91649185  1.0
  O  O117  1  0.55084445  0.60921385  0.93716003  1.0
  O  O118  1  0.55871922  0.47528955  0.98971717  1.0
  O  O119  1  0.43045136  0.51744482  0.99176378  1.0
  F  F120  1  0.72324976  0.40186720  0.54587934  1.0
  F  F121  1  0.72064825  0.59900318  0.45182163  1.0
  F  F122  1  0.88336678  0.60101255  0.44803585  1.0
  F  F123  1  0.88590068  0.39577577  0.54666905  1.0
  F  F124  1  0.13733082  0.41514836  0.56046725  1.0
  F  F125  1  0.14013171  0.58340597  0.44075434  1.0
  F  F126  1  0.30231896  0.58407296  0.44746050  1.0
  F  F127  1  0.30020376  0.42297897  0.56212846  1.0
  F  F128  1  0.36856536  0.27888421  0.47336960  1.0
  F  F129  1  0.64318479  0.25747934  0.51832847  1.0
  F  F130  1  0.63150547  0.10867091  0.51378016  1.0
  F  F131  1  0.35810351  0.12990360  0.47020462  1.0
  F  F132  1  0.35535637  0.87776848  0.51184709  1.0
  F  F133  1  0.63352402  0.89321559  0.48189268  1.0
  F  F134  1  0.64597317  0.74506363  0.48597749  1.0
  F  F135  1  0.36588777  0.72976886  0.51817060  1.0
  F  F136  1  0.63677717  0.52267238  0.06183963  1.0
  F  F137  1  0.35811329  0.45796841  0.06092526  1.0
  F  F138  1  0.36068873  0.45625710  0.14700347  1.0
  F  F139  1  0.63773237  0.51816934  0.14782079  1.0
  F  F140  1  0.63984496  0.45949506  0.28341681  1.0
  F  F141  1  0.36201957  0.51874344  0.28178674  1.0
  F  F142  1  0.36293909  0.52511610  0.36772604  1.0
  F  F143  1  0.64239780  0.46299966  0.36943078  1.0
  F  F144  1  0.27633229  0.39994385  0.88352728  1.0
  F  F145  1  0.27900988  0.59483324  0.97791867  1.0
  F  F146  1  0.11625916  0.59767567  0.98124407  1.0
  F  F147  1  0.11367078  0.39472903  0.88230489  1.0
  F  F148  1  0.86233153  0.41449367  0.86896922  1.0
  F  F149  1  0.85959948  0.58175389  0.98809354  1.0
  F  F150  1  0.69732034  0.58187933  0.98179482  1.0
  F  F151  1  0.69944783  0.42202794  0.86752791  1.0
  F  F152  1  0.63201177  0.27472162  0.95423112  1.0
  F  F153  1  0.35707985  0.25604904  0.90954135  1.0
  F  F154  1  0.36938301  0.10700957  0.91131648  1.0
  F  F155  1  0.64320605  0.12569980  0.95431836  1.0
  F  F156  1  0.64465037  0.87339354  0.91098088  1.0
  F  F157  1  0.36779647  0.89206763  0.94362558  1.0
  F  F158  1  0.35419057  0.74382371  0.94222068  1.0
  F  F159  1  0.63272740  0.72522498  0.90723787  1.0
