# generated using pymatgen
data_Zn4H8C28S2Cl4O13F2
_symmetry_space_group_name_H-M   'P 1'
_cell_length_a   18.45783404
_cell_length_b   19.60962253
_cell_length_c   32.80079354
_cell_angle_alpha   86.05630833
_cell_angle_beta   73.79388433
_cell_angle_gamma   62.11355339
_symmetry_Int_Tables_number   1
_chemical_formula_structural   Zn4H8C28S2Cl4O13F2
_chemical_formula_sum   'Zn16 H32 C112 S8 Cl16 O52 F8'
_cell_volume   10049.94153193
_cell_formula_units_Z   4
loop_
 _symmetry_equiv_pos_site_id
 _symmetry_equiv_pos_as_xyz
  1  'x, y, z'
loop_
 _atom_site_type_symbol
 _atom_site_label
 _atom_site_symmetry_multiplicity
 _atom_site_fract_x
 _atom_site_fract_y
 _atom_site_fract_z
 _atom_site_occupancy
  Zn  Zn0  1  0.94254622  0.44812537  0.48123555  1.0
  Zn  Zn1  1  0.96330478  0.51781797  0.56115269  1.0
  Zn  Zn2  1  0.97324221  0.59886392  0.47430468  1.0
  Zn  Zn3  1  0.12402703  0.43432079  0.48425172  1.0
  Zn  Zn4  1  0.54882641  0.81284823  0.26350831  1.0
  Zn  Zn5  1  0.54880799  0.64855411  0.27293493  1.0
  Zn  Zn6  1  0.53061261  0.73425987  0.18723836  1.0
  Zn  Zn7  1  0.37632931  0.80040755  0.27375814  1.0
  Zn  Zn8  1  0.53623818  0.24423533  0.68558692  1.0
  Zn  Zn9  1  0.37908529  0.31092403  0.77040937  1.0
  Zn  Zn10  1  0.55692905  0.29854163  0.77077614  1.0
  Zn  Zn11  1  0.53249364  0.14736909  0.77054879  1.0
  Zn  Zn12  1  0.95642756  0.09852824  0.97380836  1.0
  Zn  Zn13  1  0.12972687  0.94965741  0.98325505  1.0
  Zn  Zn14  1  0.96710031  0.93290443  0.97855316  1.0
  Zn  Zn15  1  0.95549274  0.01326554  0.06138291  1.0
  H  H16  1  0.64766603  0.52958147  0.37529812  1.0
  H  H17  1  0.73920065  0.49007000  0.33046348  1.0
  H  H18  1  0.83445128  0.44105432  0.37961849  1.0
  H  H19  1  0.74274132  0.48054275  0.42441748  1.0
  H  H20  1  0.44946634  0.33485671  0.57488107  1.0
  H  H21  1  0.45040844  0.24362876  0.57523397  1.0
  H  H22  1  0.35511806  0.28942393  0.52629575  1.0
  H  H23  1  0.35492104  0.38043228  0.52554138  1.0
  H  H24  1  0.74123604  0.23861520  0.57627484  1.0
  H  H25  1  0.65055850  0.32650310  0.57261500  1.0
  H  H26  1  0.74741307  0.37424743  0.52413716  1.0
  H  H27  1  0.83824187  0.28660502  0.52772933  1.0
  H  H28  1  0.16046307  0.80545122  0.36856061  1.0
  H  H29  1  0.15654243  0.76207312  0.32382396  1.0
  H  H30  1  0.06062057  0.71369512  0.37297566  1.0
  H  H31  1  0.06433780  0.75756463  0.41762678  1.0
  H  H32  1  0.85832454  0.91054764  0.17226687  1.0
  H  H33  1  0.76861292  0.00229163  0.17308380  1.0
  H  H34  1  0.67093889  0.95469484  0.22065500  1.0
  H  H35  1  0.76045623  0.86261579  0.21974798  1.0
  H  H36  1  0.34396615  0.79162009  0.02993355  1.0
  H  H37  1  0.34999163  0.87976548  0.02843290  1.0
  H  H38  1  0.44587015  0.82922761  0.07710533  1.0
  H  H39  1  0.43955609  0.74113414  0.07884707  1.0
  H  H40  1  0.35061749  0.98145318  0.92802312  1.0
  H  H41  1  0.34799796  0.93663927  0.88341116  1.0
  H  H42  1  0.44538735  0.98310792  0.83431339  1.0
  H  H43  1  0.44924311  0.02672743  0.87900309  1.0
  H  H44  1  0.76613858  0.25834531  0.91466748  1.0
  H  H45  1  0.85623910  0.21242147  0.86949516  1.0
  H  H46  1  0.75869252  0.25984049  0.82160953  1.0
  H  H47  1  0.66887571  0.30592175  0.86678150  1.0
  C  C48  1  0.86661456  0.43172714  0.57013356  1.0
  C  C49  1  0.87590051  0.68531632  0.55849460  1.0
  C  C50  1  0.86407743  0.57657454  0.43025641  1.0
  C  C51  1  0.15211909  0.55801298  0.43560641  1.0
  C  C52  1  0.11089972  0.31771393  0.43821963  1.0
  C  C53  1  0.13583693  0.43088998  0.56963117  1.0
  C  C54  1  0.64183738  0.69089091  0.31577894  1.0
  C  C55  1  0.62475365  0.56478839  0.18860087  1.0
  C  C56  1  0.63052721  0.82043284  0.17477612  1.0
  C  C57  1  0.35221664  0.81764594  0.18668663  1.0
  C  C58  1  0.37778257  0.93236316  0.31138653  1.0
  C  C59  1  0.37639614  0.66896356  0.32024115  1.0
  C  C60  1  0.35772567  0.31864692  0.68384864  1.0
  C  C61  1  0.39146697  0.43510610  0.80790246  1.0
  C  C62  1  0.64177474  0.31929067  0.68329565  1.0
  C  C63  1  0.63136543  0.16949849  0.82174981  1.0
  C  C64  1  0.62122918  0.07284244  0.68283073  1.0
  C  C65  1  0.35948842  0.18591122  0.81812305  1.0
  C  C66  1  0.13108533  0.07456234  0.92903240  1.0
  C  C67  1  0.14528724  0.81535868  0.93897633  1.0
  C  C68  1  0.86045541  0.05702807  0.93256272  1.0
  C  C69  1  0.86065177  0.92931545  0.06350810  1.0
  C  C70  1  0.88156513  0.18265239  0.05884909  1.0
  C  C71  1  0.12867089  0.93354929  0.07285436  1.0
  C  C72  1  0.13515311  0.19491769  0.39915433  1.0
  C  C73  1  0.35160520  0.05585759  0.34979639  1.0
  C  C74  1  0.16103586  0.24291651  0.41304219  1.0
  C  C75  1  0.32594229  0.00753724  0.33604655  1.0
  C  C76  1  0.28267184  0.12415503  0.37286947  1.0
  C  C77  1  0.20401171  0.12642976  0.37611446  1.0
  C  C78  1  0.79218400  0.77792819  0.62613318  1.0
  C  C79  1  0.70506243  0.98142700  0.61394369  1.0
  C  C80  1  0.82592447  0.76102686  0.58242471  1.0
  C  C81  1  0.67140740  0.99806039  0.65764135  1.0
  C  C82  1  0.74962329  0.90131152  0.60196441  1.0
  C  C83  1  0.74844077  0.85800378  0.63788341  1.0
  C  C84  1  0.69511048  0.66879674  0.34619099  1.0
  C  C85  1  0.80440062  0.61230868  0.40303078  1.0
  C  C86  1  0.72003490  0.59600130  0.36227371  1.0
  C  C87  1  0.77729991  0.68819269  0.38855543  1.0
  C  C88  1  0.77230431  0.56900790  0.38938588  1.0
  C  C89  1  0.72420753  0.71564268  0.36073766  1.0
  C  C90  1  0.71256538  0.52236973  0.36164910  1.0
  C  C91  1  0.77204144  0.49166771  0.39238156  1.0
  C  C92  1  0.29622361  0.34770110  0.65749022  1.0
  C  C93  1  0.18717129  0.40123115  0.60079900  1.0
  C  C94  1  0.32806541  0.33813631  0.61321411  1.0
  C  C95  1  0.15241769  0.41058694  0.64572152  1.0
  C  C96  1  0.27587633  0.36334372  0.58608243  1.0
  C  C97  1  0.20547910  0.38505899  0.67353469  1.0
  C  C98  1  0.40962773  0.30648338  0.57686397  1.0
  C  C99  1  0.35023880  0.33515730  0.54607933  1.0
  C  C100  1  0.69553027  0.35338412  0.65700555  1.0
  C  C101  1  0.80689603  0.40860442  0.60112562  1.0
  C  C102  1  0.72180531  0.34000636  0.61284945  1.0
  C  C103  1  0.77838443  0.42609413  0.64596464  1.0
  C  C104  1  0.77513401  0.36638809  0.58614214  1.0
  C  C105  1  0.72400124  0.39905898  0.67323361  1.0
  C  C106  1  0.71517508  0.30175466  0.57639485  1.0
  C  C107  1  0.77580003  0.33175432  0.54605810  1.0
  C  C108  1  0.32545012  0.63539632  0.34966093  1.0
  C  C109  1  0.21479760  0.58018681  0.40649338  1.0
  C  C110  1  0.23665392  0.67794145  0.36173510  1.0
  C  C111  1  0.30526729  0.53508099  0.39466827  1.0
  C  C112  1  0.18378163  0.65150229  0.38879586  1.0
  C  C113  1  0.35926421  0.56217713  0.36703501  1.0
  C  C114  1  0.16277121  0.75352160  0.35636265  1.0
  C  C115  1  0.10269538  0.72346597  0.38708146  1.0
  C  C116  1  0.71049374  0.41609687  0.17713661  1.0
  C  C117  1  0.79727705  0.33156416  0.07013151  1.0
  C  C118  1  0.67465787  0.49014523  0.16345608  1.0
  C  C119  1  0.83250705  0.25745865  0.08384588  1.0
  C  C120  1  0.75210464  0.38978519  0.10388964  1.0
  C  C121  1  0.75471704  0.35778697  0.14345777  1.0
  C  C122  1  0.79855657  0.90325613  0.08915837  1.0
  C  C123  1  0.68494895  0.84924515  0.14398909  1.0
  C  C124  1  0.77707813  0.91075404  0.13340579  1.0
  C  C125  1  0.70326752  0.84323643  0.09889343  1.0
  C  C126  1  0.72291869  0.88471627  0.15962959  1.0
  C  C127  1  0.75876697  0.86958267  0.07214804  1.0
  C  C128  1  0.79212269  0.93953439  0.17039567  1.0
  C  C129  1  0.73080428  0.90975594  0.20017946  1.0
  C  C130  1  0.18000140  0.90913316  0.10425181  1.0
  C  C131  1  0.29021810  0.85137583  0.16059204  1.0
  C  C132  1  0.26870038  0.86813226  0.08942253  1.0
  C  C133  1  0.19985697  0.89506861  0.17675366  1.0
  C  C134  1  0.32137569  0.84044752  0.11632257  1.0
  C  C135  1  0.14616755  0.92335052  0.14921367  1.0
  C  C136  1  0.34257578  0.83588853  0.04934646  1.0
  C  C137  1  0.40246515  0.80436833  0.07985006  1.0
  C  C138  1  0.25766136  0.55678244  0.84727733  1.0
  C  C139  1  0.28449174  0.69429930  0.89951074  1.0
  C  C140  1  0.34516413  0.50945401  0.83312425  1.0
  C  C141  1  0.19687475  0.74101968  0.91352685  1.0
  C  C142  1  0.30787565  0.62655875  0.87532921  1.0
  C  C143  1  0.23525601  0.62390146  0.87150493  1.0
  C  C144  1  0.18362224  0.10777136  0.90053585  1.0
  C  C145  1  0.29678430  0.16152128  0.84488269  1.0
  C  C146  1  0.27241149  0.06465904  0.88926038  1.0
  C  C147  1  0.20650608  0.20676466  0.85535924  1.0
  C  C148  1  0.32652810  0.09007477  0.86239153  1.0
  C  C149  1  0.15120029  0.18090739  0.88284727  1.0
  C  C150  1  0.34549494  0.98893029  0.89528754  1.0
  C  C151  1  0.40689513  0.01777266  0.86466565  1.0
  C  C152  1  0.79942122  0.08140956  0.90613539  1.0
  C  C153  1  0.68640641  0.13656620  0.85127344  1.0
  C  C154  1  0.77692555  0.15231036  0.88806305  1.0
  C  C155  1  0.70662132  0.06458857  0.86999585  1.0
  C  C156  1  0.72313866  0.17852761  0.86173428  1.0
  C  C157  1  0.76185106  0.03766179  0.89674786  1.0
  C  C158  1  0.79029770  0.22330396  0.88459216  1.0
  C  C159  1  0.72931897  0.25300176  0.85464540  1.0
  S  S160  1  0.27189804  0.20414389  0.39775409  1.0
  S  S161  1  0.21512880  0.04600798  0.35139659  1.0
  S  S162  1  0.80426322  0.84441513  0.55483795  1.0
  S  S163  1  0.69439265  0.91444412  0.68506914  1.0
  S  S164  1  0.69502749  0.48917870  0.10827180  1.0
  S  S165  1  0.81051157  0.25831420  0.13910644  1.0
  S  S166  1  0.40180286  0.54732951  0.84970502  1.0
  S  S167  1  0.14104677  0.70211747  0.89709634  1.0
  Cl  Cl168  1  0.80545395  0.75138639  0.40533108  1.0
  Cl  Cl169  1  0.69378962  0.80894358  0.34613564  1.0
  Cl  Cl170  1  0.04383222  0.45001863  0.66791103  1.0
  Cl  Cl171  1  0.15537192  0.40207407  0.72724810  1.0
  Cl  Cl172  1  0.80572257  0.48374452  0.66885827  1.0
  Cl  Cl173  1  0.69038683  0.42631595  0.72674843  1.0
  Cl  Cl174  1  0.35381975  0.44512359  0.41317603  1.0
  Cl  Cl175  1  0.46772579  0.50371101  0.35606286  1.0
  Cl  Cl176  1  0.65631449  0.80603748  0.07476505  1.0
  Cl  Cl177  1  0.77341298  0.86329780  0.01818378  1.0
  Cl  Cl178  1  0.15133251  0.91714237  0.23055691  1.0
  Cl  Cl179  1  0.03818784  0.97846439  0.17204981  1.0
  Cl  Cl180  1  0.16088702  0.29340411  0.83320628  1.0
  Cl  Cl181  1  0.04327370  0.24252014  0.89491870  1.0
  Cl  Cl182  1  0.66422042  0.00696524  0.86146283  1.0
  Cl  Cl183  1  0.77958492  0.95104084  0.91869983  1.0
  O  O184  1  0.99977484  0.49903903  0.49892890  1.0
  O  O185  1  0.86620403  0.42973216  0.53127954  1.0
  O  O186  1  0.88501455  0.62640226  0.57987029  1.0
  O  O187  1  0.90761812  0.60872277  0.43447068  1.0
  O  O188  1  0.91396301  0.44948809  0.58396213  1.0
  O  O189  1  0.86752111  0.51406368  0.44631899  1.0
  O  O190  1  0.90560766  0.68584332  0.51826028  1.0
  O  O191  1  0.07376090  0.60759225  0.44055780  1.0
  O  O192  1  0.15612729  0.34541595  0.44660087  1.0
  O  O193  1  0.17920975  0.49438291  0.45304567  1.0
  O  O194  1  0.02967161  0.34767759  0.44913841  1.0
  O  O195  1  0.06392466  0.49138851  0.58069165  1.0
  O  O196  1  0.17069172  0.39387042  0.53295276  1.0
  O  O197  1  0.50066516  0.74997761  0.24943633  1.0
  O  O198  1  0.63288533  0.74940626  0.29437341  1.0
  O  O199  1  0.62129648  0.56428181  0.22798328  1.0
  O  O200  1  0.61443357  0.77117180  0.16141172  1.0
  O  O201  1  0.61029732  0.64581226  0.31341626  1.0
  O  O202  1  0.60596180  0.84775135  0.21337345  1.0
  O  O203  1  0.58964811  0.62366987  0.16810408  1.0
  O  O204  1  0.43096754  0.78901777  0.16523588  1.0
  O  O205  1  0.33542598  0.90097299  0.30351690  1.0
  O  O206  1  0.32420682  0.81833145  0.22675481  1.0
  O  O207  1  0.45860352  0.90570825  0.30022514  1.0
  O  O208  1  0.45518685  0.62578626  0.30278734  1.0
  O  O209  1  0.33387876  0.74071730  0.31463552  1.0
  O  O210  1  0.50346560  0.24951129  0.74813252  1.0
  O  O211  1  0.43630792  0.29354625  0.66291750  1.0
  O  O212  1  0.34641861  0.41217824  0.79542532  1.0
  O  O213  1  0.63989921  0.31048376  0.72224142  1.0
  O  O214  1  0.32910479  0.31999554  0.72396634  1.0
  O  O215  1  0.60352898  0.29940381  0.66316163  1.0
  O  O216  1  0.47275491  0.40043630  0.80088539  1.0
  O  O217  1  0.61845542  0.23743591  0.81113033  1.0
  O  O218  1  0.60001552  0.06766843  0.72309941  1.0
  O  O219  1  0.60261884  0.12958907  0.80930989  1.0
  O  O220  1  0.60363955  0.13433821  0.66301110  1.0
  O  O221  1  0.33685814  0.25779051  0.81629892  1.0
  O  O222  1  0.43357110  0.13096132  0.80002777  1.0
  O  O223  1  0.00418009  0.99913262  0.99931643  1.0
  O  O224  1  0.05189566  0.10495390  0.93195419  1.0
  O  O225  1  0.18260508  0.84761268  0.95106654  1.0
  O  O226  1  0.89870320  0.98598879  0.93939495  1.0
  O  O227  1  0.17244835  0.01559800  0.94786158  1.0
  O  O228  1  0.87048995  0.11129470  0.94553064  1.0
  O  O229  1  0.06477510  0.84064927  0.94631751  1.0
  O  O230  1  0.90411816  0.89793723  0.02616045  1.0
  O  O231  1  0.90283229  0.12304520  0.08065846  1.0
  O  O232  1  0.86646916  0.98071776  0.08247321  1.0
  O  O233  1  0.89808323  0.18384983  0.01849567  1.0
  O  O234  1  0.17035140  0.93378152  0.03449835  1.0
  O  O235  1  0.05035467  0.94978700  0.08577357  1.0
  F  F236  1  0.05332511  0.21046653  0.40659241  1.0
  F  F237  1  0.43317290  0.04082841  0.34242234  1.0
  F  F238  1  0.79974473  0.72507215  0.65510783  1.0
  F  F239  1  0.69705259  0.03498704  0.58526048  1.0
  F  F240  1  0.70410219  0.39976395  0.21803752  1.0
  F  F241  1  0.80384809  0.34793339  0.02925292  1.0
  F  F242  1  0.19859412  0.54197699  0.83949931  1.0
  F  F243  1  0.34239024  0.71047439  0.90780730  1.0
