# generated using pymatgen
data_Zn4C48O13F24
_symmetry_space_group_name_H-M   'P 1'
_cell_length_a   28.25614103
_cell_length_b   28.25444397
_cell_length_c   28.25699641
_cell_angle_alpha   90.00169306
_cell_angle_beta   120.00302966
_cell_angle_gamma   119.99755971
_symmetry_Int_Tables_number   1
_chemical_formula_structural   Zn4C48O13F24
_chemical_formula_sum   'Zn8 C96 O26 F48'
_cell_volume   15951.45584734
_cell_formula_units_Z   2
loop_
 _symmetry_equiv_pos_site_id
 _symmetry_equiv_pos_as_xyz
  1  'x, y, z'
loop_
 _atom_site_type_symbol
 _atom_site_label
 _atom_site_symmetry_multiplicity
 _atom_site_fract_x
 _atom_site_fract_y
 _atom_site_fract_z
 _atom_site_occupancy
  Zn  Zn0  1  0.44317512  0.47158507  0.02843825  1.0
  Zn  Zn1  1  0.55683094  0.47153421  0.02847449  1.0
  Zn  Zn2  1  0.55685737  0.58521161  0.02845043  1.0
  Zn  Zn3  1  0.44319898  0.47158191  0.91480211  1.0
  Zn  Zn4  1  0.55684641  0.02850259  0.47155828  1.0
  Zn  Zn5  1  0.44323729  0.91480558  0.47157656  1.0
  Zn  Zn6  1  0.44322210  0.02847080  0.47158134  1.0
  Zn  Zn7  1  0.55689333  0.02848638  0.58523359  1.0
  C  C8  1  0.49994344  0.40958846  0.09042724  1.0
  C  C9  1  0.68080045  0.59035405  0.09045320  1.0
  C  C10  1  0.50002073  0.59040541  0.09039354  1.0
  C  C11  1  0.50004360  0.59039752  0.90966784  1.0
  C  C12  1  0.31923765  0.40960156  0.90962281  1.0
  C  C13  1  0.49998976  0.40958036  0.90963957  1.0
  C  C14  1  0.50005480  0.90976882  0.40952173  1.0
  C  C15  1  0.31928430  0.90970888  0.40957479  1.0
  C  C16  1  0.49996367  0.09042507  0.40957677  1.0
  C  C17  1  0.50005830  0.09048773  0.59034822  1.0
  C  C18  1  0.68081323  0.09051553  0.59030605  1.0
  C  C19  1  0.50004211  0.90967811  0.59040678  1.0
  C  C20  1  0.75589012  0.12800828  0.62784657  1.0
  C  C21  1  0.79313964  0.14662078  0.68902768  1.0
  C  C22  1  0.86272687  0.18139287  0.72372368  1.0
  C  C23  1  0.89944711  0.19974839  0.69964717  1.0
  C  C24  1  0.86275420  0.18139892  0.63885342  1.0
  C  C25  1  0.79316200  0.14662134  0.60392721  1.0
  C  C26  1  0.96959634  0.23482541  0.73471916  1.0
  C  C27  1  0.03047340  0.26527380  0.76515408  1.0
  C  C28  1  0.10062018  0.30034302  0.80025230  1.0
  C  C29  1  0.13730448  0.31867211  0.86104789  1.0
  C  C30  1  0.20689031  0.35345246  0.89597487  1.0
  C  C31  1  0.24416405  0.37208659  0.87206285  1.0
  C  C32  1  0.20692681  0.35349066  0.81087851  1.0
  C  C33  1  0.13733747  0.31870609  0.77618156  1.0
  C  C34  1  0.24420034  0.87215998  0.37207272  1.0
  C  C35  1  0.20695925  0.81097759  0.35344890  1.0
  C  C36  1  0.13737166  0.77628301  0.31868177  1.0
  C  C37  1  0.10064585  0.80035376  0.30034816  1.0
  C  C38  1  0.13733174  0.86114810  0.31869333  1.0
  C  C39  1  0.20692605  0.89607984  0.35346540  1.0
  C  C40  1  0.03049271  0.76526173  0.26529469  1.0
  C  C41  1  0.96961494  0.73480771  0.23486115  1.0
  C  C42  1  0.89945650  0.69971186  0.19977684  1.0
  C  C43  1  0.86276008  0.63891276  0.18142519  1.0
  C  C44  1  0.79316719  0.60398681  0.14663389  1.0
  C  C45  1  0.75588254  0.62789657  0.12798914  1.0
  C  C46  1  0.79313187  0.68908480  0.14662210  1.0
  C  C47  1  0.86272335  0.72378017  0.18140754  1.0
  C  C48  1  0.50003832  0.87223505  0.37195895  1.0
  C  C49  1  0.45748609  0.81105395  0.35332526  1.0
  C  C50  1  0.45759893  0.77636533  0.31853768  1.0
  C  C51  1  0.50003350  0.80044584  0.30017843  1.0
  C  C52  1  0.54247601  0.86124174  0.31853052  1.0
  C  C53  1  0.54259144  0.89616253  0.35331955  1.0
  C  C54  1  0.50001927  0.76537041  0.26508961  1.0
  C  C55  1  0.50000458  0.73491972  0.23464324  1.0
  C  C56  1  0.49998611  0.69980974  0.19958543  1.0
  C  C57  1  0.45753085  0.63901067  0.18124570  1.0
  C  C58  1  0.45741295  0.60407553  0.14647386  1.0
  C  C59  1  0.49999191  0.62797479  0.12787329  1.0
  C  C60  1  0.54254273  0.68916739  0.14646293  1.0
  C  C61  1  0.54243095  0.72387315  0.18123762  1.0
  C  C62  1  0.49998064  0.12794809  0.62788813  1.0
  C  C63  1  0.54251052  0.14654307  0.68907339  1.0
  C  C64  1  0.54238529  0.18131653  0.72376412  1.0
  C  C65  1  0.49994513  0.19967530  0.69968323  1.0
  C  C66  1  0.45750375  0.18133444  0.63889223  1.0
  C  C67  1  0.45740247  0.14656208  0.60397037  1.0
  C  C68  1  0.49995440  0.23475978  0.73476158  1.0
  C  C69  1  0.49997936  0.26523352  0.76518846  1.0
  C  C70  1  0.50001269  0.30032738  0.80028219  1.0
  C  C71  1  0.54247389  0.31868119  0.86107511  1.0
  C  C72  1  0.54260136  0.35347162  0.89600156  1.0
  C  C73  1  0.50002778  0.37208681  0.87209250  1.0
  C  C74  1  0.45746641  0.35347385  0.81090328  1.0
  C  C75  1  0.45757713  0.31868661  0.77621075  1.0
  C  C76  1  0.49991216  0.12793804  0.37203258  1.0
  C  C77  1  0.45731631  0.14653236  0.35340903  1.0
  C  C78  1  0.45740697  0.18132728  0.31861723  1.0
  C  C79  1  0.49984802  0.19969310  0.30027339  1.0
  C  C80  1  0.54231901  0.18136859  0.31861098  1.0
  C  C81  1  0.54245876  0.14657819  0.35339829  1.0
  C  C82  1  0.49982009  0.23476432  0.26520885  1.0
  C  C83  1  0.49981523  0.26520647  0.23477845  1.0
  C  C84  1  0.49984216  0.30028269  0.19971741  1.0
  C  C85  1  0.45741974  0.31865146  0.18136680  1.0
  C  C86  1  0.45732778  0.35344712  0.14657425  1.0
  C  C87  1  0.49990328  0.37205158  0.12795853  1.0
  C  C88  1  0.54243660  0.35340048  0.14659366  1.0
  C  C89  1  0.54229462  0.31860636  0.18138325  1.0
  C  C90  1  0.49998073  0.87213938  0.62795975  1.0
  C  C91  1  0.45739460  0.81095113  0.60404885  1.0
  C  C92  1  0.45750285  0.77627182  0.63896077  1.0
  C  C93  1  0.49994862  0.80035265  0.69976334  1.0
  C  C94  1  0.54239082  0.86115401  0.72383469  1.0
  C  C95  1  0.54251263  0.89606643  0.68915189  1.0
  C  C96  1  0.49997301  0.76528994  0.73486043  1.0
  C  C97  1  0.50000583  0.73485972  0.76531076  1.0
  C  C98  1  0.50002987  0.69976239  0.80037522  1.0
  C  C99  1  0.45760403  0.63895599  0.77628211  1.0
  C  C100  1  0.45750276  0.60404152  0.81095635  1.0
  C  C101  1  0.50004766  0.62795167  0.87213981  1.0
  C  C102  1  0.54260204  0.68914420  0.89607980  1.0
  C  C103  1  0.54247397  0.72383309  0.86117246  1.0
  O  O104  1  0.50001751  0.49997196  0.00004073  1.0
  O  O105  1  0.45975912  0.42392838  0.07608372  1.0
  O  O106  1  0.65213925  0.53581679  0.07614116  1.0
  O  O107  1  0.54024720  0.61625341  0.07609723  1.0
  O  O108  1  0.54016066  0.42390608  0.07612058  1.0
  O  O109  1  0.45982568  0.53587751  0.07608837  1.0
  O  O110  1  0.65214647  0.61622125  0.07611891  1.0
  O  O111  1  0.54025515  0.61626179  0.96419560  1.0
  O  O112  1  0.34790606  0.42390882  0.88376661  1.0
  O  O113  1  0.45982837  0.53586424  0.88378636  1.0
  O  O114  1  0.34788195  0.42392604  0.96414807  1.0
  O  O115  1  0.54014490  0.42385401  0.96417252  1.0
  O  O116  1  0.45979826  0.42391354  0.88377762  1.0
  O  O117  1  0.50004305  0.00004743  0.49999374  1.0
  O  O118  1  0.54023605  0.96428917  0.42384435  1.0
  O  O119  1  0.34795384  0.88384086  0.42388724  1.0
  O  O120  1  0.45979185  0.07610068  0.42392499  1.0
  O  O121  1  0.45987647  0.88388323  0.42387402  1.0
  O  O122  1  0.54017604  0.07611321  0.42389658  1.0
  O  O123  1  0.34792002  0.96422704  0.42387974  1.0
  O  O124  1  0.45989007  0.07619628  0.53582599  1.0
  O  O125  1  0.65215970  0.07618678  0.61617879  1.0
  O  O126  1  0.54030254  0.07620021  0.61621478  1.0
  O  O127  1  0.65215833  0.07623589  0.53578410  1.0
  O  O128  1  0.45987738  0.88379615  0.53587062  1.0
  O  O129  1  0.54026063  0.96420652  0.61626917  1.0
  F  F130  1  0.76357179  0.13184564  0.71695207  1.0
  F  F131  1  0.76362379  0.13184460  0.54643536  1.0
  F  F132  1  0.89578200  0.19789236  0.61384352  1.0
  F  F133  1  0.89572804  0.19788617  0.78175636  1.0
  F  F134  1  0.10426889  0.30215334  0.88604348  1.0
  F  F135  1  0.10433913  0.30222259  0.71814615  1.0
  F  F136  1  0.23649150  0.36828301  0.78295180  1.0
  F  F137  1  0.23642108  0.36820826  0.95346429  1.0
  F  F138  1  0.23653025  0.78304988  0.36820908  1.0
  F  F139  1  0.23645193  0.95357090  0.36823858  1.0
  F  F140  1  0.10430055  0.88615871  0.30221023  1.0
  F  F141  1  0.10438025  0.71824826  0.30218726  1.0
  F  F142  1  0.89578490  0.61389550  0.19793617  1.0
  F  F143  1  0.89571193  0.78181778  0.19789990  1.0
  F  F144  1  0.76357219  0.71702000  0.13185088  1.0
  F  F145  1  0.76363318  0.54649266  0.13187513  1.0
  F  F146  1  0.41476963  0.78311284  0.36810205  1.0
  F  F147  1  0.58528503  0.95365604  0.36807180  1.0
  F  F148  1  0.58399585  0.88626574  0.30201524  1.0
  F  F149  1  0.41607240  0.71832744  0.30203927  1.0
  F  F150  1  0.41599261  0.61401853  0.19774328  1.0
  F  F151  1  0.58397021  0.78191061  0.19772158  1.0
  F  F152  1  0.58524786  0.71708419  0.13167435  1.0
  F  F153  1  0.41466947  0.54658628  0.13169683  1.0
  F  F154  1  0.58521207  0.13174754  0.71700646  1.0
  F  F155  1  0.41468061  0.13179913  0.54647966  1.0
  F  F156  1  0.41596248  0.19783534  0.61387880  1.0
  F  F157  1  0.58390105  0.19779398  0.78179775  1.0
  F  F158  1  0.58401658  0.30218056  0.88608332  1.0
  F  F159  1  0.41602988  0.30218515  0.71817566  1.0
  F  F160  1  0.41474469  0.36824746  0.78297231  1.0
  F  F161  1  0.58534799  0.36825641  0.95349308  1.0
  F  F162  1  0.41460244  0.13173671  0.36819095  1.0
  F  F163  1  0.58518803  0.13181705  0.36816436  1.0
  F  F164  1  0.58383229  0.19790110  0.30208749  1.0
  F  F165  1  0.41586029  0.19781779  0.30210855  1.0
  F  F166  1  0.41588947  0.30216312  0.19787090  1.0
  F  F167  1  0.58379849  0.30206656  0.19790371  1.0
  F  F168  1  0.58515437  0.36814622  0.13182838  1.0
  F  F169  1  0.41462610  0.36824690  0.13179076  1.0
  F  F170  1  0.41464007  0.78299886  0.54655368  1.0
  F  F171  1  0.58522025  0.95356321  0.71709929  1.0
  F  F172  1  0.58393792  0.88620262  0.78187261  1.0
  F  F173  1  0.41594704  0.71823324  0.61392551  1.0
  F  F174  1  0.41607676  0.61393282  0.71825061  1.0
  F  F175  1  0.58400253  0.78187134  0.88622291  1.0
  F  F176  1  0.58532011  0.71708605  0.95357405  1.0
  F  F177  1  0.41479443  0.54654535  0.78300055  1.0
