# generated using pymatgen
data_Zn4H16C40N4O21
_symmetry_space_group_name_H-M   'P 1'
_cell_length_a   23.71042260
_cell_length_b   23.71072944
_cell_length_c   23.70891517
_cell_angle_alpha   65.98315877
_cell_angle_beta   72.74975144
_cell_angle_gamma   107.24690471
_symmetry_Int_Tables_number   1
_chemical_formula_structural   Zn4H16C40N4O21
_chemical_formula_sum   'Zn8 H32 C80 N8 O42'
_cell_volume   10211.49744122
_cell_formula_units_Z   2
loop_
 _symmetry_equiv_pos_site_id
 _symmetry_equiv_pos_as_xyz
  1  'x, y, z'
loop_
 _atom_site_type_symbol
 _atom_site_label
 _atom_site_symmetry_multiplicity
 _atom_site_fract_x
 _atom_site_fract_y
 _atom_site_fract_z
 _atom_site_occupancy
  Zn  Zn0  1  0.05615124  0.09996131  0.46049136  1.0
  Zn  Zn1  1  0.05615482  0.95619620  0.48334487  1.0
  Zn  Zn2  1  0.94384347  0.96049226  0.59997200  1.0
  Zn  Zn3  1  0.94385378  0.98336034  0.45617988  1.0
  Zn  Zn4  1  0.93954022  0.40003878  0.04381084  1.0
  Zn  Zn5  1  0.06046427  0.54381764  0.90002652  1.0
  Zn  Zn6  1  0.93953615  0.53949946  0.01665269  1.0
  Zn  Zn7  1  0.06044864  0.51664552  0.03951011  1.0
  H  H8  1  0.92671124  0.27156775  0.96727759  1.0
  H  H9  1  0.92571692  0.20855207  0.90468959  1.0
  H  H10  1  0.07429682  0.40469174  0.70851170  1.0
  H  H11  1  0.07331492  0.46729209  0.77151313  1.0
  H  H12  1  0.92267891  0.09916130  0.79376712  1.0
  H  H13  1  0.92258377  0.03685170  0.73052531  1.0
  H  H14  1  0.07736529  0.23052534  0.53682159  1.0
  H  H15  1  0.07726805  0.29377492  0.59912129  1.0
  H  H16  1  0.07330387  0.60603402  0.15513724  1.0
  H  H17  1  0.07429553  0.66961745  0.21715573  1.0
  H  H18  1  0.92571950  0.71718647  0.16959202  1.0
  H  H19  1  0.92670124  0.65516602  0.10601125  1.0
  H  H20  1  0.07727955  0.78350862  0.32357985  1.0
  H  H21  1  0.07737149  0.84685053  0.38578753  1.0
  H  H22  1  0.92258663  0.88573637  0.34689773  1.0
  H  H23  1  0.92268157  0.82352492  0.28355750  1.0
  H  H24  1  0.73263694  0.26947787  0.15314225  1.0
  H  H25  1  0.60708729  0.20623508  0.21647379  1.0
  H  H26  1  0.60708457  0.40084790  0.17644424  1.0
  H  H27  1  0.73263563  0.46315232  0.11423874  1.0
  H  H28  1  0.38677846  0.09531794  0.33041608  1.0
  H  H29  1  0.26117621  0.03272321  0.39400147  1.0
  H  H30  1  0.26117167  0.22844823  0.34487527  1.0
  H  H31  1  0.38677385  0.29145724  0.28285301  1.0
  H  H32  1  0.26737047  0.65316168  0.76946235  1.0
  H  H33  1  0.39292068  0.71650158  0.70621905  1.0
  H  H34  1  0.39289833  0.67644681  0.90086235  1.0
  H  H35  1  0.26734769  0.61423626  0.96316925  1.0
  H  H36  1  0.61323569  0.83042699  0.59530094  1.0
  H  H37  1  0.73883617  0.89401056  0.53271164  1.0
  H  H38  1  0.73881208  0.84485366  0.72846850  1.0
  H  H39  1  0.61321019  0.78283515  0.79147544  1.0
  C  C40  1  0.17916986  0.08958491  0.41041923  1.0
  C  C41  1  0.99999393  0.86397909  0.63602666  1.0
  C  C42  1  0.99999426  0.09264179  0.59263925  1.0
  C  C43  1  0.82082748  0.91042095  0.58959272  1.0
  C  C44  1  0.00000294  0.13602110  0.36397000  1.0
  C  C45  1  0.99999582  0.90735510  0.40736004  1.0
  C  C46  1  0.00001656  0.41043101  0.91039769  1.0
  C  C47  1  0.00000127  0.63602064  0.86397538  1.0
  C  C48  1  0.81471443  0.40735362  0.09265166  1.0
  C  C49  1  0.99999292  0.58958601  0.08958590  1.0
  C  C50  1  0.99999303  0.36397586  0.13602521  1.0
  C  C51  1  0.18528133  0.59264597  0.90735822  1.0
  C  C52  1  0.99999942  0.19461886  0.30537338  1.0
  C  C53  1  0.99999204  0.30538076  0.19462168  1.0
  C  C54  1  0.95666019  0.18061352  0.27788393  1.0
  C  C55  1  0.04149276  0.31938664  0.22395048  1.0
  C  C56  1  0.95849660  0.23455355  0.22210638  1.0
  C  C57  1  0.04333229  0.26544607  0.27604944  1.0
  C  C58  1  0.99999984  0.80538553  0.69462171  1.0
  C  C59  1  0.00000257  0.69462309  0.80538093  1.0
  C  C60  1  0.95666157  0.77605028  0.76545940  1.0
  C  C61  1  0.04150215  0.72211832  0.73454486  1.0
  C  C62  1  0.95850372  0.72395076  0.81939811  1.0
  C  C63  1  0.04333865  0.77789678  0.68060718  1.0
  C  C64  1  0.00001370  0.37307507  0.87303996  1.0
  C  C65  1  0.95850710  0.30007610  0.91063424  1.0
  C  C66  1  0.95815449  0.26510457  0.87584059  1.0
  C  C67  1  0.00000662  0.30244285  0.80241967  1.0
  C  C68  1  0.04186158  0.37585582  0.76506882  1.0
  C  C69  1  0.04151412  0.41065443  0.80003521  1.0
  C  C70  1  0.00000077  0.26689401  0.76687818  1.0
  C  C71  1  0.99999035  0.23618200  0.73616843  1.0
  C  C72  1  0.99998366  0.20064476  0.70062170  1.0
  C  C73  1  0.95627881  0.12770921  0.73749939  1.0
  C  C74  1  0.95621203  0.09302408  0.70241623  1.0
  C  C75  1  0.99997852  0.12999585  0.62998263  1.0
  C  C76  1  0.04374147  0.20242327  0.59299858  1.0
  C  C77  1  0.04367365  0.23751305  0.62767666  1.0
  C  C78  1  0.99999956  0.62695216  0.12693278  1.0
  C  C79  1  0.04150672  0.63087530  0.15842344  1.0
  C  C80  1  0.04185800  0.66602195  0.19304262  1.0
  C  C81  1  0.00000410  0.69758173  0.19755701  1.0
  C  C82  1  0.95815136  0.69306963  0.16599674  1.0
  C  C83  1  0.95850148  0.65845195  0.13084940  1.0
  C  C84  1  0.99999881  0.73311691  0.23311069  1.0
  C  C85  1  0.99999497  0.76381700  0.26383355  1.0
  C  C86  1  0.99998573  0.79934749  0.29938565  1.0
  C  C87  1  0.04367922  0.80617115  0.32862992  1.0
  C  C88  1  0.04374898  0.84133140  0.36323811  1.0
  C  C89  1  0.99998272  0.86999117  0.37002883  1.0
  C  C90  1  0.95621450  0.86319305  0.34137273  1.0
  C  C91  1  0.95628294  0.82857999  0.30621847  1.0
  C  C92  1  0.74001967  0.37000761  0.12999634  1.0
  C  C93  1  0.70456805  0.29758246  0.15865956  1.0
  C  C94  1  0.63479923  0.26249588  0.19381103  1.0
  C  C95  1  0.59873157  0.29936395  0.20063730  1.0
  C  C96  1  0.63479827  0.37229904  0.17139546  1.0
  C  C97  1  0.70456638  0.40697991  0.13678745  1.0
  C  C98  1  0.52765237  0.26382712  0.23617711  1.0
  C  C99  1  0.46622027  0.23311195  0.26690380  1.0
  C  C100  1  0.39513772  0.19756882  0.30244756  1.0
  C  C101  1  0.35906625  0.12415531  0.33401199  1.0
  C  C102  1  0.28930078  0.08935981  0.36916209  1.0
  C  C103  1  0.25388308  0.12694026  0.37307456  1.0
  C  C104  1  0.28929737  0.19993689  0.34158781  1.0
  C  C105  1  0.35906263  0.23490792  0.30696713  1.0
  C  C106  1  0.25997628  0.63000199  0.87000905  1.0
  C  C107  1  0.29543372  0.65867453  0.79757433  1.0
  C  C108  1  0.36520276  0.69382897  0.76248920  1.0
  C  C109  1  0.40126346  0.70064463  0.79936624  1.0
  C  C110  1  0.36518918  0.67139958  0.87230861  1.0
  C  C111  1  0.29542118  0.63678913  0.90699082  1.0
  C  C112  1  0.47234420  0.73618669  0.76382640  1.0
  C  C113  1  0.53378430  0.76690858  0.73310853  1.0
  C  C114  1  0.60486508  0.80245172  0.69756488  1.0
  C  C115  1  0.64094126  0.83401674  0.62414616  1.0
  C  C116  1  0.71070715  0.86916234  0.58935403  1.0
  C  C117  1  0.74611404  0.87307080  0.62694676  1.0
  C  C118  1  0.71069109  0.84157244  0.69995035  1.0
  C  C119  1  0.64092655  0.80695317  0.73491767  1.0
  N  N120  1  0.90609485  0.10713804  0.30844256  1.0
  N  N121  1  0.08440528  0.39285849  0.20104476  1.0
  N  N122  1  0.91557123  0.21454558  0.19155648  1.0
  N  N123  1  0.09390136  0.28545032  0.29895507  1.0
  N  N124  1  0.90609169  0.79894953  0.78548218  1.0
  N  N125  1  0.08441732  0.69156316  0.71452705  1.0
  N  N126  1  0.91558402  0.70103209  0.89288412  1.0
  N  N127  1  0.09390874  0.80846293  0.60712341  1.0
  O  O128  1  0.99999991  0.00000163  0.49999969  1.0
  O  O129  1  0.14994631  0.12760680  0.40599429  1.0
  O  O130  1  0.02177705  0.86981368  0.57721956  1.0
  O  O131  1  0.95405481  0.02866664  0.62719858  1.0
  O  O132  1  0.14994242  0.02233941  0.44406023  1.0
  O  O133  1  0.04594141  0.12719093  0.52866133  1.0
  O  O134  1  0.97820971  0.90099421  0.65198304  1.0
  O  O135  1  0.85004879  0.90600303  0.62761886  1.0
  O  O136  1  0.97822784  0.07722551  0.36979511  1.0
  O  O137  1  0.85006146  0.94406515  0.52234098  1.0
  O  O138  1  0.02178437  0.15197065  0.40099298  1.0
  O  O139  1  0.04594520  0.91876064  0.42537819  1.0
  O  O140  1  0.95405243  0.92538429  0.41875347  1.0
  O  O141  1  0.99999862  0.50000105  0.99999627  1.0
  O  O142  1  0.96640706  0.37240787  0.97764797  1.0
  O  O143  1  0.05297607  0.63019414  0.84802088  1.0
  O  O144  1  0.84413531  0.47132460  0.07462101  1.0
  O  O145  1  0.03362936  0.47767594  0.87237344  1.0
  O  O146  1  0.84413878  0.37280732  0.08125105  1.0
  O  O147  1  0.94702965  0.59899430  0.92277954  1.0
  O  O148  1  0.96638883  0.59399764  0.05594414  1.0
  O  O149  1  0.05295793  0.42278016  0.09900884  1.0
  O  O150  1  0.03359342  0.55594044  0.09400870  1.0
  O  O151  1  0.94702312  0.34802809  0.13019436  1.0
  O  O152  1  0.15586165  0.58125156  0.87280513  1.0
  O  O153  1  0.15584991  0.57461261  0.97133796  1.0
  O  O154  1  0.85899358  0.07765452  0.36762817  1.0
  O  O155  1  0.91513965  0.08385796  0.27051792  1.0
  O  O156  1  0.05469971  0.42232245  0.21868765  1.0
  O  O157  1  0.14561023  0.41615716  0.16869315  1.0
  O  O158  1  0.94527073  0.22662424  0.13237391  1.0
  O  O159  1  0.85436689  0.18567858  0.22948024  1.0
  O  O160  1  0.14100892  0.27338594  0.28131288  1.0
  O  O161  1  0.08485446  0.31431087  0.33130018  1.0
  O  O162  1  0.85899019  0.78132549  0.77340847  1.0
  O  O163  1  0.91513324  0.83127510  0.81436152  1.0
  O  O164  1  0.05471086  0.63238850  0.72660329  1.0
  O  O165  1  0.14562377  0.72947411  0.68565365  1.0
  O  O166  1  0.94528646  0.71865466  0.92235944  1.0
  O  O167  1  0.85437886  0.66869843  0.91617698  1.0
  O  O168  1  0.14100966  0.86763962  0.57764629  1.0
  O  O169  1  0.08486848  0.77055320  0.58382913  1.0
