# generated using pymatgen
data_ZnH8(C5N2)2
_symmetry_space_group_name_H-M   'P 1'
_cell_length_a   16.34630546
_cell_length_b   16.79660344
_cell_length_c   18.72545886
_cell_angle_alpha   91.15997766
_cell_angle_beta   91.79365222
_cell_angle_gamma   90.42465032
_symmetry_Int_Tables_number   1
_chemical_formula_structural   ZnH8(C5N2)2
_chemical_formula_sum   'Zn8 H64 C80 N32'
_cell_volume   5137.56845640
_cell_formula_units_Z   8
loop_
 _symmetry_equiv_pos_site_id
 _symmetry_equiv_pos_as_xyz
  1  'x, y, z'
loop_
 _atom_site_type_symbol
 _atom_site_label
 _atom_site_symmetry_multiplicity
 _atom_site_fract_x
 _atom_site_fract_y
 _atom_site_fract_z
 _atom_site_occupancy
  Zn  Zn0  1  0.35814629  0.45376566  0.01991039  1.0
  Zn  Zn1  1  0.48076528  0.59744542  0.98221180  1.0
  Zn  Zn2  1  0.63505910  0.47884228  0.96519986  1.0
  Zn  Zn3  1  0.50966480  0.32571666  0.99275149  1.0
  Zn  Zn4  1  0.88301863  0.04165441  0.47575651  1.0
  Zn  Zn5  1  0.00173750  0.21413899  0.48690033  1.0
  Zn  Zn6  1  0.11764770  0.08282238  0.47436132  1.0
  Zn  Zn7  1  0.01253813  0.89538846  0.51449217  1.0
  H  H8  1  0.26954058  0.42768264  0.85825105  1.0
  H  H9  1  0.13357621  0.37222351  0.42942313  1.0
  H  H10  1  0.24391339  0.00764845  0.35818911  1.0
  H  H11  1  0.93717449  0.76015881  0.40546856  1.0
  H  H12  1  0.13174942  0.01050816  0.64061820  1.0
  H  H13  1  0.85811883  0.33779130  0.52760955  1.0
  H  H14  1  0.77415447  0.03462423  0.61852627  1.0
  H  H15  1  0.04589542  0.69236250  0.54995179  1.0
  H  H16  1  0.60165362  0.74073283  0.22215541  1.0
  H  H17  1  0.90364632  0.33017778  0.12851575  1.0
  H  H18  1  0.47466826  0.26459142  0.30024286  1.0
  H  H19  1  0.54145255  0.75432678  0.88994060  1.0
  H  H20  1  0.25752564  0.63779630  0.26059737  1.0
  H  H21  1  0.39612080  0.61981546  0.70637485  1.0
  H  H22  1  0.10400169  0.25845163  0.90496467  1.0
  H  H23  1  0.54272338  0.22613030  0.68913869  1.0
  H  H24  1  0.77829335  0.68794162  0.75776372  1.0
  H  H25  1  0.03352713  0.22664609  0.79345663  1.0
  H  H26  1  0.31939821  0.70674895  0.63631096  1.0
  H  H27  1  0.84346544  0.77628525  0.68388371  1.0
  H  H28  1  0.61856407  0.18392257  0.58923097  1.0
  H  H29  1  0.97288924  0.27654605  0.23115772  1.0
  H  H30  1  0.63788159  0.47635989  0.79771674  1.0
  H  H31  1  0.67047400  0.82596067  0.30618914  1.0
  H  H32  1  0.20030661  0.72189570  0.35042180  1.0
  H  H33  1  0.39343374  0.23710591  0.40024020  1.0
  H  H34  1  0.74468131  0.62315696  0.23289286  1.0
  H  H35  1  0.79024397  0.18378993  0.13393796  1.0
  H  H36  1  0.39550748  0.42975969  0.29900899  1.0
  H  H37  1  0.28964888  0.78944951  0.17612410  1.0
  H  H38  1  0.23991618  0.52478954  0.73654510  1.0
  H  H39  1  0.24446580  0.15956958  0.84463140  1.0
  H  H40  1  0.63587768  0.38536918  0.68400250  1.0
  H  H41  1  0.39239293  0.18552684  0.91389726  1.0
  H  H42  1  0.66540767  0.82107539  0.80963206  1.0
  H  H43  1  0.15318010  0.08778870  0.77540913  1.0
  H  H44  1  0.16581570  0.60166790  0.64769449  1.0
  H  H45  1  0.74029791  0.91667183  0.73664012  1.0
  H  H46  1  0.71354191  0.34283552  0.60049912  1.0
  H  H47  1  0.89123860  0.11526242  0.19245743  1.0
  H  H48  1  0.81542092  0.71028355  0.30740704  1.0
  H  H49  1  0.27474258  0.86548338  0.27532914  1.0
  H  H50  1  0.28961661  0.38254230  0.35975771  1.0
  H  H51  1  0.74721549  0.59893769  0.85587574  1.0
  H  H52  1  0.72619538  0.50655569  0.12140156  1.0
  H  H53  1  0.48404397  0.26750092  0.82041719  1.0
  H  H54  1  0.19994962  0.33857732  0.98840520  1.0
  H  H55  1  0.45966464  0.60060115  0.81605659  1.0
  H  H56  1  0.24666107  0.55455570  0.14066512  1.0
  H  H57  1  0.54115887  0.29204250  0.16775580  1.0
  H  H58  1  0.80916851  0.39843212  0.03380182  1.0
  H  H59  1  0.52123467  0.66727373  0.14053170  1.0
  H  H60  1  0.29074489  0.16674093  0.44843357  1.0
  H  H61  1  0.11141648  0.79675274  0.41978752  1.0
  H  H62  1  0.74591647  0.93333115  0.37010326  1.0
  H  H63  1  0.39615137  0.74723189  0.06521019  1.0
  H  H64  1  0.06384817  0.21335668  0.33304981  1.0
  H  H65  1  0.71598640  0.11954134  0.51113838  1.0
  H  H66  1  0.95520366  0.85271827  0.66006563  1.0
  H  H67  1  0.23924605  0.82351858  0.66525588  1.0
  H  H68  1  0.99781684  0.23150381  0.66557882  1.0
  H  H69  1  0.38919876  0.50182139  0.18008510  1.0
  H  H70  1  0.64486623  0.19929210  0.06342206  1.0
  H  H71  1  0.88199488  0.02459614  0.31194515  1.0
  C  C72  1  0.32169751  0.46824558  0.85897419  1.0
  C  C73  1  0.16145433  0.31472958  0.43888406  1.0
  C  C74  1  0.20433764  0.96330418  0.38114478  1.0
  C  C75  1  0.89728841  0.81163586  0.40437881  1.0
  C  C76  1  0.09789331  0.06577348  0.63495178  1.0
  C  C77  1  0.83397403  0.27793020  0.51789621  1.0
  C  C78  1  0.82635281  0.99492974  0.62006825  1.0
  C  C79  1  0.08776290  0.73616736  0.57475221  1.0
  C  C80  1  0.69065606  0.62725202  0.87111594  1.0
  C  C81  1  0.52080740  0.32145685  0.82677078  1.0
  C  C82  1  0.25655072  0.30785580  0.97725075  1.0
  C  C83  1  0.58631069  0.70689394  0.88912719  1.0
  C  C84  1  0.41916422  0.55578085  0.83692845  1.0
  C  C85  1  0.28929252  0.59289554  0.11381808  1.0
  C  C86  1  0.50413109  0.34451368  0.15865457  1.0
  C  C87  1  0.75877759  0.35591848  0.03471142  1.0
  C  C88  1  0.56591684  0.62298599  0.12553338  1.0
  C  C89  1  0.24223862  0.21053351  0.44924155  1.0
  C  C90  1  0.13633528  0.85599533  0.41240630  1.0
  C  C91  1  0.79929843  0.89946022  0.38675207  1.0
  C  C92  1  0.02107516  0.16436692  0.33934809  1.0
  C  C93  1  0.76143073  0.16699491  0.50967887  1.0
  C  C94  1  0.59899082  0.42835641  0.81546208  1.0
  C  C95  1  0.91817877  0.90161482  0.64073838  1.0
  C  C96  1  0.18669051  0.80451626  0.63194999  1.0
  C  C97  1  0.02772474  0.17755143  0.64749616  1.0
  C  C98  1  0.34836161  0.51941995  0.80547820  1.0
  C  C99  1  0.65926428  0.70216775  0.85149483  1.0
  C  C100  1  0.56747758  0.36192540  0.77618964  1.0
  C  C101  1  0.26957320  0.24095775  0.93248383  1.0
  C  C102  1  0.64221871  0.60445560  0.15819999  1.0
  C  C103  1  0.31042845  0.67318900  0.12904673  1.0
  C  C104  1  0.46110799  0.39250171  0.20771556  1.0
  C  C105  1  0.35500042  0.23072433  0.93903084  1.0
  C  C106  1  0.75491989  0.28128543  0.06797290  1.0
  C  C107  1  0.96307955  0.13061392  0.29071435  1.0
  C  C108  1  0.24224913  0.28974514  0.42615241  1.0
  C  C109  1  0.19807637  0.88098553  0.36667955  1.0
  C  C110  1  0.82213092  0.82140336  0.36691185  1.0
  C  C111  1  0.07422303  0.12215428  0.68710124  1.0
  C  C112  1  0.75754633  0.24603983  0.53592344  1.0
  C  C113  1  0.84043544  0.92712659  0.66163801  1.0
  C  C114  1  0.16172126  0.72523344  0.61357386  1.0
  C  C115  1  0.66074178  0.71877469  0.24204909  1.0
  C  C116  1  0.67016984  0.54056799  0.11592104  1.0
  C  C117  1  0.88386983  0.27073458  0.14401983  1.0
  C  C118  1  0.43496006  0.31306462  0.31745323  1.0
  C  C119  1  0.25987759  0.70182970  0.25086989  1.0
  C  C120  1  0.33165935  0.60251038  0.69898385  1.0
  C  C121  1  0.13381257  0.21564878  0.86960683  1.0
  C  C122  1  0.58465324  0.27077759  0.66882698  1.0
  C  C123  1  0.75527813  0.74890301  0.76127271  1.0
  C  C124  1  0.08602564  0.18910568  0.80703605  1.0
  C  C125  1  0.28501449  0.65463074  0.65332983  1.0
  C  C126  1  0.79690240  0.80413451  0.71659505  1.0
  C  C127  1  0.36452410  0.69143665  0.07469996  1.0
  C  C128  1  0.63259197  0.24443529  0.60904090  1.0
  C  C129  1  0.93300113  0.23476599  0.20049382  1.0
  C  C130  1  0.70382177  0.77202732  0.29177912  1.0
  C  C131  1  0.23195234  0.75264207  0.30819678  1.0
  C  C132  1  0.37925242  0.29262379  0.37302864  1.0
  C  C133  1  0.68589706  0.64769572  0.21500245  1.0
  C  C134  1  0.81185349  0.24154316  0.11560331  1.0
  C  C135  1  0.43308176  0.38081565  0.27919364  1.0
  C  C136  1  0.28589349  0.72565946  0.18654453  1.0
  C  C137  1  0.30369380  0.54473383  0.74207926  1.0
  C  C138  1  0.42734581  0.45218157  0.16455498  1.0
  C  C139  1  0.21458711  0.20035261  0.88171362  1.0
  C  C140  1  0.59472327  0.34083475  0.70574759  1.0
  C  C141  1  0.69288949  0.76195794  0.80605574  1.0
  C  C142  1  0.10485060  0.12950115  0.76030599  1.0
  C  C143  1  0.20315192  0.65431433  0.63713245  1.0
  C  C144  1  0.78783427  0.88402459  0.70879319  1.0
  C  C145  1  0.69795609  0.28243635  0.58151346  1.0
  C  C146  1  0.92961298  0.15841736  0.22289672  1.0
  C  C147  1  0.78062935  0.76383176  0.32024327  1.0
  C  C148  1  0.23902664  0.83320325  0.31401783  1.0
  C  C149  1  0.67486458  0.25459797  0.04939024  1.0
  C  C150  1  0.30627087  0.32757603  0.38670158  1.0
  C  C151  1  0.92926315  0.06728555  0.32919619  1.0
  N  N152  1  0.37164043  0.47592152  0.91755797  1.0
  N  N153  1  0.11735789  0.25452449  0.46632604  1.0
  N  N154  1  0.15028465  0.98423037  0.43133422  1.0
  N  N155  1  0.91677994  0.87756830  0.44331333  1.0
  N  N156  1  0.06904078  0.08738872  0.56996986  1.0
  N  N157  1  0.87981089  0.22200572  0.48535463  1.0
  N  N158  1  0.88978381  0.00628459  0.57637105  1.0
  N  N159  1  0.07259995  0.81517858  0.57072366  1.0
  N  N160  1  0.64060521  0.59120846  0.91647631  1.0
  N  N161  1  0.52671074  0.36035091  0.89052188  1.0
  N  N162  1  0.32785953  0.33535841  0.00661642  1.0
  N  N163  1  0.57545246  0.64086390  0.92726566  1.0
  N  N164  1  0.43131077  0.52988122  0.90381561  1.0
  N  N165  1  0.32863133  0.56592909  0.05605017  1.0
  N  N166  1  0.49343779  0.37309278  0.09223848  1.0
  N  N167  1  0.68742097  0.37180850  0.00029230  1.0
  N  N168  1  0.55171341  0.57539897  0.06812241  1.0
  N  N169  1  0.16841021  0.19028261  0.47219318  1.0
  N  N170  1  0.10808362  0.91785508  0.45006085  1.0
  N  N171  1  0.85593377  0.93203098  0.43234994  1.0
  N  N172  1  0.01811151  0.12651131  0.40340928  1.0
  N  N173  1  0.83417501  0.15260562  0.48063410  1.0
  N  N174  1  0.57520402  0.42587898  0.88334221  1.0
  N  N175  1  0.94625308  0.94841447  0.58953847  1.0
  N  N176  1  0.13362903  0.85779650  0.60673294  1.0
  N  N177  1  0.02571289  0.15647766  0.57801000  1.0
  N  N178  1  0.38960122  0.28690371  0.98278642  1.0
  N  N179  1  0.61553308  0.52452541  0.06179358  1.0
  N  N180  1  0.37621182  0.62722200  0.03206008  1.0
  N  N181  1  0.44530655  0.43886574  0.09577088  1.0
  N  N182  1  0.63489889  0.30839921  0.00950425  1.0
  N  N183  1  0.96066939  0.06654115  0.39623126  1.0
