# generated using pymatgen
data_ZnH6(C3N2)2
_symmetry_space_group_name_H-M   'P 1'
_cell_length_a   9.72261348
_cell_length_b   23.65937869
_cell_length_c   41.72015283
_cell_angle_alpha   89.99992049
_cell_angle_beta   89.99984210
_cell_angle_gamma   89.99996496
_symmetry_Int_Tables_number   1
_chemical_formula_structural   ZnH6(C3N2)2
_chemical_formula_sum   'Zn24 H144 C144 N96'
_cell_volume   9596.92823277
_cell_formula_units_Z   24
loop_
 _symmetry_equiv_pos_site_id
 _symmetry_equiv_pos_as_xyz
  1  'x, y, z'
loop_
 _atom_site_type_symbol
 _atom_site_label
 _atom_site_symmetry_multiplicity
 _atom_site_fract_x
 _atom_site_fract_y
 _atom_site_fract_z
 _atom_site_occupancy
  Zn  Zn0  1  0.20259499  0.50257698  0.08334090  1.0
  Zn  Zn1  1  0.29740501  0.49742279  0.58334072  1.0
  Zn  Zn2  1  0.70259297  0.99742297  0.41665932  1.0
  Zn  Zn3  1  0.79740579  0.00257754  0.91665881  1.0
  Zn  Zn4  1  0.79740439  0.49742232  0.91665861  1.0
  Zn  Zn5  1  0.70259437  0.50257735  0.41665927  1.0
  Zn  Zn6  1  0.29740640  0.00257717  0.58334068  1.0
  Zn  Zn7  1  0.20259565  0.99742302  0.08334167  1.0
  Zn  Zn8  1  0.29975922  0.37575937  0.96084322  1.0
  Zn  Zn9  1  0.20023732  0.62423989  0.46084355  1.0
  Zn  Zn10  1  0.79976224  0.12424012  0.53915655  1.0
  Zn  Zn11  1  0.70024100  0.87575921  0.03915668  1.0
  Zn  Zn12  1  0.70024119  0.62424035  0.03915654  1.0
  Zn  Zn13  1  0.79976000  0.37575940  0.53915645  1.0
  Zn  Zn14  1  0.20023610  0.87575960  0.46084345  1.0
  Zn  Zn15  1  0.29976043  0.12424093  0.96084380  1.0
  Zn  Zn16  1  0.20468534  0.37644756  0.20814395  1.0
  Zn  Zn17  1  0.29531728  0.62355359  0.70814343  1.0
  Zn  Zn18  1  0.70468331  0.12355233  0.29185571  1.0
  Zn  Zn19  1  0.79531899  0.87644680  0.79185595  1.0
  Zn  Zn20  1  0.79531507  0.62355300  0.79185605  1.0
  Zn  Zn21  1  0.70468518  0.37644570  0.29185681  1.0
  Zn  Zn22  1  0.29531812  0.87644696  0.70814429  1.0
  Zn  Zn23  1  0.20468244  0.12355335  0.20814381  1.0
  H  H24  1  0.20070605  0.47585786  0.00741118  1.0
  H  H25  1  0.29929999  0.52414379  0.50741194  1.0
  H  H26  1  0.70069767  0.02414458  0.49258871  1.0
  H  H27  1  0.79930328  0.97585575  0.99258864  1.0
  H  H28  1  0.79930156  0.52414355  0.99258809  1.0
  H  H29  1  0.70069733  0.47585593  0.49258902  1.0
  H  H30  1  0.29930171  0.97585641  0.50741152  1.0
  H  H31  1  0.20070021  0.02414439  0.00741232  1.0
  H  H32  1  0.37165904  0.31685448  0.02911988  1.0
  H  H33  1  0.12833645  0.68314542  0.52912038  1.0
  H  H34  1  0.87166508  0.18314495  0.47087942  1.0
  H  H35  1  0.62833715  0.81685458  0.97087958  1.0
  H  H36  1  0.62833931  0.68314524  0.97087939  1.0
  H  H37  1  0.87166293  0.31685556  0.47087937  1.0
  H  H38  1  0.12833635  0.81685477  0.52912009  1.0
  H  H39  1  0.37166223  0.18314640  0.02912066  1.0
  H  H40  1  0.32925237  0.37630441  0.08558683  1.0
  H  H41  1  0.17074142  0.62369535  0.58558735  1.0
  H  H42  1  0.82925608  0.12369461  0.41441275  1.0
  H  H43  1  0.67074373  0.87630634  0.91441307  1.0
  H  H44  1  0.67074495  0.62369446  0.91441269  1.0
  H  H45  1  0.82925487  0.37630648  0.41441289  1.0
  H  H46  1  0.17074329  0.87630469  0.58558725  1.0
  H  H47  1  0.32925667  0.12369592  0.08558765  1.0
  H  H48  1  0.12272528  0.40677052  0.13518138  1.0
  H  H49  1  0.37727307  0.59322997  0.63518059  1.0
  H  H50  1  0.62272551  0.09322982  0.36481929  1.0
  H  H51  1  0.87727387  0.90677040  0.86481849  1.0
  H  H52  1  0.87727101  0.59323005  0.86481861  1.0
  H  H53  1  0.62272734  0.40677017  0.36481964  1.0
  H  H54  1  0.37727284  0.90676990  0.63518095  1.0
  H  H55  1  0.12272551  0.09322974  0.13518150  1.0
  H  H56  1  0.40495966  0.48321874  0.19829440  1.0
  H  H57  1  0.09504411  0.51678117  0.69829506  1.0
  H  H58  1  0.90495561  0.01678111  0.30170512  1.0
  H  H59  1  0.59504348  0.98321842  0.80170469  1.0
  H  H60  1  0.59504280  0.51678056  0.80170463  1.0
  H  H61  1  0.90495835  0.48321897  0.30170566  1.0
  H  H62  1  0.09504273  0.98321861  0.69829487  1.0
  H  H63  1  0.40495795  0.01678130  0.19829531  1.0
  H  H64  1  0.40234955  0.54242366  0.14058055  1.0
  H  H65  1  0.09764976  0.45757681  0.64058124  1.0
  H  H66  1  0.90234828  0.95757582  0.35941883  1.0
  H  H67  1  0.59764911  0.04242315  0.85941817  1.0
  H  H68  1  0.59764880  0.45757606  0.85941873  1.0
  H  H69  1  0.90235064  0.54242333  0.35941947  1.0
  H  H70  1  0.09765007  0.04242306  0.64058117  1.0
  H  H71  1  0.40235027  0.95757657  0.14058158  1.0
  H  H72  1  0.47818056  0.52586205  0.04538241  1.0
  H  H73  1  0.02181782  0.47413782  0.54538314  1.0
  H  H74  1  0.97817608  0.97413657  0.45461692  1.0
  H  H75  1  0.52182224  0.02586301  0.95461704  1.0
  H  H76  1  0.52181985  0.47413767  0.95461758  1.0
  H  H77  1  0.97817641  0.52586359  0.45461709  1.0
  H  H78  1  0.02182227  0.02586358  0.54538332  1.0
  H  H79  1  0.47818125  0.97413840  0.04538272  1.0
  H  H80  1  0.45436362  0.69649287  0.07370464  1.0
  H  H81  1  0.04563751  0.30350692  0.57370453  1.0
  H  H82  1  0.95435870  0.80350617  0.42629447  1.0
  H  H83  1  0.54563789  0.19649390  0.92629444  1.0
  H  H84  1  0.54563884  0.30350685  0.92629536  1.0
  H  H85  1  0.95435878  0.69649406  0.42629451  1.0
  H  H86  1  0.04563965  0.19649355  0.57370529  1.0
  H  H87  1  0.45436354  0.80350751  0.07370460  1.0
  H  H88  1  0.21847533  0.64003154  0.09365648  1.0
  H  H89  1  0.28152660  0.35996735  0.59365570  1.0
  H  H90  1  0.71847056  0.85996713  0.40634349  1.0
  H  H91  1  0.78152730  0.14003341  0.90634312  1.0
  H  H92  1  0.78152714  0.35996860  0.90634399  1.0
  H  H93  1  0.71846969  0.64003321  0.40634334  1.0
  H  H94  1  0.28152985  0.14003301  0.59365603  1.0
  H  H95  1  0.21847413  0.85996843  0.09365616  1.0
  H  H96  1  0.99179635  0.42606787  0.96253952  1.0
  H  H97  1  0.50820495  0.57393295  0.46253953  1.0
  H  H98  1  0.49179983  0.07393115  0.53746012  1.0
  H  H99  1  0.00820379  0.92606662  0.03746058  1.0
  H  H100  1  0.00820508  0.57393227  0.03746095  1.0
  H  H101  1  0.49179751  0.42606846  0.53745974  1.0
  H  H102  1  0.50820366  0.92606688  0.46253963  1.0
  H  H103  1  0.99179764  0.07393183  0.96254038  1.0
  H  H104  1  0.08318514  0.50941982  0.87587567  1.0
  H  H105  1  0.41681549  0.49057923  0.37587668  1.0
  H  H106  1  0.58318661  0.99057894  0.62412361  1.0
  H  H107  1  0.91681460  0.00941892  0.12412428  1.0
  H  H108  1  0.91681630  0.49058033  0.12412481  1.0
  H  H109  1  0.58318491  0.50942091  0.62412331  1.0
  H  H110  1  0.41681482  0.00942036  0.37587663  1.0
  H  H111  1  0.08318787  0.99057996  0.87587692  1.0
  H  H112  1  0.31734740  0.45433759  0.89787937  1.0
  H  H113  1  0.18265297  0.54566183  0.39788001  1.0
  H  H114  1  0.81734876  0.04566232  0.60212087  1.0
  H  H115  1  0.68265270  0.95433770  0.10212047  1.0
  H  H116  1  0.68265301  0.54566298  0.10212111  1.0
  H  H117  1  0.81734640  0.45433789  0.60212023  1.0
  H  H118  1  0.18265267  0.95433698  0.39787961  1.0
  H  H119  1  0.31734976  0.04566286  0.89788001  1.0
  H  H120  1  0.48984206  0.33159889  0.23903782  1.0
  H  H121  1  0.01015917  0.66840177  0.73903696  1.0
  H  H122  1  0.98983724  0.16839671  0.26096214  1.0
  H  H123  1  0.51016131  0.83159827  0.76096260  1.0
  H  H124  1  0.51015732  0.66840125  0.76096242  1.0
  H  H125  1  0.98984123  0.33159922  0.26096279  1.0
  H  H126  1  0.01016522  0.83160259  0.73903762  1.0
  H  H127  1  0.48984012  0.16840145  0.23903740  1.0
  H  H128  1  0.45378438  0.46282711  0.30679760  1.0
  H  H129  1  0.04621604  0.53717296  0.80679730  1.0
  H  H130  1  0.95378056  0.03716892  0.19320142  1.0
  H  H131  1  0.54621674  0.96282792  0.69320271  1.0
  H  H132  1  0.54621603  0.53717219  0.69320216  1.0
  H  H133  1  0.95378436  0.46282761  0.19320269  1.0
  H  H134  1  0.04622087  0.96283037  0.80679833  1.0
  H  H135  1  0.45378470  0.03717223  0.30679776  1.0
  H  H136  1  0.22135019  0.46156510  0.26783425  1.0
  H  H137  1  0.27864966  0.53843463  0.76783428  1.0
  H  H138  1  0.72134489  0.03843140  0.23216444  1.0
  H  H139  1  0.77865195  0.96156576  0.73216558  1.0
  H  H140  1  0.77865021  0.53843419  0.73216527  1.0
  H  H141  1  0.72134868  0.46156551  0.23216595  1.0
  H  H142  1  0.27865655  0.96156874  0.76783556  1.0
  H  H143  1  0.22134845  0.03843396  0.26783489  1.0
  H  H144  1  0.37696683  0.24999948  0.98098171  1.0
  H  H145  1  0.12303050  0.74999973  0.48098463  1.0
  H  H146  1  0.87696888  0.24999956  0.51901632  1.0
  H  H147  1  0.62303152  0.74999982  0.01901876  1.0
  H  H148  1  0.07896191  0.30885829  0.91587153  1.0
  H  H149  1  0.42102694  0.69114236  0.41587094  1.0
  H  H150  1  0.57896533  0.19114168  0.58412790  1.0
  H  H151  1  0.92103841  0.80885796  0.08412842  1.0
  H  H152  1  0.92103850  0.69114185  0.08412895  1.0
  H  H153  1  0.57896524  0.30885736  0.58412786  1.0
  H  H154  1  0.42102582  0.80885762  0.41587090  1.0
  H  H155  1  0.07896097  0.19114260  0.91587133  1.0
  H  H156  1  0.17585764  0.25000042  0.23473667  1.0
  H  H157  1  0.32414364  0.74999982  0.73473627  1.0
  H  H158  1  0.67585882  0.24999948  0.26526396  1.0
  H  H159  1  0.82414380  0.74999845  0.76526428  1.0
  H  H160  1  0.29572508  0.30873368  0.14365904  1.0
  H  H161  1  0.20427625  0.69126848  0.64365805  1.0
  H  H162  1  0.79572527  0.19126619  0.35634151  1.0
  H  H163  1  0.70426907  0.80873320  0.85634139  1.0
  H  H164  1  0.70426401  0.69126985  0.85634167  1.0
  H  H165  1  0.79572827  0.30873039  0.35634219  1.0
  H  H166  1  0.20427514  0.80873310  0.64365824  1.0
  H  H167  1  0.29572723  0.19126905  0.14365813  1.0
  C  C168  1  0.24123419  0.44051836  0.02109330  1.0
  C  C169  1  0.25876448  0.55948241  0.52109381  1.0
  C  C170  1  0.74123106  0.05948237  0.47890657  1.0
  C  C171  1  0.75877005  0.94051757  0.97890679  1.0
  C  C172  1  0.75876930  0.55948178  0.97890645  1.0
  C  C173  1  0.74122872  0.44051816  0.47890690  1.0
  C  C174  1  0.25876729  0.94051777  0.52109367  1.0
  C  C175  1  0.24123447  0.05948257  0.02109417  1.0
  C  C176  1  0.32957360  0.35878965  0.03287586  1.0
  C  C177  1  0.17042082  0.64121025  0.53287613  1.0
  C  C178  1  0.82957872  0.14120937  0.46712372  1.0
  C  C179  1  0.67042253  0.85879060  0.96712381  1.0
  C  C180  1  0.67042372  0.64120965  0.96712318  1.0
  C  C181  1  0.82957855  0.35879116  0.46712315  1.0
  C  C182  1  0.17042066  0.85879077  0.53287580  1.0
  C  C183  1  0.32957890  0.14121081  0.03287619  1.0
  C  C184  1  0.30814604  0.38813654  0.06095749  1.0
  C  C185  1  0.19184702  0.61186286  0.56095824  1.0
  C  C186  1  0.80814845  0.11186333  0.43904210  1.0
  C  C187  1  0.69185004  0.88813755  0.93904216  1.0
  C  C188  1  0.69184922  0.61186403  0.93904227  1.0
  C  C189  1  0.80814825  0.38813770  0.43904223  1.0
  C  C190  1  0.19184990  0.88813723  0.56095766  1.0
  C  C191  1  0.30815036  0.11186386  0.06095832  1.0
  C  C192  1  0.19960474  0.43575055  0.14452000  1.0
  C  C193  1  0.30039453  0.56425034  0.64451952  1.0
  C  C194  1  0.69960410  0.06424935  0.35548038  1.0
  C  C195  1  0.80039334  0.93575005  0.85547985  1.0
  C  C196  1  0.80039156  0.56424917  0.85548000  1.0
  C  C197  1  0.69960793  0.43574938  0.35548095  1.0
  C  C198  1  0.30039425  0.93574953  0.64451938  1.0
  C  C199  1  0.19960604  0.06424967  0.14452038  1.0
  C  C200  1  0.34620604  0.47602543  0.17656128  1.0
  C  C201  1  0.15379695  0.52397538  0.67656165  1.0
  C  C202  1  0.84620070  0.02397528  0.32343900  1.0
  C  C203  1  0.65379608  0.97602462  0.82343853  1.0
  C  C204  1  0.65379642  0.52397429  0.82343847  1.0
  C  C205  1  0.84620551  0.47602476  0.32343906  1.0
  C  C206  1  0.15379559  0.97602444  0.67656124  1.0
  C  C207  1  0.34620432  0.02397510  0.17656146  1.0
  C  C208  1  0.34491744  0.50531068  0.14798851  1.0
  C  C209  1  0.15508281  0.49468978  0.64798890  1.0
  C  C210  1  0.84491312  0.99468924  0.35201162  1.0
  C  C211  1  0.65508127  0.00530975  0.85201048  1.0
  C  C212  1  0.65508193  0.49468946  0.85201101  1.0
  C  C213  1  0.84491965  0.50530952  0.35201181  1.0
  C  C214  1  0.15508214  0.00530922  0.64798861  1.0
  C  C215  1  0.34491811  0.99468997  0.14798904  1.0
  C  C216  1  0.43964042  0.56489519  0.05575102  1.0
  C  C217  1  0.06035990  0.43510507  0.55575152  1.0
  C  C218  1  0.93963715  0.93510428  0.44424833  1.0
  C  C219  1  0.56036129  0.06489574  0.94424792  1.0
  C  C220  1  0.56035896  0.43510538  0.94424874  1.0
  C  C221  1  0.93963742  0.56489549  0.44424800  1.0
  C  C222  1  0.06036223  0.06489544  0.55575166  1.0
  C  C223  1  0.43964117  0.93510567  0.05575135  1.0
  C  C224  1  0.42425551  0.65265994  0.07068095  1.0
  C  C225  1  0.07574668  0.34733944  0.57068102  1.0
  C  C226  1  0.92425049  0.84733868  0.42931818  1.0
  C  C227  1  0.57574504  0.15266138  0.92931817  1.0
  C  C228  1  0.57574592  0.34733978  0.92931881  1.0
  C  C229  1  0.92425269  0.65266113  0.42931777  1.0
  C  C230  1  0.07574786  0.15266146  0.57068158  1.0
  C  C231  1  0.42425537  0.84734046  0.07068111  1.0
  C  C232  1  0.30759754  0.62461441  0.08067712  1.0
  C  C233  1  0.19240248  0.37538452  0.58067662  1.0
  C  C234  1  0.80759362  0.87538340  0.41932256  1.0
  C  C235  1  0.69240305  0.12461584  0.91932249  1.0
  C  C236  1  0.69240286  0.37538531  0.91932287  1.0
  C  C237  1  0.80759381  0.62461562  0.41932241  1.0
  C  C238  1  0.19240575  0.12461632  0.58067672  1.0
  C  C239  1  0.30759838  0.87538557  0.08067726  1.0
  C  C240  1  0.04896869  0.44168043  0.94199148  1.0
  C  C241  1  0.45103116  0.55831930  0.44199217  1.0
  C  C242  1  0.54897262  0.05831870  0.55800797  1.0
  C  C243  1  0.95103246  0.94167889  0.05800885  1.0
  C  C244  1  0.95103275  0.55831971  0.05800900  1.0
  C  C245  1  0.54897027  0.44168168  0.55800782  1.0
  C  C246  1  0.45103087  0.94167975  0.44199178  1.0
  C  C247  1  0.04897000  0.05831956  0.94199258  1.0
  C  C248  1  0.09879709  0.48418793  0.89728475  1.0
  C  C249  1  0.40120329  0.51581106  0.39728575  1.0
  C  C250  1  0.59879849  0.01581118  0.60271466  1.0
  C  C251  1  0.90120400  0.98418588  0.10271530  1.0
  C  C252  1  0.90120537  0.51581263  0.10271572  1.0
  C  C253  1  0.59879609  0.48418908  0.60271424  1.0
  C  C254  1  0.40120397  0.98418769  0.39728533  1.0
  C  C255  1  0.09879847  0.01581257  0.89728589  1.0
  C  C256  1  0.21489237  0.45675354  0.90810396  1.0
  C  C257  1  0.28510891  0.54324543  0.40810477  1.0
  C  C258  1  0.71489386  0.04324597  0.59189610  1.0
  C  C259  1  0.78510875  0.95675239  0.09189612  1.0
  C  C260  1  0.78511009  0.54324702  0.09189652  1.0
  C  C261  1  0.71489150  0.45675429  0.59189546  1.0
  C  C262  1  0.28510860  0.95675291  0.40810413  1.0
  C  C263  1  0.21489371  0.04324649  0.90810484  1.0
  C  C264  1  0.44828831  0.36711545  0.25239635  1.0
  C  C265  1  0.05171070  0.63288433  0.75239598  1.0
  C  C266  1  0.94828679  0.13287931  0.24760315  1.0
  C  C267  1  0.55171501  0.86711528  0.74760356  1.0
  C  C268  1  0.55171004  0.63288343  0.74760341  1.0
  C  C269  1  0.94828867  0.36711624  0.24760426  1.0
  C  C270  1  0.05171567  0.86712040  0.75239636  1.0
  C  C271  1  0.44828848  0.13288318  0.25239620  1.0
  C  C272  1  0.42664161  0.43514678  0.28704769  1.0
  C  C273  1  0.07336111  0.56485376  0.78704760  1.0
  C  C274  1  0.92663649  0.06484968  0.21295135  1.0
  C  C275  1  0.57336366  0.93514669  0.71295240  1.0
  C  C276  1  0.57335982  0.56485294  0.71295183  1.0
  C  C277  1  0.92664136  0.43514723  0.21295312  1.0
  C  C278  1  0.07336494  0.93514962  0.78704841  1.0
  C  C279  1  0.42664086  0.06485303  0.28704759  1.0
  C  C280  1  0.31183926  0.43472669  0.26766764  1.0
  C  C281  1  0.18816266  0.56527305  0.76766748  1.0
  C  C282  1  0.81183494  0.06526853  0.23233123  1.0
  C  C283  1  0.68816498  0.93472737  0.73233221  1.0
  C  C284  1  0.68816115  0.56527219  0.73233235  1.0
  C  C285  1  0.81183672  0.43472709  0.23233252  1.0
  C  C286  1  0.18816650  0.93473119  0.76766853  1.0
  C  C287  1  0.31183851  0.06527193  0.26766755  1.0
  C  C288  1  0.29514428  0.24999951  0.96326321  1.0
  C  C289  1  0.20485326  0.74999974  0.46326463  1.0
  C  C290  1  0.79514406  0.24999955  0.53673584  1.0
  C  C291  1  0.70485407  0.74999936  0.03673727  1.0
  C  C292  1  0.14077650  0.27915376  0.92948676  1.0
  C  C293  1  0.35921321  0.72084600  0.42948691  1.0
  C  C294  1  0.64077901  0.22084619  0.57051239  1.0
  C  C295  1  0.85922386  0.77915349  0.07051369  1.0
  C  C296  1  0.85922287  0.72084596  0.07051395  1.0
  C  C297  1  0.64077897  0.27915330  0.57051237  1.0
  C  C298  1  0.35921214  0.77915396  0.42948689  1.0
  C  C299  1  0.14077655  0.22084623  0.92948654  1.0
  C  C300  1  0.20807957  0.25000045  0.20980794  1.0
  C  C301  1  0.29192303  0.74999985  0.70980780  1.0
  C  C302  1  0.70808252  0.24999944  0.29019219  1.0
  C  C303  1  0.79191980  0.74999927  0.79019254  1.0
  C  C304  1  0.27022156  0.27913356  0.16260602  1.0
  C  C305  1  0.22977955  0.72086855  0.66260523  1.0
  C  C306  1  0.77022296  0.22086548  0.33739431  1.0
  C  C307  1  0.72977366  0.77913270  0.83739443  1.0
  C  C308  1  0.72976959  0.72086912  0.83739517  1.0
  C  C309  1  0.77022497  0.27913032  0.33739453  1.0
  C  C310  1  0.22977950  0.77913255  0.66260544  1.0
  C  C311  1  0.27022469  0.22086956  0.16260532  1.0
  N  N312  1  0.25181037  0.43996590  0.05328541  1.0
  N  N313  1  0.24818689  0.56003437  0.55328593  1.0
  N  N314  1  0.75180763  0.06003483  0.44671445  1.0
  N  N315  1  0.74819078  0.93996561  0.94671467  1.0
  N  N316  1  0.74819003  0.56003425  0.94671458  1.0
  N  N317  1  0.75180734  0.43996577  0.44671526  1.0
  N  N318  1  0.24818969  0.93996531  0.55328555  1.0
  N  N319  1  0.25181168  0.06003538  0.05328628  1.0
  N  N320  1  0.28699978  0.39229056  0.00766239  1.0
  N  N321  1  0.21299597  0.60770939  0.50766289  1.0
  N  N322  1  0.78700053  0.10770973  0.49233746  1.0
  N  N323  1  0.71300247  0.89229017  0.99233726  1.0
  N  N324  1  0.71300269  0.60770831  0.99233713  1.0
  N  N325  1  0.78699826  0.39229202  0.49233734  1.0
  N  N326  1  0.21299782  0.89229041  0.50766254  1.0
  N  N327  1  0.28700102  0.10771082  0.00766346  1.0
  N  N328  1  0.25160214  0.47947234  0.12779184  1.0
  N  N329  1  0.24839630  0.52052817  0.62779143  1.0
  N  N330  1  0.75160239  0.02052670  0.37220851  1.0
  N  N331  1  0.74839484  0.97947181  0.87220774  1.0
  N  N332  1  0.74839210  0.52052738  0.87220816  1.0
  N  N333  1  0.75160514  0.47947071  0.37220881  1.0
  N  N334  1  0.24839596  0.97947091  0.62779173  1.0
  N  N335  1  0.25160557  0.02052749  0.12779226  1.0
  N  N336  1  0.25377827  0.43193215  0.17414044  1.0
  N  N337  1  0.24622270  0.56806867  0.67413999  1.0
  N  N338  1  0.75377695  0.06806774  0.32585942  1.0
  N  N339  1  0.74622187  0.93193173  0.82585894  1.0
  N  N340  1  0.74622008  0.56806757  0.82585884  1.0
  N  N341  1  0.75377976  0.43193105  0.32586048  1.0
  N  N342  1  0.24622140  0.93193114  0.67413985  1.0
  N  N343  1  0.25377957  0.06806798  0.17414106  1.0
  N  N344  1  0.31826350  0.56889275  0.07112900  1.0
  N  N345  1  0.18173664  0.43110705  0.57112894  1.0
  N  N346  1  0.81826041  0.93110590  0.42887091  1.0
  N  N347  1  0.68173924  0.06889416  0.92887042  1.0
  N  N348  1  0.68173588  0.43110739  0.92887100  1.0
  N  N349  1  0.81825965  0.56889394  0.42887058  1.0
  N  N350  1  0.18173897  0.06889424  0.57112860  1.0
  N  N351  1  0.31826426  0.93110767  0.07112933  1.0
  N  N352  1  0.50749869  0.61445438  0.05487466  1.0
  N  N353  1  0.99250129  0.38554533  0.55487492  1.0
  N  N354  1  0.00749378  0.88554477  0.44512473  1.0
  N  N355  1  0.49250089  0.11445622  0.94512448  1.0
  N  N356  1  0.49250275  0.38554534  0.94512509  1.0
  N  N357  1  0.00749603  0.61445566  0.44512411  1.0
  N  N358  1  0.99250457  0.11445537  0.55487575  1.0
  N  N359  1  0.50749848  0.88554646  0.05487480  1.0
  N  N360  1  0.18242256  0.42989651  0.93651015  1.0
  N  N361  1  0.31757941  0.57010282  0.43651093  1.0
  N  N362  1  0.68242435  0.07010301  0.56348945  1.0
  N  N363  1  0.81757861  0.92989626  0.06348994  1.0
  N  N364  1  0.81757990  0.57010363  0.06349008  1.0
  N  N365  1  0.68242202  0.42989733  0.56348907  1.0
  N  N366  1  0.31757812  0.92989587  0.43651031  1.0
  N  N367  1  0.18242283  0.07010304  0.93651149  1.0
  N  N368  1  0.99401717  0.47441873  0.91891382  1.0
  N  N369  1  0.50598054  0.52558093  0.41891483  1.0
  N  N370  1  0.49402123  0.02557986  0.58108534  1.0
  N  N371  1  0.00598393  0.97441695  0.08108648  1.0
  N  N372  1  0.00598324  0.52558141  0.08108641  1.0
  N  N373  1  0.49401884  0.47442005  0.58108492  1.0
  N  N374  1  0.50598123  0.97441859  0.41891466  1.0
  N  N375  1  0.99402059  0.02558192  0.91891496  1.0
  N  N376  1  0.32639826  0.39138957  0.24574707  1.0
  N  N377  1  0.17360288  0.60861065  0.74574736  1.0
  N  N378  1  0.82639362  0.10860650  0.25425179  1.0
  N  N379  1  0.67360604  0.89138935  0.75425209  1.0
  N  N380  1  0.67360214  0.60860973  0.75425244  1.0
  N  N381  1  0.82639649  0.39138991  0.25425311  1.0
  N  N382  1  0.17360782  0.89139322  0.74574773  1.0
  N  N383  1  0.32639642  0.10860995  0.24574742  1.0
  N  N384  1  0.51269469  0.39203787  0.27722101  1.0
  N  N385  1  0.98730572  0.60796214  0.77722062  1.0
  N  N386  1  0.01269078  0.10795742  0.22277877  1.0
  N  N387  1  0.48730961  0.89203778  0.72277935  1.0
  N  N388  1  0.48730468  0.60796100  0.72277875  1.0
  N  N389  1  0.01269571  0.39203927  0.22277986  1.0
  N  N390  1  0.98730963  0.89204187  0.77722099  1.0
  N  N391  1  0.51269388  0.10796110  0.27722064  1.0
  N  N392  1  0.23915217  0.29729621  0.95102092  1.0
  N  N393  1  0.26084242  0.70270350  0.45102235  1.0
  N  N394  1  0.73915497  0.20270371  0.54897769  1.0
  N  N395  1  0.76084713  0.79729602  0.04897952  1.0
  N  N396  1  0.76084617  0.70270351  0.04897980  1.0
  N  N397  1  0.73915387  0.29729538  0.54897789  1.0
  N  N398  1  0.26084133  0.79729601  0.45102207  1.0
  N  N399  1  0.23915224  0.20270413  0.95102072  1.0
  N  N400  1  0.23065999  0.29733984  0.19268214  1.0
  N  N401  1  0.26934385  0.70266178  0.69268181  1.0
  N  N402  1  0.73066177  0.20266048  0.30731798  1.0
  N  N403  1  0.76934035  0.79733862  0.80731734  1.0
  N  N404  1  0.76933527  0.70266115  0.80731786  1.0
  N  N405  1  0.73066170  0.29733794  0.30731746  1.0
  N  N406  1  0.26934172  0.79733840  0.69268202  1.0
  N  N407  1  0.23065903  0.20266195  0.19268241  1.0
