# generated using pymatgen
data_AlH6C16Cl3O5
_symmetry_space_group_name_H-M   'P 1'
_cell_length_a   6.68775240
_cell_length_b   23.76339168
_cell_length_c   26.03089204
_cell_angle_alpha   78.52513980
_cell_angle_beta   89.99990497
_cell_angle_gamma   89.99920643
_symmetry_Int_Tables_number   1
_chemical_formula_structural   AlH6C16Cl3O5
_chemical_formula_sum   'Al4 H24 C64 Cl12 O20'
_cell_volume   4054.23665125
_cell_formula_units_Z   4
loop_
 _symmetry_equiv_pos_site_id
 _symmetry_equiv_pos_as_xyz
  1  'x, y, z'
loop_
 _atom_site_type_symbol
 _atom_site_label
 _atom_site_symmetry_multiplicity
 _atom_site_fract_x
 _atom_site_fract_y
 _atom_site_fract_z
 _atom_site_occupancy
  Al  Al0  1  0.78817023  0.25017467  0.74987235  1.0
  Al  Al1  1  0.21183161  0.74982661  0.25012676  1.0
  Al  Al2  1  0.28817117  0.24982533  0.75012736  1.0
  Al  Al3  1  0.71183367  0.75017494  0.24987254  1.0
  H  H4  1  0.05754947  0.64973027  0.01893978  1.0
  H  H5  1  0.94244939  0.35026942  0.98106090  1.0
  H  H6  1  0.55754728  0.85026973  0.48105988  1.0
  H  H7  1  0.44245008  0.14973054  0.51894002  1.0
  H  H8  1  0.87596493  0.50888326  0.14232806  1.0
  H  H9  1  0.12403243  0.49111508  0.85767302  1.0
  H  H10  1  0.37596609  0.99111602  0.35767285  1.0
  H  H11  1  0.62402977  0.00888375  0.64232744  1.0
  H  H12  1  0.73075153  0.43221969  0.98911348  1.0
  H  H13  1  0.26925331  0.56777915  0.01088721  1.0
  H  H14  1  0.23074710  0.06777938  0.51088779  1.0
  H  H15  1  0.76925026  0.93222124  0.48911250  1.0
  H  H16  1  0.30684390  0.54522123  0.45585924  1.0
  H  H17  1  0.69315047  0.45477930  0.54413948  1.0
  H  H18  1  0.80685085  0.95484257  0.04419547  1.0
  H  H19  1  0.19314950  0.04515661  0.95580364  1.0
  H  H20  1  0.33506284  0.46505996  0.53383631  1.0
  H  H21  1  0.66492854  0.53494057  0.46616241  1.0
  H  H22  1  0.83505596  0.03500882  0.96622271  1.0
  H  H23  1  0.16494589  0.96499045  0.03377602  1.0
  H  H24  1  0.53733684  0.32537984  0.74271194  1.0
  H  H25  1  0.46266351  0.67462137  0.25728756  1.0
  H  H26  1  0.03734424  0.17462029  0.75728812  1.0
  H  H27  1  0.96265611  0.82538058  0.24271099  1.0
  C  C28  1  0.53887582  0.17359383  0.82671411  1.0
  C  C29  1  0.46112602  0.82640687  0.17328579  1.0
  C  C30  1  0.03887355  0.32640646  0.67328712  1.0
  C  C31  1  0.96112381  0.67359491  0.32671355  1.0
  C  C32  1  0.53847358  0.18826574  0.68684727  1.0
  C  C33  1  0.46153425  0.81173546  0.31315223  1.0
  C  C34  1  0.03848181  0.31173311  0.81315279  1.0
  C  C35  1  0.96152303  0.68826607  0.18684829  1.0
  C  C36  1  0.01630778  0.66909335  0.09546928  1.0
  C  C37  1  0.98369407  0.33090490  0.90453219  1.0
  C  C38  1  0.51630385  0.83090523  0.40453194  1.0
  C  C39  1  0.48369799  0.16909454  0.59546835  1.0
  C  C40  1  0.01805369  0.63260171  0.05963994  1.0
  C  C41  1  0.98194816  0.36739755  0.94036075  1.0
  C  C42  1  0.51804790  0.86739795  0.44036011  1.0
  C  C43  1  0.48195245  0.13260233  0.55963979  1.0
  C  C44  1  0.96667565  0.57454162  0.07588727  1.0
  C  C45  1  0.03332769  0.42545722  0.92411341  1.0
  C  C46  1  0.46667208  0.92545786  0.42411286  1.0
  C  C47  1  0.53332379  0.07454233  0.57588742  1.0
  C  C48  1  0.91313784  0.55387672  0.12834726  1.0
  C  C49  1  0.08686251  0.44612204  0.87165382  1.0
  C  C50  1  0.41313804  0.94612282  0.37165365  1.0
  C  C51  1  0.58686231  0.05387737  0.62834664  1.0
  C  C52  1  0.91058297  0.59113713  0.16339558  1.0
  C  C53  1  0.08942037  0.40886129  0.83660510  1.0
  C  C54  1  0.41057161  0.90886250  0.33660493  1.0
  C  C55  1  0.58942725  0.09113853  0.66339535  1.0
  C  C56  1  0.96206083  0.64924280  0.14794293  1.0
  C  C57  1  0.03794699  0.35075503  0.85205854  1.0
  C  C58  1  0.46204762  0.85075738  0.35205798  1.0
  C  C59  1  0.53795124  0.14924374  0.64794191  1.0
  C  C60  1  0.82975415  0.49593365  0.03121312  1.0
  C  C61  1  0.17024769  0.50406561  0.96878757  1.0
  C  C62  1  0.32975205  0.00406617  0.46878796  1.0
  C  C63  1  0.67024680  0.99593487  0.53121233  1.0
  C  C64  1  0.85177207  0.46127263  0.99427997  1.0
  C  C65  1  0.14823128  0.53872638  0.00572189  1.0
  C  C66  1  0.35176902  0.03872678  0.50572132  1.0
  C  C67  1  0.64822685  0.96127316  0.49427818  1.0
  C  C68  1  0.02152752  0.46414276  0.96213435  1.0
  C  C69  1  0.97847283  0.53585659  0.03786595  1.0
  C  C70  1  0.52152709  0.03585684  0.53786649  1.0
  C  C71  1  0.47846878  0.96414234  0.46213459  1.0
  C  C72  1  0.18913007  0.48064618  0.51874939  1.0
  C  C73  1  0.81086280  0.51935434  0.48124933  1.0
  C  C74  1  0.68913282  0.01938939  0.98128268  1.0
  C  C75  1  0.31087052  0.98060962  0.01871526  1.0
  C  C76  1  0.01582276  0.45478730  0.54399837  1.0
  C  C77  1  0.98417011  0.54521281  0.45600035  1.0
  C  C78  1  0.51583190  0.04521494  0.95600206  1.0
  C  C79  1  0.48416845  0.95478416  0.04399745  1.0
  C  C80  1  0.82640109  0.47489942  0.52449796  1.0
  C  C81  1  0.17359477  0.52510178  0.47550154  1.0
  C  C82  1  0.32640097  0.02506704  0.97546898  1.0
  C  C83  1  0.67359788  0.97493197  0.02452897  1.0
  C  C84  1  0.02989271  0.40962846  0.58835251  1.0
  C  C85  1  0.97010016  0.59037232  0.41164699  1.0
  C  C86  1  0.52989248  0.09037187  0.91165067  1.0
  C  C87  1  0.47010488  0.90962706  0.08834766  1.0
  C  C88  1  0.96268879  0.62900124  0.37314597  1.0
  C  C89  1  0.03731156  0.37099879  0.62685510  1.0
  C  C90  1  0.46268316  0.87099540  0.12685574  1.0
  C  C91  1  0.53732317  0.12900453  0.87314377  1.0
  Cl  Cl92  1  0.07899538  0.74054465  0.07426509  1.0
  Cl  Cl93  1  0.92100347  0.25945445  0.92573638  1.0
  Cl  Cl94  1  0.57899320  0.75945468  0.42573537  1.0
  Cl  Cl95  1  0.42100715  0.24054568  0.57426414  1.0
  Cl  Cl96  1  0.84766694  0.56418798  0.22822913  1.0
  Cl  Cl97  1  0.15233341  0.43581087  0.77177155  1.0
  Cl  Cl98  1  0.34766510  0.93581326  0.27177097  1.0
  Cl  Cl99  1  0.65233525  0.06418735  0.72822931  1.0
  Cl  Cl100  1  0.60802650  0.49005106  0.06647153  1.0
  Cl  Cl101  1  0.39197684  0.50994779  0.93352915  1.0
  Cl  Cl102  1  0.10802280  0.00994876  0.43352989  1.0
  Cl  Cl103  1  0.89197606  0.99005177  0.56647079  1.0
  O  O104  1  0.36849984  0.20162208  0.70230943  1.0
  O  O105  1  0.63150051  0.79837962  0.29768968  1.0
  O  O106  1  0.86849045  0.29837801  0.79769030  1.0
  O  O107  1  0.13152336  0.70162294  0.20231038  1.0
  O  O108  1  0.70929296  0.19090186  0.80814170  1.0
  O  O109  1  0.29071038  0.80909918  0.19185859  1.0
  O  O110  1  0.20927944  0.30909898  0.69185956  1.0
  O  O111  1  0.79072689  0.69090180  0.30814190  1.0
  O  O112  1  0.70833446  0.20308986  0.70107042  1.0
  O  O113  1  0.29166739  0.79691083  0.29892947  1.0
  O  O114  1  0.20832400  0.29690845  0.79893084  1.0
  O  O115  1  0.79168981  0.70309006  0.20107141  1.0
  O  O116  1  0.86818392  0.30917268  0.69171522  1.0
  O  O117  1  0.13181942  0.69082919  0.30828310  1.0
  O  O118  1  0.36819929  0.19082590  0.80828373  1.0
  O  O119  1  0.63180106  0.80917311  0.19171421  1.0
  O  O120  1  0.53793441  0.28395732  0.74698683  1.0
  O  O121  1  0.46206743  0.71604379  0.25301306  1.0
  O  O122  1  0.03793242  0.21604263  0.75301401  1.0
  O  O123  1  0.96206793  0.78395823  0.24698510  1.0
