# generated using pymatgen
data_Zr6H19C54S10O32F5
_symmetry_space_group_name_H-M   'P 1'
_cell_length_a   16.45802015
_cell_length_b   16.45740852
_cell_length_c   16.45636633
_cell_angle_alpha   119.71837776
_cell_angle_beta   91.13643722
_cell_angle_gamma   60.28692340
_symmetry_Int_Tables_number   1
_chemical_formula_structural   Zr6H19C54S10O32F5
_chemical_formula_sum   'Zr6 H19 C54 S10 O32 F5'
_cell_volume   3207.78477420
_cell_formula_units_Z   1
loop_
 _symmetry_equiv_pos_site_id
 _symmetry_equiv_pos_as_xyz
  1  'x, y, z'
loop_
 _atom_site_type_symbol
 _atom_site_label
 _atom_site_symmetry_multiplicity
 _atom_site_fract_x
 _atom_site_fract_y
 _atom_site_fract_z
 _atom_site_occupancy
  Zr  Zr0  1  0.09703933  0.51473587  0.40266733  1.0
  Zr  Zr1  1  0.89706410  0.49112060  0.60253773  1.0
  Zr  Zr2  1  0.10622047  0.29096615  0.39321326  1.0
  Zr  Zr3  1  0.88801581  0.71410379  0.61131853  1.0
  Zr  Zr4  1  0.10630795  0.50250437  0.61125195  1.0
  Zr  Zr5  1  0.88839551  0.50249116  0.39309864  1.0
  H  H6  1  0.24702152  0.34538023  0.42291015  1.0
  H  H7  1  0.91763561  0.66024153  0.75232928  1.0
  H  H8  1  0.91782073  0.32768857  0.41086409  1.0
  H  H9  1  0.90572350  0.67799708  0.42292402  1.0
  H  H10  1  0.38786236  0.51269691  0.63807058  1.0
  H  H11  1  0.87241840  0.49102820  0.10159461  1.0
  H  H12  1  0.87445512  0.01525986  0.88332514  1.0
  H  H13  1  0.60457564  0.01467183  0.63617753  1.0
  H  H14  1  0.36177099  0.03059152  0.13082823  1.0
  H  H15  1  0.34472876  0.30746737  0.15050898  1.0
  H  H16  1  0.62539586  0.97563812  0.86734563  1.0
  H  H17  1  0.64486500  0.69878402  0.85003514  1.0
  H  H18  1  0.12360736  0.76861534  0.38964934  1.0
  H  H19  1  0.55367602  0.75631940  0.02220435  1.0
  H  H20  1  0.42993840  0.87228927  0.07098420  1.0
  H  H21  1  0.47484587  0.75592969  0.94775359  1.0
  H  H22  1  0.51660978  0.25026185  0.05941850  1.0
  H  H23  1  0.56560648  0.13401796  0.93573173  1.0
  H  H24  1  0.44234611  0.25037794  0.98037026  1.0
  C  C25  1  0.26076663  0.52119151  0.51552233  1.0
  C  C26  1  0.01098556  0.48428319  0.76560551  1.0
  C  C27  1  0.72715750  0.49813101  0.49548181  1.0
  C  C28  1  0.99126905  0.50730559  0.23196990  1.0
  C  C29  1  0.25885944  0.25397678  0.23464262  1.0
  C  C30  1  0.99326299  0.78293279  0.51406863  1.0
  C  C31  1  0.72908026  0.75239408  0.76427719  1.0
  C  C32  1  0.00798017  0.22384342  0.49955042  1.0
  C  C33  1  0.26907163  0.23153111  0.50411552  1.0
  C  C34  1  0.00258049  0.23205772  0.22306517  1.0
  C  C35  1  0.71830232  0.77327153  0.50691897  1.0
  C  C36  1  0.99974543  0.77376040  0.77383612  1.0
  C  C37  1  0.57709601  0.51032817  0.43756957  1.0
  C  C38  1  0.40693818  0.51472104  0.57652118  1.0
  C  C39  1  0.63549594  0.50408644  0.49905468  1.0
  C  C40  1  0.35050089  0.52012633  0.51368596  1.0
  C  C41  1  0.48948278  0.51165333  0.54857551  1.0
  C  C42  1  0.49359812  0.51473886  0.46467163  1.0
  C  C43  1  0.07220179  0.48967829  0.91255085  1.0
  C  C44  1  0.93408826  0.49271598  0.08222867  1.0
  C  C45  1  0.01052187  0.48391214  0.85432981  1.0
  C  C46  1  0.99608705  0.50001328  0.13938610  1.0
  C  C47  1  0.96247982  0.48857012  0.99913358  1.0
  C  C48  1  0.04590989  0.49255846  0.99536146  1.0
  C  C49  1  0.06960351  0.02636044  0.08329534  1.0
  C  C50  1  0.93653437  0.97859536  0.90770596  1.0
  C  C51  1  0.00406937  0.14266570  0.13340266  1.0
  C  C52  1  0.00239879  0.86309621  0.86017239  1.0
  C  C53  1  0.96158939  0.03792319  0.98901477  1.0
  C  C54  1  0.04651945  0.96550042  0.00115634  1.0
  C  C55  1  0.40527876  0.02561716  0.44036842  1.0
  C  C56  1  0.58012656  0.97789216  0.57418351  1.0
  C  C57  1  0.35538023  0.14193402  0.50575885  1.0
  C  C58  1  0.62860884  0.86240607  0.50744555  1.0
  C  C59  1  0.49839567  0.03713039  0.54950032  1.0
  C  C60  1  0.48676511  0.96470036  0.46407164  1.0
  C  C61  1  0.39231830  0.05887128  0.10085135  1.0
  C  C62  1  0.38273578  0.21618738  0.11171769  1.0
  C  C63  1  0.46437850  0.14475658  0.03108754  1.0
  C  C64  1  0.51247393  0.02502769  0.98165325  1.0
  C  C65  1  0.59535259  0.94738559  0.89785420  1.0
  C  C66  1  0.60611589  0.79005743  0.88807033  1.0
  C  C67  1  0.52547601  0.86153524  0.96976656  1.0
  C  C68  1  0.47611958  0.98126898  0.01794075  1.0
  C  C69  1  0.34628727  0.17391482  0.14667155  1.0
  C  C70  1  0.64111886  0.83234195  0.85168498  1.0
  C  C71  1  0.94226724  0.15248077  0.57010936  1.0
  C  C72  1  0.06443263  0.85283592  0.44895471  1.0
  C  C73  1  0.00827437  0.13696444  0.50381105  1.0
  C  C74  1  0.99668128  0.87095223  0.51512820  1.0
  C  C75  1  0.04451699  0.95602630  0.46954616  1.0
  C  C76  1  0.96174841  0.05040874  0.55160246  1.0
  C  C77  1  0.49343372  0.81021223  0.00528052  1.0
  C  C78  1  0.49978335  0.19624596  0.99914463  1.0
  S  S79  1  0.58754322  0.50371140  0.59223205  1.0
  S  S80  1  0.39647233  0.52165640  0.42037034  1.0
  S  S81  1  0.91854018  0.48118728  0.90128126  1.0
  S  S82  1  0.08946755  0.50123313  0.09319604  1.0
  S  S83  1  0.91218252  0.17846580  0.07848430  1.0
  S  S84  1  0.09547690  0.82527947  0.91313635  1.0
  S  S85  1  0.40912630  0.17768567  0.59878837  1.0
  S  S86  1  0.57557381  0.82450994  0.41443390  1.0
  S  S87  1  0.09653149  0.99445421  0.41724594  1.0
  S  S88  1  0.90862613  0.01279091  0.60326615  1.0
  O  O89  1  0.22266695  0.52502874  0.44792966  1.0
  O  O90  1  0.94254931  0.48156247  0.72856082  1.0
  O  O91  1  0.76578783  0.49180560  0.56214158  1.0
  O  O92  1  0.05703584  0.51477855  0.27162294  1.0
  O  O93  1  0.22829643  0.21377354  0.26592103  1.0
  O  O94  1  0.92488979  0.81394456  0.58002581  1.0
  O  O95  1  0.76039738  0.79273337  0.73375745  1.0
  O  O96  1  0.07434095  0.19198322  0.43101674  1.0
  O  O97  1  0.23663680  0.33352972  0.57340039  1.0
  O  O98  1  0.93182482  0.33399058  0.25714134  1.0
  O  O99  1  0.75310258  0.67124608  0.43629963  1.0
  O  O100  1  0.06867559  0.67162645  0.74084851  1.0
  O  O101  1  0.07125601  0.20045919  0.26052762  1.0
  O  O102  1  0.75461577  0.80600868  0.57646088  1.0
  O  O103  1  0.92778651  0.80628629  0.74009839  1.0
  O  O104  1  0.23416043  0.20025317  0.43292896  1.0
  O  O105  1  0.22096073  0.35928335  0.27428742  1.0
  O  O106  1  0.93888336  0.32574858  0.56537688  1.0
  O  O107  1  0.76873040  0.64718408  0.72631282  1.0
  O  O108  1  0.05962939  0.68147504  0.44471452  1.0
  O  O109  1  0.92217608  0.50679158  0.26537564  1.0
  O  O110  1  0.22965480  0.51594077  0.58219226  1.0
  O  O111  1  0.07735201  0.48947566  0.73370889  1.0
  O  O112  1  0.76129129  0.49869132  0.42675409  1.0
  O  O113  1  0.93070487  0.62873888  0.44604123  1.0
  O  O114  1  0.94085027  0.37704280  0.43588126  1.0
  O  O115  1  0.94114389  0.61516915  0.68129180  1.0
  O  O116  1  0.17598609  0.39089874  0.44656318  1.0
  O  O117  1  0.04623823  0.41025455  0.54386927  1.0
  O  O118  1  0.03859820  0.59586970  0.55179340  1.0
  O  O119  1  0.86541840  0.58547331  0.54331965  1.0
  O  O120  1  0.03824512  0.42026638  0.37067874  1.0
  F  F121  1  0.59664249  0.51165927  0.35943666  1.0
  F  F122  1  0.14919899  0.49326378  0.89408909  1.0
  F  F123  1  0.14756079  0.97436928  0.10909892  1.0
  F  F124  1  0.38045211  0.97371017  0.36143230  1.0
  F  F125  1  0.86630985  0.25319543  0.64469826  1.0
