# generated using pymatgen
data_AlH19C20N2O11F2
_symmetry_space_group_name_H-M   'P 1'
_cell_length_a   7.03486595
_cell_length_b   22.79791146
_cell_length_c   24.96902307
_cell_angle_alpha   89.99975729
_cell_angle_beta   89.99990559
_cell_angle_gamma   89.99999420
_symmetry_Int_Tables_number   1
_chemical_formula_structural   AlH19C20N2O11F2
_chemical_formula_sum   'Al4 H76 C80 N8 O44 F8'
_cell_volume   4004.53818867
_cell_formula_units_Z   4
loop_
 _symmetry_equiv_pos_site_id
 _symmetry_equiv_pos_as_xyz
  1  'x, y, z'
loop_
 _atom_site_type_symbol
 _atom_site_label
 _atom_site_symmetry_multiplicity
 _atom_site_fract_x
 _atom_site_fract_y
 _atom_site_fract_z
 _atom_site_occupancy
  Al  Al0  1  0.76071286  0.75222212  0.74924757  1.0
  Al  Al1  1  0.23929157  0.24777751  0.24924524  1.0
  Al  Al2  1  0.26071045  0.74777784  0.75075408  1.0
  Al  Al3  1  0.73929257  0.25222222  0.25075327  1.0
  H  H4  1  0.75510653  0.55873596  0.37841725  1.0
  H  H5  1  0.52861182  0.54762478  0.41043426  1.0
  H  H6  1  0.59603316  0.50290941  0.35451502  1.0
  H  H7  1  0.42297800  0.52144184  0.52830561  1.0
  H  H8  1  0.50549418  0.47546382  0.58186202  1.0
  H  H9  1  0.49161328  0.55334286  0.59154507  1.0
  H  H10  1  0.24488800  0.44126657  0.87841566  1.0
  H  H11  1  0.47138414  0.45237541  0.91043040  1.0
  H  H12  1  0.40396421  0.49709104  0.85451186  1.0
  H  H13  1  0.57702777  0.47856232  0.02830127  1.0
  H  H14  1  0.49451873  0.52453922  0.08185959  1.0
  H  H15  1  0.50838826  0.44666057  0.09154053  1.0
  H  H16  1  0.25511098  0.94126414  0.12158212  1.0
  H  H17  1  0.02861767  0.95237575  0.08956333  1.0
  H  H18  1  0.09603330  0.99708981  0.14548451  1.0
  H  H19  1  0.92297459  0.97856163  0.97169549  1.0
  H  H20  1  0.00548067  0.02453970  0.91813779  1.0
  H  H21  1  0.99160988  0.94666325  0.90845515  1.0
  H  H22  1  0.74487493  0.05873257  0.62158112  1.0
  H  H23  1  0.97137533  0.04762681  0.58956616  1.0
  H  H24  1  0.90396115  0.00291074  0.64548517  1.0
  H  H25  1  0.07702424  0.02144573  0.47169899  1.0
  H  H26  1  0.99449256  0.97546834  0.41814476  1.0
  H  H27  1  0.00838467  0.05334616  0.40845901  1.0
  H  H28  1  0.88425466  0.63846679  0.44648058  1.0
  H  H29  1  0.76442009  0.69493459  0.48392092  1.0
  H  H30  1  0.63181488  0.64829183  0.44001987  1.0
  H  H31  1  0.54617586  0.36243891  0.43087914  1.0
  H  H32  1  0.40151072  0.35056356  0.48944980  1.0
  H  H33  1  0.60078670  0.39991544  0.49239927  1.0
  H  H34  1  0.11574274  0.36153279  0.94647581  1.0
  H  H35  1  0.23558016  0.30506525  0.98391665  1.0
  H  H36  1  0.36818394  0.35170866  0.94001490  1.0
  H  H37  1  0.45380305  0.63755505  0.93087739  1.0
  H  H38  1  0.59846680  0.64943933  0.98944627  1.0
  H  H39  1  0.39921214  0.60008129  0.99239972  1.0
  H  H40  1  0.38427196  0.86152629  0.05351948  1.0
  H  H41  1  0.26443317  0.80506024  0.01607765  1.0
  H  H42  1  0.13183219  0.85170081  0.05998403  1.0
  H  H43  1  0.04619907  0.13755774  0.06911996  1.0
  H  H44  1  0.90153163  0.14943485  0.01055096  1.0
  H  H45  1  0.10079998  0.10008033  0.00759978  1.0
  H  H46  1  0.61569260  0.13846767  0.55352470  1.0
  H  H47  1  0.73552001  0.19493609  0.51608334  1.0
  H  H48  1  0.86812953  0.14830013  0.55998977  1.0
  H  H49  1  0.95381525  0.86244009  0.56912167  1.0
  H  H50  1  0.09847698  0.85055843  0.51055113  1.0
  H  H51  1  0.89921432  0.89991560  0.50760020  1.0
  H  H52  1  0.92393413  0.75490924  0.54821559  1.0
  H  H53  1  0.86567148  0.77042146  0.61699121  1.0
  H  H54  1  0.69144071  0.78113353  0.56610181  1.0
  H  H55  1  0.41223294  0.44938970  0.30940812  1.0
  H  H56  1  0.24997401  0.39848642  0.27942635  1.0
  H  H57  1  0.49624879  0.38062469  0.28258057  1.0
  H  H58  1  0.07604607  0.24508562  0.04820783  1.0
  H  H59  1  0.13431159  0.22957571  0.11698345  1.0
  H  H60  1  0.30853950  0.21886125  0.06609393  1.0
  H  H61  1  0.58776725  0.55061228  0.80940458  1.0
  H  H62  1  0.75002049  0.60151921  0.77942365  1.0
  H  H63  1  0.50374713  0.61937960  0.78258085  1.0
  H  H64  1  0.42396164  0.74509116  0.95178831  1.0
  H  H65  1  0.36570324  0.72958025  0.88301234  1.0
  H  H66  1  0.19147392  0.71886292  0.93390070  1.0
  H  H67  1  0.91223270  0.05061135  0.19059543  1.0
  H  H68  1  0.74998083  0.10151813  0.22057776  1.0
  H  H69  1  0.99625985  0.11937723  0.21742010  1.0
  H  H70  1  0.57604145  0.25491453  0.45179004  1.0
  H  H71  1  0.63430409  0.27042533  0.38301356  1.0
  H  H72  1  0.80853769  0.28113716  0.43390251  1.0
  H  H73  1  0.08777314  0.94938943  0.69058482  1.0
  H  H74  1  0.25003070  0.89848645  0.72057160  1.0
  H  H75  1  0.00375310  0.88062517  0.71741904  1.0
  H  H76  1  0.51522420  0.68614114  0.71501860  1.0
  H  H77  1  0.48478306  0.31385864  0.21501619  1.0
  H  H78  1  0.01522458  0.81386013  0.78498248  1.0
  H  H79  1  0.98477419  0.18613889  0.28498449  1.0
  C  C80  1  0.50489131  0.82904816  0.68547693  1.0
  C  C81  1  0.49142435  0.18809950  0.32606202  1.0
  C  C82  1  0.49510315  0.17094913  0.18547585  1.0
  C  C83  1  0.50856021  0.81190284  0.82606075  1.0
  C  C84  1  0.00490178  0.67094960  0.81452337  1.0
  C  C85  1  0.99144800  0.31189760  0.17393545  1.0
  C  C86  1  0.99511120  0.32905060  0.31452201  1.0
  C  C87  1  0.00858199  0.68809711  0.67394194  1.0
  C  C88  1  0.00332959  0.64628111  0.62816290  1.0
  C  C89  1  0.01774786  0.37786944  0.35491043  1.0
  C  C90  1  0.99666200  0.35371426  0.12815864  1.0
  C  C91  1  0.98224524  0.62212970  0.85490903  1.0
  C  C92  1  0.50333764  0.85372016  0.87183699  1.0
  C  C93  1  0.51776032  0.12213072  0.14508789  1.0
  C  C94  1  0.49665120  0.14628065  0.37183722  1.0
  C  C95  1  0.48224834  0.87786676  0.64508880  1.0
  C  C96  1  0.12779396  0.59818986  0.62703594  1.0
  C  C97  1  0.86757214  0.41325862  0.37208123  1.0
  C  C98  1  0.87221469  0.40180682  0.12703121  1.0
  C  C99  1  0.13242523  0.58673868  0.87207638  1.0
  C  C100  1  0.62778491  0.90181053  0.87296264  1.0
  C  C101  1  0.36757552  0.08674155  0.12791916  1.0
  C  C102  1  0.37220678  0.09819115  0.37296316  1.0
  C  C103  1  0.63243029  0.91325776  0.62791858  1.0
  C  C104  1  0.11873766  0.55366745  0.58851430  1.0
  C  C105  1  0.87617499  0.45284284  0.41483733  1.0
  C  C106  1  0.88126245  0.44633292  0.08850979  1.0
  C  C107  1  0.12382239  0.54715820  0.91483424  1.0
  C  C108  1  0.61873284  0.94633382  0.91148669  1.0
  C  C109  1  0.37618408  0.04715776  0.08516426  1.0
  C  C110  1  0.38126313  0.05366593  0.41148858  1.0
  C  C111  1  0.62383308  0.95283912  0.58516313  1.0
  C  C112  1  0.97472126  0.55759072  0.54935576  1.0
  C  C113  1  0.04729353  0.45561056  0.44457056  1.0
  C  C114  1  0.02527741  0.44240896  0.04935569  1.0
  C  C115  1  0.95270671  0.54439210  0.94456989  1.0
  C  C116  1  0.47472726  0.94240968  0.95064529  1.0
  C  C117  1  0.54730461  0.04438959  0.05543014  1.0
  C  C118  1  0.52526588  0.05758900  0.45064262  1.0
  C  C119  1  0.45270970  0.95560611  0.55542957  1.0
  C  C120  1  0.84923484  0.60577496  0.54866487  1.0
  C  C121  1  0.20766192  0.42333484  0.42652338  1.0
  C  C122  1  0.15076383  0.39422384  0.04866006  1.0
  C  C123  1  0.79234258  0.57666571  0.92652395  1.0
  C  C124  1  0.34924088  0.89422368  0.95133790  1.0
  C  C125  1  0.70767013  0.07666444  0.07347716  1.0
  C  C126  1  0.65074941  0.10577719  0.45134053  1.0
  C  C127  1  0.29234703  0.92333074  0.57347487  1.0
  C  C128  1  0.86381933  0.65025088  0.58735392  1.0
  C  C129  1  0.19657287  0.38985162  0.37926970  1.0
  C  C130  1  0.13617510  0.34974556  0.08734609  1.0
  C  C131  1  0.80343019  0.61014915  0.87926853  1.0
  C  C132  1  0.36382824  0.84974909  0.91265004  1.0
  C  C133  1  0.69657965  0.11014898  0.12073125  1.0
  C  C134  1  0.63616346  0.15025021  0.41265332  1.0
  C  C135  1  0.30343185  0.88984642  0.62073028  1.0
  C  C136  1  0.64758780  0.52606627  0.39014029  1.0
  C  C137  1  0.42586790  0.51526617  0.57187520  1.0
  C  C138  1  0.35241100  0.47393313  0.89013687  1.0
  C  C139  1  0.57413504  0.48473516  0.07187365  1.0
  C  C140  1  0.14759363  0.97393426  0.10985878  1.0
  C  C141  1  0.92586874  0.98473730  0.92812228  1.0
  C  C142  1  0.85240649  0.02606558  0.60986021  1.0
  C  C143  1  0.07412723  0.01526807  0.42812862  1.0
  C  C144  1  0.75225925  0.65023536  0.46777300  1.0
  C  C145  1  0.48677032  0.38277709  0.46696944  1.0
  C  C146  1  0.24773815  0.34976500  0.96776855  1.0
  C  C147  1  0.51321856  0.61722152  0.96696932  1.0
  C  C148  1  0.25227940  0.84976123  0.03222798  1.0
  C  C149  1  0.98678274  0.11722089  0.03303043  1.0
  C  C150  1  0.74768800  0.15023941  0.53223383  1.0
  C  C151  1  0.01322588  0.88277580  0.53303016  1.0
  C  C152  1  0.81116866  0.75365028  0.57879273  1.0
  C  C153  1  0.37997222  0.40271307  0.30307117  1.0
  C  C154  1  0.18881297  0.24634532  0.07878446  1.0
  C  C155  1  0.62002512  0.59729245  0.80306982  1.0
  C  C156  1  0.31119332  0.74634968  0.92121127  1.0
  C  C157  1  0.87997762  0.09729061  0.19692920  1.0
  C  C158  1  0.68880692  0.25365265  0.42121210  1.0
  C  C159  1  0.12003533  0.90270838  0.69692515  1.0
  N  N160  1  0.94039795  0.51159668  0.51273849  1.0
  N  N161  1  0.08119750  0.49836570  0.48375061  1.0
  N  N162  1  0.05961066  0.48840536  0.01273702  1.0
  N  N163  1  0.91880986  0.50163634  0.98374934  1.0
  N  N164  1  0.44040107  0.98840240  0.98726379  1.0
  N  N165  1  0.58120719  0.00163402  0.01625046  1.0
  N  N166  1  0.55960345  0.01159216  0.48726046  1.0
  N  N167  1  0.41880711  0.99836406  0.51625096  1.0
  O  O168  1  0.34740860  0.79484386  0.80846386  1.0
  O  O169  1  0.64925107  0.19403454  0.20154204  1.0
  O  O170  1  0.65259443  0.20515549  0.30846130  1.0
  O  O171  1  0.35077467  0.80596925  0.70154415  1.0
  O  O172  1  0.84739683  0.70515391  0.69154131  1.0
  O  O173  1  0.14923582  0.30597307  0.29845215  1.0
  O  O174  1  0.15259337  0.29483590  0.19153048  1.0
  O  O175  1  0.85075868  0.69403159  0.79845661  1.0
  O  O176  1  0.67278791  0.81323440  0.69931963  1.0
  O  O177  1  0.32932175  0.20251138  0.30775298  1.0
  O  O178  1  0.32723499  0.18675975  0.19932186  1.0
  O  O179  1  0.67068555  0.79749016  0.80775001  1.0
  O  O180  1  0.17277420  0.68676336  0.80068251  1.0
  O  O181  1  0.82931699  0.29748966  0.19225025  1.0
  O  O182  1  0.82721888  0.31323558  0.30068177  1.0
  O  O183  1  0.17068031  0.70250935  0.69225052  1.0
  O  O184  1  0.51310759  0.71413399  0.74442739  1.0
  O  O185  1  0.48689826  0.28586654  0.24442588  1.0
  O  O186  1  0.01310656  0.78586640  0.75557450  1.0
  O  O187  1  0.98689503  0.21413319  0.25557640  1.0
  O  O188  1  0.72545143  0.48657134  0.42929365  1.0
  O  O189  1  0.23477969  0.50578850  0.59185888  1.0
  O  O190  1  0.27455592  0.51342876  0.92929135  1.0
  O  O191  1  0.76523606  0.49420835  0.09185710  1.0
  O  O192  1  0.22545486  0.01342970  0.07070608  1.0
  O  O193  1  0.73477056  0.99421321  0.90814160  1.0
  O  O194  1  0.77455235  0.98656769  0.57070548  1.0
  O  O195  1  0.26521119  0.00578830  0.40814338  1.0
  O  O196  1  0.71263379  0.60848276  0.50931057  1.0
  O  O197  1  0.37188395  0.43276064  0.45372940  1.0
  O  O198  1  0.28736487  0.39151667  0.00930364  1.0
  O  O199  1  0.62812340  0.56724110  0.95373056  1.0
  O  O200  1  0.21264269  0.89151413  0.99069553  1.0
  O  O201  1  0.87189501  0.06723821  0.04627059  1.0
  O  O202  1  0.78733340  0.10848524  0.49069803  1.0
  O  O203  1  0.12812357  0.93275579  0.54626802  1.0
  O  O204  1  0.73565339  0.69514315  0.58322317  1.0
  O  O205  1  0.36187098  0.37422788  0.35495793  1.0
  O  O206  1  0.26433534  0.30485110  0.08321220  1.0
  O  O207  1  0.63812354  0.62577213  0.85495685  1.0
  O  O208  1  0.23566519  0.80485242  0.91678251  1.0
  O  O209  1  0.86188201  0.12577141  0.14504407  1.0
  O  O210  1  0.76432651  0.19515037  0.41678509  1.0
  O  O211  1  0.13813234  0.87422344  0.64504171  1.0
  F  F212  1  0.70190871  0.41106330  0.34535700  1.0
  F  F213  1  0.25997702  0.59164531  0.66634019  1.0
  F  F214  1  0.29808154  0.58893017  0.84534798  1.0
  F  F215  1  0.74002454  0.40835075  0.16633837  1.0
  F  F216  1  0.20192347  0.08893335  0.15464675  1.0
  F  F217  1  0.75996225  0.90835815  0.83365706  1.0
  F  F218  1  0.79809088  0.91106452  0.65464723  1.0
  F  F219  1  0.24002373  0.09164634  0.33366054  1.0
