# generated using pymatgen
data_Zn3H10C47Br5O12
_symmetry_space_group_name_H-M   'P 1'
_cell_length_a   17.03691703
_cell_length_b   17.03690316
_cell_length_c   17.36657901
_cell_angle_alpha   65.25548091
_cell_angle_beta   65.25452354
_cell_angle_gamma   65.92097716
_symmetry_Int_Tables_number   1
_chemical_formula_structural   Zn3H10C47Br5O12
_chemical_formula_sum   'Zn6 H20 C94 Br10 O24'
_cell_volume   3988.54213328
_cell_formula_units_Z   2
loop_
 _symmetry_equiv_pos_site_id
 _symmetry_equiv_pos_as_xyz
  1  'x, y, z'
loop_
 _atom_site_type_symbol
 _atom_site_label
 _atom_site_symmetry_multiplicity
 _atom_site_fract_x
 _atom_site_fract_y
 _atom_site_fract_z
 _atom_site_occupancy
  Zn  Zn0  1  0.00506251  0.42220294  0.50144435  1.0
  Zn  Zn1  1  0.99491556  0.57780041  0.49858366  1.0
  Zn  Zn2  1  0.57780090  0.99491775  0.49856709  1.0
  Zn  Zn3  1  0.42219990  0.00507883  0.50142219  1.0
  Zn  Zn4  1  0.00077155  0.00077092  0.92611600  1.0
  Zn  Zn5  1  0.99923222  0.99922151  0.07389334  1.0
  H  H6  1  0.57985860  0.21547093  0.45721347  1.0
  H  H7  1  0.42014063  0.78453649  0.54275593  1.0
  H  H8  1  0.78452783  0.42014037  0.54276396  1.0
  H  H9  1  0.21545562  0.57984623  0.45724678  1.0
  H  H10  1  0.00740577  0.73045743  0.23296078  1.0
  H  H11  1  0.99257400  0.26954459  0.76706190  1.0
  H  H12  1  0.26953931  0.99260364  0.76704200  1.0
  H  H13  1  0.73045862  0.00741511  0.23294637  1.0
  H  H14  1  0.10482307  0.75189950  0.92509308  1.0
  H  H15  1  0.89517380  0.24809898  0.07492697  1.0
  H  H16  1  0.24809705  0.89518987  0.07490538  1.0
  H  H17  1  0.75191366  0.10482005  0.92507735  1.0
  H  H18  1  0.11302857  0.66152716  0.84423549  1.0
  H  H19  1  0.88698456  0.33845906  0.15578754  1.0
  H  H20  1  0.33847172  0.88698147  0.15575776  1.0
  H  H21  1  0.66154734  0.11302638  0.84421723  1.0
  H  H22  1  0.96261344  0.44388637  0.30648246  1.0
  H  H23  1  0.03741215  0.55609903  0.69354334  1.0
  H  H24  1  0.55610954  0.03741875  0.69351245  1.0
  H  H25  1  0.44388948  0.96260343  0.30645738  1.0
  C  C26  1  0.00084292  0.56626703  0.33489933  1.0
  C  C27  1  0.99914485  0.43373150  0.66513072  1.0
  C  C28  1  0.43372948  0.99915899  0.66510581  1.0
  C  C29  1  0.56626774  0.00083898  0.33488148  1.0
  C  C30  1  0.59076442  0.59076546  0.52596924  1.0
  C  C31  1  0.40923087  0.40923254  0.47401479  1.0
  C  C32  1  0.54535870  0.28196905  0.46531006  1.0
  C  C33  1  0.45463977  0.71803164  0.53466525  1.0
  C  C34  1  0.71802527  0.45464039  0.53467113  1.0
  C  C35  1  0.28196007  0.54534892  0.46532969  1.0
  C  C36  1  0.00659972  0.54440894  0.05070012  1.0
  C  C37  1  0.99342355  0.45556842  0.94933046  1.0
  C  C38  1  0.45558463  0.99342462  0.94929919  1.0
  C  C39  1  0.54442346  0.00659278  0.05066890  1.0
  C  C40  1  0.97766299  0.46368094  0.09579623  1.0
  C  C41  1  0.02235797  0.53630249  0.90423052  1.0
  C  C42  1  0.53631218  0.02235794  0.90420787  1.0
  C  C43  1  0.46369273  0.97765676  0.09577010  1.0
  C  C44  1  0.96674007  0.42312124  0.04470069  1.0
  C  C45  1  0.03327894  0.57685751  0.95532874  1.0
  C  C46  1  0.57687166  0.03327895  0.95530344  1.0
  C  C47  1  0.42313473  0.96673507  0.04467305  1.0
  C  C48  1  0.03445483  0.67590754  0.05370339  1.0
  C  C49  1  0.96555349  0.32408679  0.94631831  1.0
  C  C50  1  0.32408623  0.96556595  0.94629471  1.0
  C  C51  1  0.67591458  0.03445413  0.05368907  1.0
  C  C52  1  0.02380085  0.72925406  0.10428457  1.0
  C  C53  1  0.97619053  0.27073840  0.89574591  1.0
  C  C54  1  0.27073289  0.97621637  0.89571828  1.0
  C  C55  1  0.72926673  0.02380575  0.10426228  1.0
  C  C56  1  0.00992292  0.69133065  0.19560307  1.0
  C  C57  1  0.99006218  0.30867060  0.80442582  1.0
  C  C58  1  0.30866613  0.99009241  0.80439520  1.0
  C  C59  1  0.69132925  0.00993110  0.19558363  1.0
  C  C60  1  0.00036876  0.60458062  0.24044527  1.0
  C  C61  1  0.99962366  0.39542461  0.75957730  1.0
  C  C62  1  0.39542105  0.99964547  0.75954908  1.0
  C  C63  1  0.60458070  0.00036657  0.24043240  1.0
  C  C64  1  0.99332029  0.55709665  0.19351341  1.0
  C  C65  1  0.00668218  0.44289302  0.80651601  1.0
  C  C66  1  0.44289794  0.00669730  0.80648635  1.0
  C  C67  1  0.55710418  0.99331810  0.19349304  1.0
  C  C68  1  0.17282448  0.44029286  0.47040639  1.0
  C  C69  1  0.82716124  0.55969236  0.52960975  1.0
  C  C70  1  0.55969315  0.82716833  0.52960017  1.0
  C  C71  1  0.44030332  0.17282762  0.47038940  1.0
  C  C72  1  0.01110235  0.59263242  0.09924295  1.0
  C  C73  1  0.98891002  0.40735648  0.90078392  1.0
  C  C74  1  0.40736275  0.98891945  0.90075481  1.0
  C  C75  1  0.59264104  0.01109928  0.09922370  1.0
  C  C76  1  0.07387940  0.69699501  0.96005172  1.0
  C  C77  1  0.92613199  0.30299528  0.03996634  1.0
  C  C78  1  0.30300196  0.92613789  0.03994403  1.0
  C  C79  1  0.69700912  0.07387538  0.96003719  1.0
  C  C80  1  0.07625354  0.64708055  0.91435581  1.0
  C  C81  1  0.92376439  0.35290225  0.08566954  1.0
  C  C82  1  0.35291462  0.92376250  0.08564593  1.0
  C  C83  1  0.64709435  0.07625147  0.91433414  1.0
  C  C84  1  0.97172407  0.47392331  0.23582705  1.0
  C  C85  1  0.02828468  0.52606226  0.76420206  1.0
  C  C86  1  0.52607175  0.02829920  0.76417314  1.0
  C  C87  1  0.47392927  0.97172494  0.23580256  1.0
  C  C88  1  0.96547339  0.42910013  0.18999055  1.0
  C  C89  1  0.03454324  0.57088739  0.81003400  1.0
  C  C90  1  0.57089464  0.03454530  0.81001245  1.0
  C  C91  1  0.42910692  0.96547211  0.18996750  1.0
  C  C92  1  0.82629940  0.02204394  0.06531014  1.0
  C  C93  1  0.17370599  0.97796675  0.93466349  1.0
  C  C94  1  0.97795249  0.17370048  0.93469697  1.0
  C  C95  1  0.02204783  0.82628985  0.06533765  1.0
  C  C96  1  0.32422377  0.59005560  0.47969115  1.0
  C  C97  1  0.67576205  0.40993910  0.52030441  1.0
  C  C98  1  0.40993646  0.67576535  0.52030465  1.0
  C  C99  1  0.59005493  0.32423269  0.47968152  1.0
  C  C100  1  0.28055906  0.68026098  0.48824010  1.0
  C  C101  1  0.71942573  0.31973036  0.51175954  1.0
  C  C102  1  0.31972428  0.71942990  0.51176426  1.0
  C  C103  1  0.68026200  0.28056547  0.48823141  1.0
  C  C104  1  0.45531403  0.58775715  0.50873257  1.0
  C  C105  1  0.54468617  0.41224418  0.49124755  1.0
  C  C106  1  0.41224275  0.54468740  0.49124817  1.0
  C  C107  1  0.58775275  0.45531465  0.50873126  1.0
  C  C108  1  0.54435720  0.54436174  0.51612363  1.0
  C  C109  1  0.45563978  0.45563964  0.48385259  1.0
  C  C110  1  0.68116662  0.54704330  0.53060589  1.0
  C  C111  1  0.31882660  0.45295267  0.46938672  1.0
  C  C112  1  0.45295728  0.31883116  0.46937784  1.0
  C  C113  1  0.54704181  0.68116951  0.53060300  1.0
  C  C114  1  0.73328460  0.59995569  0.52200365  1.0
  C  C115  1  0.26670470  0.40004029  0.47799688  1.0
  C  C116  1  0.40004155  0.26670942  0.47799159  1.0
  C  C117  1  0.59995343  0.73329192  0.52199697  1.0
  C  C118  1  0.69409972  0.69410182  0.50334673  1.0
  C  C119  1  0.30589216  0.30589413  0.49665391  1.0
  Br  Br120  1  0.74216856  0.16653705  0.46789933  1.0
  Br  Br121  1  0.25782101  0.83345834  0.53208290  1.0
  Br  Br122  1  0.83345314  0.25781637  0.53209010  1.0
  Br  Br123  1  0.16653564  0.74217227  0.46790383  1.0
  Br  Br124  1  0.77094615  0.77093673  0.43044956  1.0
  Br  Br125  1  0.22905633  0.22905101  0.56956048  1.0
  Br  Br126  1  0.95129409  0.31156968  0.26555611  1.0
  Br  Br127  1  0.04874727  0.68840555  0.73445763  1.0
  Br  Br128  1  0.68842573  0.04872605  0.73444517  1.0
  Br  Br129  1  0.31156634  0.95130961  0.26552605  1.0
  O  O130  1  0.00720666  0.48245030  0.37335457  1.0
  O  O131  1  0.99276769  0.51756178  0.62667774  1.0
  O  O132  1  0.51756126  0.99277533  0.62665525  1.0
  O  O133  1  0.48245067  0.00720908  0.37333101  1.0
  O  O134  1  0.13024111  0.52131326  0.47317500  1.0
  O  O135  1  0.86973926  0.47867931  0.52685702  1.0
  O  O136  1  0.47868622  0.86975092  0.52683320  1.0
  O  O137  1  0.52132540  0.13024621  0.47315550  1.0
  O  O138  1  0.14049556  0.39142814  0.45954575  1.0
  O  O139  1  0.85948933  0.60856715  0.54046894  1.0
  O  O140  1  0.60857218  0.85948926  0.54046387  1.0
  O  O141  1  0.39143565  0.14050523  0.45952572  1.0
  O  O142  1  0.99738062  0.61995976  0.37147432  1.0
  O  O143  1  0.00262447  0.38004870  0.62854526  1.0
  O  O144  1  0.38004374  0.00263150  0.62852627  1.0
  O  O145  1  0.61995577  0.99736509  0.37146411  1.0
  O  O146  1  0.86644327  0.01863290  0.98532513  1.0
  O  O147  1  0.13356107  0.98133681  0.01466556  1.0
  O  O148  1  0.98135058  0.13356147  0.01468606  1.0
  O  O149  1  0.01868499  0.86643457  0.98533656  1.0
  O  O150  1  0.98015867  0.13551194  0.88364830  1.0
  O  O151  1  0.01980729  0.86448338  0.11640343  1.0
  O  O152  1  0.86449194  0.01983203  0.11636148  1.0
  O  O153  1  0.13551113  0.98019412  0.88361085  1.0
