# generated using pymatgen
data_ZnH7C18Br2N3(ClO2)2
_symmetry_space_group_name_H-M   'P 1'
_cell_length_a   11.03626166
_cell_length_b   15.95859271
_cell_length_c   17.27861299
_cell_angle_alpha   99.20553894
_cell_angle_beta   93.03831726
_cell_angle_gamma   99.79732391
_symmetry_Int_Tables_number   1
_chemical_formula_structural   ZnH7C18Br2N3(ClO2)2
_chemical_formula_sum   'Zn2 H14 C36 Br4 N6 Cl4 O8'
_cell_volume   2950.07580602
_cell_formula_units_Z   2
loop_
 _symmetry_equiv_pos_site_id
 _symmetry_equiv_pos_as_xyz
  1  'x, y, z'
loop_
 _atom_site_type_symbol
 _atom_site_label
 _atom_site_symmetry_multiplicity
 _atom_site_fract_x
 _atom_site_fract_y
 _atom_site_fract_z
 _atom_site_occupancy
  Zn  Zn0  1  0.47085041  0.41104846  0.49555882  1.0
  Zn  Zn1  1  0.52251008  0.59668318  0.51255889  1.0
  H  H2  1  0.39072761  0.70170458  0.43442628  1.0
  H  H3  1  0.38245434  0.85729304  0.42832084  1.0
  H  H4  1  0.69821806  0.92721148  0.59959464  1.0
  H  H5  1  0.30579102  0.08008901  0.40309951  1.0
  H  H6  1  0.63351268  0.15085731  0.56442476  1.0
  H  H7  1  0.61925355  0.30679028  0.56252042  1.0
  H  H8  1  0.46206573  0.61249642  0.26868827  1.0
  H  H9  1  0.46826853  0.61140934  0.12354452  1.0
  H  H10  1  0.54347379  0.35314931  0.09551927  1.0
  H  H11  1  0.45199356  0.65168434  0.90991798  1.0
  H  H12  1  0.53775303  0.39629316  0.88563981  1.0
  H  H13  1  0.53786148  0.39148254  0.73953566  1.0
  H  H14  1  0.77636920  0.55912159  0.37691304  1.0
  H  H15  1  0.23077462  0.57214545  0.38545758  1.0
  C  C16  1  0.48755068  0.49153761  0.35155647  1.0
  C  C17  1  0.26374236  0.51095488  0.50877981  1.0
  C  C18  1  0.50499926  0.51004823  0.65500569  1.0
  C  C19  1  0.73282578  0.50479079  0.50432790  1.0
  C  C20  1  0.45652782  0.75428213  0.46973036  1.0
  C  C21  1  0.45214205  0.83971850  0.46645149  1.0
  C  C22  1  0.54051465  0.90336425  0.51426823  1.0
  C  C23  1  0.62889826  0.87878738  0.56242809  1.0
  C  C24  1  0.62546997  0.79073848  0.56204127  1.0
  C  C25  1  0.37633398  0.12873671  0.43900612  1.0
  C  C26  1  0.46942854  0.10448505  0.48362824  1.0
  C  C27  1  0.55981503  0.16838092  0.52953241  1.0
  C  C28  1  0.55178514  0.25383639  0.52892072  1.0
  C  C29  1  0.37614073  0.21673039  0.44194615  1.0
  C  C30  1  0.49629033  0.48407465  0.26428613  1.0
  C  C31  1  0.47910703  0.55587244  0.22950421  1.0
  C  C32  1  0.48268481  0.55573572  0.14958945  1.0
  C  C33  1  0.50538659  0.48144007  0.10100189  1.0
  C  C34  1  0.52487660  0.40980682  0.13393869  1.0
  C  C35  1  0.52044056  0.41052137  0.21463613  1.0
  C  C36  1  0.47237627  0.59513644  0.87219772  1.0
  C  C37  1  0.49591307  0.52501714  0.90624158  1.0
  C  C38  1  0.52036225  0.45063836  0.85855635  1.0
  C  C39  1  0.52087863  0.44855784  0.77820571  1.0
  C  C40  1  0.49943986  0.51883257  0.74250878  1.0
  C  C41  1  0.47424244  0.59252108  0.79114225  1.0
  C  C42  1  0.87000187  0.50707998  0.50693339  1.0
  C  C43  1  0.93568856  0.53558770  0.44409733  1.0
  C  C44  1  0.93287526  0.48404398  0.56946210  1.0
  C  C45  1  0.87554244  0.56136116  0.37956025  1.0
  C  C46  1  0.94108050  0.59154795  0.32079793  1.0
  C  C47  1  0.12738227  0.51147373  0.50973660  1.0
  C  C48  1  0.06231741  0.48620317  0.57090875  1.0
  C  C49  1  0.06609703  0.53844689  0.44594250  1.0
  C  C50  1  0.13132219  0.56907128  0.38441247  1.0
  C  C51  1  0.07098336  0.59651074  0.32385695  1.0
  Br  Br52  1  0.14951922  0.45730543  0.65761690  1.0
  Br  Br53  1  0.84613925  0.45315781  0.65599132  1.0
  Br  Br54  1  0.85300492  0.62545540  0.23730252  1.0
  Br  Br55  1  0.16580944  0.64155234  0.24630810  1.0
  N  N56  1  0.54135672  0.72968430  0.51676457  1.0
  N  N57  1  0.54863622  0.99379675  0.51867712  1.0
  N  N58  1  0.46258130  0.01409148  0.47854865  1.0
  N  N59  1  0.46123962  0.27801887  0.48610759  1.0
  N  N60  1  0.51059772  0.47124547  0.01854768  1.0
  N  N61  1  0.49141201  0.53588419  0.98880710  1.0
  Cl  Cl62  1  0.73151477  0.75901359  0.62146719  1.0
  Cl  Cl63  1  0.26334714  0.24835092  0.38773488  1.0
  Cl  Cl64  1  0.54916384  0.31812315  0.24722195  1.0
  Cl  Cl65  1  0.43895318  0.68140320  0.75524144  1.0
  O  O66  1  0.47854590  0.42283357  0.38054001  1.0
  O  O67  1  0.48931552  0.56709656  0.39032553  1.0
  O  O68  1  0.33410639  0.58426702  0.52059862  1.0
  O  O69  1  0.29444973  0.43753440  0.49371147  1.0
  O  O70  1  0.53643885  0.57844690  0.62689475  1.0
  O  O71  1  0.47929615  0.43337778  0.61606444  1.0
  O  O72  1  0.66420010  0.43230722  0.50222472  1.0
  O  O73  1  0.69891089  0.57677449  0.50255858  1.0
