# generated using pymatgen
data_AlH24C27N19O6
_symmetry_space_group_name_H-M   'P 1'
_cell_length_a   3.79942553
_cell_length_b   17.45491146
_cell_length_c   18.24346960
_cell_angle_alpha   118.01705622
_cell_angle_beta   94.07500676
_cell_angle_gamma   91.18611481
_symmetry_Int_Tables_number   1
_chemical_formula_structural   AlH24C27N19O6
_chemical_formula_sum   'Al1 H24 C27 N19 O6'
_cell_volume   1063.38189035
_cell_formula_units_Z   1
loop_
 _symmetry_equiv_pos_site_id
 _symmetry_equiv_pos_as_xyz
  1  'x, y, z'
loop_
 _atom_site_type_symbol
 _atom_site_label
 _atom_site_symmetry_multiplicity
 _atom_site_fract_x
 _atom_site_fract_y
 _atom_site_fract_z
 _atom_site_occupancy
  Al  Al0  1  0.49207127  0.99779244  0.49354570  1.0
  H  H1  1  0.83768460  0.05146106  0.32983784  1.0
  H  H2  1  0.49075075  0.03688839  0.26341643  1.0
  H  H3  1  0.60370035  0.90904662  0.03912752  1.0
  H  H4  1  0.67911768  0.00393399  0.13839219  1.0
  H  H5  1  0.01085362  0.78139394  0.33002022  1.0
  H  H6  1  0.29760649  0.73016987  0.26137847  1.0
  H  H7  1  0.93395822  0.63265751  0.03873108  1.0
  H  H8  1  0.97623081  0.63872768  0.13959774  1.0
  H  H9  1  0.13697329  0.46662511  0.85700205  1.0
  H  H10  1  0.39869735  0.37987125  0.83749397  1.0
  H  H11  1  0.31133626  0.17066168  0.70080706  1.0
  H  H12  1  0.17703992  0.24948087  0.79162345  1.0
  H  H13  1  0.54133518  0.46146185  0.60416113  1.0
  H  H14  1  0.40290560  0.35763424  0.52579386  1.0
  H  H15  1  0.72005927  0.16865484  0.45355562  1.0
  H  H16  1  0.74787388  0.26709509  0.45547110  1.0
  H  H17  1  0.18200903  0.89340331  0.86082764  1.0
  H  H18  1  0.90919381  0.96343508  0.84377291  1.0
  H  H19  1  0.85880765  0.03304843  0.70362078  1.0
  H  H20  1  0.09204405  0.04491897  0.79165717  1.0
  H  H21  1  0.49237798  0.63958315  0.60208529  1.0
  H  H22  1  0.52940426  0.66135430  0.51833356  1.0
  H  H23  1  0.20058009  0.78663355  0.45386816  1.0
  H  H24  1  0.11579082  0.69171124  0.45476175  1.0
  C  C25  1  0.93961384  0.93207276  0.36161420  1.0
  C  C26  1  0.02025913  0.92846504  0.56177605  1.0
  C  C27  1  0.01595312  0.13418715  0.56036051  1.0
  C  C28  1  0.90915713  0.75251299  0.13844030  1.0
  C  C29  1  0.79922229  0.79769298  0.09206970  1.0
  C  C30  1  0.14930739  0.87964995  0.74364728  1.0
  C  C31  1  0.27778400  0.79374771  0.70409269  1.0
  C  C32  1  0.87595339  0.40964960  0.70279712  1.0
  C  C33  1  0.76004129  0.36211526  0.61510170  1.0
  C  C34  1  0.29720058  0.75211489  0.61499036  1.0
  C  C35  1  0.20900016  0.79663681  0.56931428  1.0
  C  C36  1  0.08524568  0.88134561  0.60967302  1.0
  C  C37  1  0.04830274  0.92194907  0.69638226  1.0
  C  C38  1  0.81077778  0.27247304  0.56920413  1.0
  C  C39  1  0.98543141  0.22816927  0.60813932  1.0
  C  C40  1  0.10909214  0.27420762  0.69385020  1.0
  C  C41  1  0.05132541  0.36349154  0.74110712  1.0
  C  C42  1  0.74206577  0.88953672  0.13876308  1.0
  C  C43  1  0.79841677  0.93299069  0.22663856  1.0
  C  C44  1  0.89630517  0.88619609  0.26871146  1.0
  C  C45  1  0.94952114  0.79725035  0.22640945  1.0
  C  C46  1  0.79214956  0.62552681  0.87846301  1.0
  C  C47  1  0.56012360  0.75501589  0.87924759  1.0
  C  C48  1  0.74792027  0.75257324  0.00227664  1.0
  C  C49  1  0.80846306  0.50130154  0.75071908  1.0
  C  C50  1  0.59898699  0.62430157  0.74864990  1.0
  C  C51  1  0.39503962  0.75015942  0.75181079  1.0
  N  N52  1  0.65088197  0.66830945  0.83544754  1.0
  N  N53  1  0.60805754  0.79541396  0.96171538  1.0
  N  N54  1  0.84093697  0.66840957  0.96083573  1.0
  N  N55  1  0.87318579  0.54272605  0.83531345  1.0
  N  N56  1  0.67852664  0.54197845  0.70779093  1.0
  N  N57  1  0.42916835  0.79448972  0.83674690  1.0
  N  N58  1  0.47082498  0.66546422  0.70835591  1.0
  N  N59  1  0.75102698  0.02406032  0.26823717  1.0
  N  N60  1  0.63038740  0.93876678  0.10282060  1.0
  N  N61  1  0.04130238  0.74770561  0.26800241  1.0
  N  N62  1  0.98083324  0.66703053  0.10213278  1.0
  N  N63  1  0.16491771  0.40106253  0.82522143  1.0
  N  N64  1  0.28061351  0.23514247  0.73688066  1.0
  N  N65  1  0.59729135  0.39789921  0.56906602  1.0
  N  N66  1  0.67813565  0.23288025  0.48520500  1.0
  N  N67  1  0.12414622  0.92687541  0.82857488  1.0
  N  N68  1  0.92552944  0.00536309  0.74042862  1.0
  N  N69  1  0.39988191  0.66891359  0.56803865  1.0
  N  N70  1  0.25258097  0.75090629  0.48356908  1.0
  O  O71  1  0.26774777  0.09600924  0.57824163  1.0
  O  O72  1  0.19581272  0.98921350  0.39834468  1.0
  O  O73  1  0.21379566  0.91244780  0.50131204  1.0
  O  O74  1  0.77757148  0.08970400  0.49959726  1.0
  O  O75  1  0.78351986  0.98437434  0.57936525  1.0
  O  O76  1  0.71619545  0.91169999  0.39972351  1.0
