# generated using pymatgen
data_Zn2H13C24N8O
_symmetry_space_group_name_H-M   'P 1'
_cell_length_a   15.62618525
_cell_length_b   15.74475478
_cell_length_c   17.79228118
_cell_angle_alpha   107.84130831
_cell_angle_beta   103.19254593
_cell_angle_gamma   112.68574145
_symmetry_Int_Tables_number   1
_chemical_formula_structural   Zn2H13C24N8O
_chemical_formula_sum   'Zn4 H26 C48 N16 O2'
_cell_volume   3532.90243163
_cell_formula_units_Z   2
loop_
 _symmetry_equiv_pos_site_id
 _symmetry_equiv_pos_as_xyz
  1  'x, y, z'
loop_
 _atom_site_type_symbol
 _atom_site_label
 _atom_site_symmetry_multiplicity
 _atom_site_fract_x
 _atom_site_fract_y
 _atom_site_fract_z
 _atom_site_occupancy
  Zn  Zn0  1  0.13515494  0.13128763  0.50261490  1.0
  Zn  Zn1  1  0.85584798  0.84723108  0.49821108  1.0
  Zn  Zn2  1  0.00919691  0.88449769  0.39443495  1.0
  Zn  Zn3  1  0.98116094  0.10511239  0.60137875  1.0
  H  H4  1  0.23286887  0.19151825  0.36081168  1.0
  H  H5  1  0.79174638  0.60116801  0.45374586  1.0
  H  H6  1  0.14827457  0.82184698  0.50350978  1.0
  H  H7  1  0.16761302  0.14053811  0.75539660  1.0
  H  H8  1  0.12993696  0.32794955  0.78265362  1.0
  H  H9  1  0.99189587  0.65270275  0.32022725  1.0
  H  H10  1  0.55756456  0.67840233  0.94368570  1.0
  H  H11  1  0.41477182  0.62933604  0.03745591  1.0
  H  H12  1  0.23349199  0.13273100  0.05546488  1.0
  H  H13  1  0.64670388  0.81151013  0.54144803  1.0
  H  H14  1  0.12482008  0.89616055  0.96541416  1.0
  H  H15  1  0.87005988  0.88073005  0.22974791  1.0
  H  H16  1  0.02346640  0.16535677  0.35161129  1.0
  H  H17  1  0.82173026  0.14170328  0.68312518  1.0
  H  H18  1  0.05779166  0.86109214  0.21760084  1.0
  H  H19  1  0.31804933  0.37350620  0.63804171  1.0
  H  H20  1  0.80956355  0.68149500  0.60499635  1.0
  H  H21  1  0.34745267  0.21812585  0.71248028  1.0
  H  H22  1  0.43154497  0.18108335  0.67904431  1.0
  H  H23  1  0.36958022  0.23003348  0.62189441  1.0
  H  H24  1  0.78961105  0.22433786  0.48182819  1.0
  H  H25  1  0.75397175  0.11022948  0.49610552  1.0
  H  H26  1  0.85778947  0.22804855  0.57862902  1.0
  H  H27  1  0.62343204  0.86170567  0.39275851  1.0
  H  H28  1  0.56147758  0.75359247  0.29066994  1.0
  H  H29  1  0.62458709  0.74677296  0.38368266  1.0
  C  C30  1  0.18614259  0.10965430  0.33815129  1.0
  C  C31  1  0.69791781  0.97723460  0.62184768  1.0
  C  C32  1  0.72752326  0.82992137  0.25499767  1.0
  C  C33  1  0.91447994  0.19210530  0.40657727  1.0
  C  C34  1  0.25910670  0.34603138  0.66109317  1.0
  C  C35  1  0.84248002  0.63113659  0.42449307  1.0
  C  C36  1  0.18010430  0.90440610  0.53013588  1.0
  C  C37  1  0.11052278  0.06035836  0.71871126  1.0
  C  C38  1  0.00576612  0.89411183  0.66988097  1.0
  C  C39  1  0.27679713  0.07498269  0.59971833  1.0
  C  C40  1  0.16316330  0.32266454  0.73525485  1.0
  C  C41  1  0.70372079  0.89183790  0.57240018  1.0
  C  C42  1  0.94473851  0.65701397  0.35596504  1.0
  C  C43  1  0.25717416  0.39322346  0.74160171  1.0
  C  C44  1  0.88548643  0.58253990  0.37780792  1.0
  C  C45  1  0.27879994  0.98255942  0.58832998  1.0
  C  C46  1  0.09019318  0.97999861  0.74316858  1.0
  C  C47  1  0.88978681  0.25577741  0.37683863  1.0
  C  C48  1  0.87779341  0.32356717  0.36399860  1.0
  C  C49  1  0.87351865  0.40587940  0.35942987  1.0
  C  C50  1  0.87659504  0.48640857  0.36366393  1.0
  C  C51  1  0.61345952  0.97792605  0.63600700  1.0
  C  C52  1  0.83121496  0.86850023  0.27199420  1.0
  C  C53  1  0.53489483  0.97610713  0.63862985  1.0
  C  C54  1  0.44697401  0.97563737  0.63249326  1.0
  C  C55  1  0.36590830  0.97514918  0.61694745  1.0
  C  C56  1  0.64576129  0.78571223  0.17654556  1.0
  C  C57  1  0.48634513  0.66754846  0.03152142  1.0
  C  C58  1  0.48701443  0.64003618  0.95093776  1.0
  C  C59  1  0.40340298  0.55999010  0.87673451  1.0
  C  C60  1  0.57181256  0.73575585  0.10814434  1.0
  C  C61  1  0.33366178  0.48466060  0.81272357  1.0
  C  C62  1  0.13055502  0.98408032  0.82385017  1.0
  C  C63  1  0.88775335  0.16292267  0.46938153  1.0
  C  C64  1  0.15897494  0.97409172  0.97090190  1.0
  C  C65  1  0.19840820  0.05477503  0.04972282  1.0
  C  C66  1  0.19058085  0.04405374  0.12340775  1.0
  C  C67  1  0.15093664  0.98308095  0.89413525  1.0
  C  C68  1  0.17682706  0.03697424  0.18678281  1.0
  C  C69  1  0.72091487  0.83129536  0.33359185  1.0
  C  C70  1  0.98396284  0.15859015  0.39415099  1.0
  C  C71  1  0.79305133  0.06070223  0.64506314  1.0
  C  C72  1  0.09647605  0.94062611  0.26478849  1.0
  C  C73  1  0.15611317  0.02934135  0.25773206  1.0
  C  C74  1  0.94231628  0.79419583  0.66456625  1.0
  C  C75  1  0.36051878  0.18171934  0.65603517  1.0
  C  C76  1  0.81846307  0.18193833  0.50852702  1.0
  C  C77  1  0.62798946  0.79679034  0.35149820  1.0
  N  N78  1  0.14758818  0.07161320  0.38796322  1.0
  N  N79  1  0.87404754  0.72605036  0.43039063  1.0
  N  N80  1  0.12500581  0.94698731  0.50728799  1.0
  N  N81  1  0.04355383  0.02474892  0.63823854  1.0
  N  N82  1  0.98061522  0.92376912  0.60832446  1.0
  N  N83  1  0.18423781  0.05109525  0.54977455  1.0
  N  N84  1  0.11455381  0.24098806  0.65805593  1.0
  N  N85  1  0.93712943  0.74181260  0.38737698  1.0
  N  N86  1  0.79334292  0.92224365  0.56597835  1.0
  N  N87  1  0.88137495  0.88909805  0.35310095  1.0
  N  N88  1  0.93971623  0.11721935  0.49210209  1.0
  N  N89  1  0.81406834  0.86682850  0.39106276  1.0
  N  N90  1  0.99903346  0.11519791  0.44658159  1.0
  N  N91  1  0.84913093  0.02727726  0.61126069  1.0
  N  N92  1  0.09182406  0.96658807  0.34243165  1.0
  N  N93  1  0.17442014  0.25541512  0.61207064  1.0
  O  O94  1  0.96553117  0.75661711  0.71077463  1.0
  O  O95  1  0.84582994  0.74586216  0.60174720  1.0
