# generated using pymatgen
data_AlC27N7(OF2)6
_symmetry_space_group_name_H-M   'P 1'
_cell_length_a   3.96798768
_cell_length_b   17.47439452
_cell_length_c   18.04918636
_cell_angle_alpha   118.44995331
_cell_angle_beta   94.68770410
_cell_angle_gamma   90.94591305
_symmetry_Int_Tables_number   1
_chemical_formula_structural   AlC27N7(OF2)6
_chemical_formula_sum   'Al1 C27 N7 O6 F12'
_cell_volume   1094.48096536
_cell_formula_units_Z   1
loop_
 _symmetry_equiv_pos_site_id
 _symmetry_equiv_pos_as_xyz
  1  'x, y, z'
loop_
 _atom_site_type_symbol
 _atom_site_label
 _atom_site_symmetry_multiplicity
 _atom_site_fract_x
 _atom_site_fract_y
 _atom_site_fract_z
 _atom_site_occupancy
  Al  Al0  1  0.48995710  0.99929160  0.49669287  1.0
  C  C1  1  0.93525167  0.93438770  0.36709371  1.0
  C  C2  1  0.01785576  0.93258402  0.56443540  1.0
  C  C3  1  0.01754110  0.13286996  0.56232476  1.0
  C  C4  1  0.83932348  0.75188914  0.13889980  1.0
  C  C5  1  0.78647989  0.79683361  0.09185844  1.0
  C  C6  1  0.21147091  0.88157384  0.74618572  1.0
  C  C7  1  0.24703162  0.79044177  0.70391050  1.0
  C  C8  1  0.91388146  0.41350542  0.70134397  1.0
  C  C9  1  0.87049322  0.36605796  0.61162799  1.0
  C  C10  1  0.18526367  0.74775317  0.61434065  1.0
  C  C11  1  0.10617810  0.79403967  0.57088473  1.0
  C  C12  1  0.07267842  0.88404945  0.61347700  1.0
  C  C13  1  0.12124114  0.92659257  0.70180646  1.0
  C  C14  1  0.90958009  0.27662425  0.56813674  1.0
  C  C15  1  0.00413242  0.22977028  0.61053123  1.0
  C  C16  1  0.05909536  0.27617308  0.69884827  1.0
  C  C17  1  0.01090338  0.36532205  0.74342157  1.0
  C  C18  1  0.78577616  0.88858662  0.13822057  1.0
  C  C19  1  0.83868967  0.93249447  0.22644932  1.0
  C  C20  1  0.88804168  0.88723718  0.27219286  1.0
  C  C21  1  0.88605711  0.79645861  0.22714019  1.0
  C  C22  1  0.83458247  0.62997848  0.87542942  1.0
  C  C23  1  0.50437779  0.74727604  0.87714282  1.0
  C  C24  1  0.73522484  0.74985354  0.99831284  1.0
  C  C25  1  0.84539966  0.50693210  0.74792959  1.0
  C  C26  1  0.59887288  0.62213964  0.74355986  1.0
  C  C27  1  0.36028640  0.74296427  0.74992578  1.0
  N  N28  1  0.64580710  0.66655271  0.83224670  1.0
  N  N29  1  0.53714130  0.78650524  0.96146895  1.0
  N  N30  1  0.89239308  0.67519678  0.95948378  1.0
  N  N31  1  0.95319790  0.55122240  0.83113647  1.0
  N  N32  1  0.67756449  0.53936620  0.70242445  1.0
  N  N33  1  0.34021992  0.78243139  0.83413129  1.0
  N  N34  1  0.47754622  0.66412067  0.70298282  1.0
  O  O35  1  0.26773010  0.09747431  0.57898354  1.0
  O  O36  1  0.19113335  0.98805069  0.40237716  1.0
  O  O37  1  0.22256387  0.91711951  0.50897517  1.0
  O  O38  1  0.76767596  0.09281601  0.50707386  1.0
  O  O39  1  0.78112515  0.98425551  0.58057965  1.0
  O  O40  1  0.71362848  0.91654396  0.40441022  1.0
  F  F41  1  0.83502107  0.02014564  0.26777961  1.0
  F  F42  1  0.74611355  0.93748348  0.09952955  1.0
  F  F43  1  0.93470478  0.75051248  0.26911631  1.0
  F  F44  1  0.83415482  0.66457498  0.10105371  1.0
  F  F45  1  0.05073202  0.40175657  0.82809065  1.0
  F  F46  1  0.14340541  0.23448332  0.74340235  1.0
  F  F47  1  0.79324207  0.40372932  0.56348512  1.0
  F  F48  1  0.86106414  0.23604831  0.48302254  1.0
  F  F49  1  0.27590568  0.92993856  0.83041197  1.0
  F  F50  1  0.10027977  0.01357391  0.74592006  1.0
  F  F51  1  0.19444587  0.66134100  0.56675203  1.0
  F  F52  1  0.05434628  0.74960920  0.48578719  1.0
