# generated using pymatgen
data_Al2H18C30N3O11F
_symmetry_space_group_name_H-M   'P 1'
_cell_length_a   6.69219691
_cell_length_b   22.38580342
_cell_length_c   25.53373640
_cell_angle_alpha   90.65799907
_cell_angle_beta   89.86770110
_cell_angle_gamma   89.95059400
_symmetry_Int_Tables_number   1
_chemical_formula_structural   Al2H18C30N3O11F
_chemical_formula_sum   'Al4 H36 C60 N6 O22 F2'
_cell_volume   3824.95031608
_cell_formula_units_Z   2
loop_
 _symmetry_equiv_pos_site_id
 _symmetry_equiv_pos_as_xyz
  1  'x, y, z'
loop_
 _atom_site_type_symbol
 _atom_site_label
 _atom_site_symmetry_multiplicity
 _atom_site_fract_x
 _atom_site_fract_y
 _atom_site_fract_z
 _atom_site_occupancy
  Al  Al0  1  0.28443932  0.74585346  0.25278928  1.0
  Al  Al1  1  0.71555492  0.25414768  0.74721012  1.0
  Al  Al2  1  0.78387808  0.74745316  0.25302282  1.0
  Al  Al3  1  0.21611467  0.25254754  0.74697657  1.0
  H  H4  1  0.75566621  0.83956942  0.10925740  1.0
  H  H5  1  0.24432652  0.16043128  0.89074043  1.0
  H  H6  1  0.79089949  0.98070116  0.98138719  1.0
  H  H7  1  0.20905147  0.01930851  0.01861663  1.0
  H  H8  1  0.33493132  0.97669965  0.09455024  1.0
  H  H9  1  0.66504651  0.02330731  0.90545000  1.0
  H  H10  1  0.23246683  0.08851700  0.96309173  1.0
  H  H11  1  0.76752445  0.91148773  0.03691004  1.0
  H  H12  1  0.72204104  0.87355904  0.37131988  1.0
  H  H13  1  0.27795021  0.12643853  0.62868144  1.0
  H  H14  1  0.73403811  0.94910952  0.44527513  1.0
  H  H15  1  0.26595614  0.05089163  0.55472544  1.0
  H  H16  1  0.62610186  0.06265370  0.55330425  1.0
  H  H17  1  0.37388939  0.93735726  0.44668975  1.0
  H  H18  1  0.63756225  0.13838643  0.62757222  1.0
  H  H19  1  0.36243051  0.86162275  0.37242529  1.0
  H  H20  1  0.77780851  0.37779050  0.86810433  1.0
  H  H21  1  0.22219768  0.62219993  0.13189966  1.0
  H  H22  1  0.76582601  0.45080481  0.94393180  1.0
  H  H23  1  0.23417868  0.54918338  0.05607296  1.0
  H  H24  1  0.87346307  0.56333294  0.05235882  1.0
  H  H25  1  0.12654314  0.43665928  0.94764715  1.0
  H  H26  1  0.86201361  0.63575799  0.12908763  1.0
  H  H27  1  0.13798662  0.36423959  0.87091525  1.0
  H  H28  1  0.77566302  0.38449879  0.63382051  1.0
  H  H29  1  0.22433572  0.61549879  0.36618315  1.0
  H  H30  1  0.76136052  0.45693257  0.55942688  1.0
  H  H31  1  0.23866212  0.54306410  0.44057675  1.0
  H  H32  1  0.85819881  0.64540103  0.38072806  1.0
  H  H33  1  0.14179987  0.35459787  0.61926661  1.0
  H  H34  1  0.69361821  0.09840870  0.78019907  1.0
  H  H35  1  0.30638348  0.90159288  0.21979640  1.0
  H  H36  1  0.53535294  0.82207731  0.23581141  1.0
  H  H37  1  0.46465029  0.17792562  0.76418995  1.0
  H  H38  1  0.03041527  0.66792586  0.24656003  1.0
  H  H39  1  0.96959093  0.33207483  0.75343974  1.0
  C  C40  1  0.53534544  0.67421175  0.18103601  1.0
  C  C41  1  0.46466674  0.32578894  0.81896414  1.0
  C  C42  1  0.53627825  0.67646006  0.32394902  1.0
  C  C43  1  0.46370851  0.32353931  0.67604958  1.0
  C  C44  1  0.03669389  0.81945586  0.32357041  1.0
  C  C45  1  0.96330334  0.18054440  0.67643015  1.0
  C  C46  1  0.03182951  0.82008674  0.18333645  1.0
  C  C47  1  0.96816174  0.17991530  0.81666218  1.0
  C  C48  1  0.03698379  0.86666367  0.14222889  1.0
  C  C49  1  0.96301491  0.13333479  0.85776813  1.0
  C  C50  1  0.88232037  0.86975492  0.10546834  1.0
  C  C51  1  0.11766944  0.13025026  0.89453540  1.0
  C  C52  1  0.89047321  0.91024903  0.06478804  1.0
  C  C53  1  0.10950616  0.08976151  0.93521654  1.0
  C  C54  1  0.05401228  0.94951171  0.05940560  1.0
  C  C55  1  0.94595814  0.05049974  0.94060135  1.0
  C  C56  1  0.20811491  0.94617655  0.09662625  1.0
  C  C57  1  0.79186147  0.05383088  0.90337988  1.0
  C  C58  1  0.20056790  0.90609936  0.13806499  1.0
  C  C59  1  0.79942934  0.09389866  0.86193751  1.0
  C  C60  1  0.06959816  0.99386593  0.01833570  1.0
  C  C61  1  0.93035135  0.00614955  0.98167013  1.0
  C  C62  1  0.95821449  0.13648561  0.63220003  1.0
  C  C63  1  0.04179170  0.86351463  0.36779974  1.0
  C  C64  1  0.13630976  0.11211957  0.61174874  1.0
  C  C65  1  0.86369046  0.88788113  0.38825143  1.0
  C  C66  1  0.13038134  0.07057927  0.57108964  1.0
  C  C67  1  0.86962037  0.92942143  0.42891053  1.0
  C  C68  1  0.94464030  0.05284820  0.55022794  1.0
  C  C69  1  0.05536142  0.94715607  0.44977030  1.0
  C  C70  1  0.76696661  0.07730236  0.57048346  1.0
  C  C71  1  0.23303659  0.92270548  0.42951206  1.0
  C  C72  1  0.77355339  0.11887197  0.61125647  1.0
  C  C73  1  0.22644982  0.88113409  0.38874218  1.0
  C  C74  1  0.54157057  0.63250863  0.13503225  1.0
  C  C75  1  0.45842516  0.36748627  0.86496983  1.0
  C  C76  1  0.36377290  0.60872092  0.11421571  1.0
  C  C77  1  0.63622582  0.39127130  0.88578830  1.0
  C  C78  1  0.36966056  0.56865088  0.07246246  1.0
  C  C79  1  0.63034116  0.43133955  0.92754349  1.0
  C  C80  1  0.55530652  0.55217086  0.05054478  1.0
  C  C81  1  0.44469371  0.44781779  0.94946272  1.0
  C  C82  1  0.73270426  0.57666780  0.07063397  1.0
  C  C83  1  0.26730194  0.42331995  0.92937234  1.0
  C  C84  1  0.72602330  0.61643524  0.11278962  1.0
  C  C85  1  0.27397543  0.38355564  0.88721595  1.0
  C  C86  1  0.54024129  0.63417653  0.36865309  1.0
  C  C87  1  0.45976191  0.36582461  0.63134551  1.0
  C  C88  1  0.36492410  0.60564353  0.38567876  1.0
  C  C89  1  0.63508359  0.39435494  0.61432216  1.0
  C  C90  1  0.37217380  0.56567972  0.42665105  1.0
  C  C91  1  0.62785481  0.43431739  0.57334984  1.0
  C  C92  1  0.55417908  0.55372949  0.45222299  1.0
  C  C93  1  0.44585104  0.44627163  0.54777793  1.0
  C  C94  1  0.72663948  0.58370263  0.43493992  1.0
  C  C95  1  0.27337867  0.41630074  0.56505830  1.0
  C  C96  1  0.72259290  0.62303390  0.39353768  1.0
  C  C97  1  0.27741029  0.37696813  0.60645897  1.0
  C  C98  1  0.64294649  0.08905698  0.82082760  1.0
  C  C99  1  0.35705971  0.91094773  0.17917142  1.0
  N  N100  1  0.91931967  0.01084872  0.50903228  1.0
  N  N101  1  0.08066860  0.98915645  0.49096559  1.0
  N  N102  1  0.58041179  0.51158486  0.00832506  1.0
  N  N103  1  0.41959591  0.48840512  0.99168206  1.0
  N  N104  1  0.57777133  0.51501950  0.49467021  1.0
  N  N105  1  0.42225877  0.48497939  0.50532913  1.0
  O  O106  1  0.70461907  0.69518148  0.30765910  1.0
  O  O107  1  0.29536318  0.30481520  0.69233635  1.0
  O  O108  1  0.36365750  0.69054374  0.19772783  1.0
  O  O109  1  0.63635170  0.30945517  0.80227505  1.0
  O  O110  1  0.20109469  0.80247522  0.20043033  1.0
  O  O111  1  0.79889505  0.19752146  0.79956864  1.0
  O  O112  1  0.36659565  0.69022036  0.30502845  1.0
  O  O113  1  0.63337768  0.30977812  0.69497330  1.0
  O  O114  1  0.20504770  0.80046417  0.30687670  1.0
  O  O115  1  0.79496149  0.19953875  0.69312191  1.0
  O  O116  1  0.70326992  0.68960625  0.20040622  1.0
  O  O117  1  0.29674074  0.31039712  0.79958965  1.0
  O  O118  1  0.53333868  0.78299404  0.25180135  1.0
  O  O119  1  0.46666302  0.21700621  0.74819646  1.0
  O  O120  1  0.86660300  0.80465345  0.30521836  1.0
  O  O121  1  0.13339573  0.19534056  0.69478645  1.0
  O  O122  1  0.86159258  0.80131514  0.19809301  1.0
  O  O123  1  0.13840319  0.19869137  0.80190878  1.0
  O  O124  1  0.03333218  0.71069970  0.25242764  1.0
  O  O125  1  0.96666504  0.28930100  0.74757057  1.0
  O  O126  1  0.47118346  0.07276063  0.82944927  1.0
  O  O127  1  0.52881079  0.92724409  0.17054938  1.0
  F  F128  1  0.90312867  0.57353496  0.45927452  1.0
  F  F129  1  0.09688947  0.42647197  0.54071942  1.0
