# generated using pymatgen
data_Cu3H6C9N7
_symmetry_space_group_name_H-M   'P 1'
_cell_length_a   13.70241676
_cell_length_b   16.77082273
_cell_length_c   19.29693219
_cell_angle_alpha   89.99999235
_cell_angle_beta   89.99998589
_cell_angle_gamma   89.99994390
_symmetry_Int_Tables_number   1
_chemical_formula_structural   Cu3H6C9N7
_chemical_formula_sum   'Cu12 H24 C36 N28'
_cell_volume   4434.45050217
_cell_formula_units_Z   4
loop_
 _symmetry_equiv_pos_site_id
 _symmetry_equiv_pos_as_xyz
  1  'x, y, z'
loop_
 _atom_site_type_symbol
 _atom_site_label
 _atom_site_symmetry_multiplicity
 _atom_site_fract_x
 _atom_site_fract_y
 _atom_site_fract_z
 _atom_site_occupancy
  Cu  Cu0  1  0.79593117  0.91682644  0.78931342  1.0
  Cu  Cu1  1  0.80970829  0.88708667  0.94857086  1.0
  Cu  Cu2  1  0.92309641  0.77308150  0.84068946  1.0
  Cu  Cu3  1  0.20406798  0.58317224  0.28931433  1.0
  Cu  Cu4  1  0.19029226  0.61291198  0.44857177  1.0
  Cu  Cu5  1  0.07690419  0.72691717  0.34068934  1.0
  Cu  Cu6  1  0.29593229  0.08317225  0.71068651  1.0
  Cu  Cu7  1  0.30970871  0.11291200  0.55142907  1.0
  Cu  Cu8  1  0.42309665  0.22691709  0.65931097  1.0
  Cu  Cu9  1  0.70406748  0.41682660  0.21068522  1.0
  Cu  Cu10  1  0.69029259  0.38708806  0.05142830  1.0
  Cu  Cu11  1  0.57690461  0.27308177  0.15931075  1.0
  H  H12  1  0.62564567  0.04566412  0.78415775  1.0
  H  H13  1  0.68731158  0.03897635  0.00458823  1.0
  H  H14  1  0.06291023  0.74732462  0.70873022  1.0
  H  H15  1  0.88539131  0.94698116  0.64160289  1.0
  H  H16  1  0.84838343  0.79433755  0.08783612  1.0
  H  H17  1  0.97962592  0.62987621  0.94171382  1.0
  H  H18  1  0.37435481  0.45433651  0.28415858  1.0
  H  H19  1  0.31268827  0.46102135  0.50458896  1.0
  H  H20  1  0.93709114  0.75267527  0.20872943  1.0
  H  H21  1  0.11460862  0.55301754  0.14160278  1.0
  H  H22  1  0.15161652  0.70566176  0.58783639  1.0
  H  H23  1  0.02037537  0.87012304  0.44171368  1.0
  H  H24  1  0.12564502  0.95433709  0.71584222  1.0
  H  H25  1  0.18731155  0.96102251  0.49541184  1.0
  H  H26  1  0.56290917  0.25267545  0.79127027  1.0
  H  H27  1  0.38539242  0.05301745  0.85839807  1.0
  H  H28  1  0.34838360  0.20566118  0.41216444  1.0
  H  H29  1  0.47962529  0.37012233  0.55828661  1.0
  H  H30  1  0.87435415  0.54566279  0.21584145  1.0
  H  H31  1  0.81268972  0.53897733  0.99541097  1.0
  H  H32  1  0.43709058  0.24732398  0.29127060  1.0
  H  H33  1  0.61460877  0.44698197  0.35839730  1.0
  H  H34  1  0.65161683  0.29433824  0.91216409  1.0
  H  H35  1  0.52037527  0.12987714  0.05828693  1.0
  C  C36  1  0.65164036  0.03307259  0.83607118  1.0
  C  C37  1  0.62720522  0.06973627  0.89904285  1.0
  C  C38  1  0.68289249  0.02961299  0.94909692  1.0
  C  C39  1  0.00965755  0.79463836  0.70220691  1.0
  C  C40  1  0.99903190  0.85058394  0.64867033  1.0
  C  C41  1  0.91797902  0.89639866  0.66797444  1.0
  C  C42  1  0.87726741  0.76325022  0.04297873  1.0
  C  C43  1  0.92280249  0.68853830  0.03847594  1.0
  C  C44  1  0.94414820  0.67923456  0.96795788  1.0
  C  C45  1  0.34836084  0.46692565  0.33607098  1.0
  C  C46  1  0.37279595  0.43026315  0.39904316  1.0
  C  C47  1  0.31710793  0.47038523  0.44909724  1.0
  C  C48  1  0.99034236  0.70536093  0.20220611  1.0
  C  C49  1  0.00096876  0.64941536  0.14867023  1.0
  C  C50  1  0.08202091  0.60360063  0.16797433  1.0
  C  C51  1  0.12273256  0.73674850  0.54297952  1.0
  C  C52  1  0.07719821  0.81146042  0.53847621  1.0
  C  C53  1  0.05585235  0.82076468  0.46795827  1.0
  C  C54  1  0.15163971  0.96692741  0.66392930  1.0
  C  C55  1  0.12720464  0.93026375  0.60095712  1.0
  C  C56  1  0.18289188  0.97038639  0.55090304  1.0
  C  C57  1  0.50965728  0.20536116  0.79779411  1.0
  C  C58  1  0.49903217  0.14941578  0.85133009  1.0
  C  C59  1  0.41797861  0.10359993  0.83202651  1.0
  C  C60  1  0.37726753  0.23674849  0.45702130  1.0
  C  C61  1  0.42280252  0.31146037  0.46152460  1.0
  C  C62  1  0.44414837  0.32076461  0.53204254  1.0
  C  C63  1  0.84836022  0.53307367  0.16392906  1.0
  C  C64  1  0.87279531  0.56973556  0.10095687  1.0
  C  C65  1  0.81710882  0.52961292  0.05090229  1.0
  C  C66  1  0.49034247  0.29463828  0.29779339  1.0
  C  C67  1  0.50096829  0.35058424  0.35132987  1.0
  C  C68  1  0.58202112  0.39639890  0.33202576  1.0
  C  C69  1  0.62273362  0.26325092  0.95702096  1.0
  C  C70  1  0.57719936  0.18853904  0.96152428  1.0
  C  C71  1  0.55585293  0.17923547  0.03204234  1.0
  N  N72  1  0.43952072  0.36758939  0.40827416  1.0
  N  N73  1  0.56048045  0.13241003  0.90827437  1.0
  N  N74  1  0.93952000  0.63240926  0.09172586  1.0
  N  N75  1  0.06047995  0.86759004  0.59172613  1.0
  N  N76  1  0.73715170  0.97251841  0.91750842  1.0
  N  N77  1  0.71735812  0.97439013  0.84813055  1.0
  N  N78  1  0.88292389  0.87001535  0.72901264  1.0
  N  N79  1  0.93910234  0.80655213  0.75015797  1.0
  N  N80  1  0.91314196  0.74400540  0.93268958  1.0
  N  N81  1  0.87251843  0.79637673  0.97934881  1.0
  N  N82  1  0.26284740  0.52747965  0.41750932  1.0
  N  N83  1  0.28264174  0.52560854  0.34813145  1.0
  N  N84  1  0.11707601  0.62998334  0.22901252  1.0
  N  N85  1  0.06089829  0.69344656  0.25015785  1.0
  N  N86  1  0.08685860  0.75599325  0.43268945  1.0
  N  N87  1  0.12748285  0.70362192  0.47934920  1.0
  N  N88  1  0.23715148  0.02748092  0.58249153  1.0
  N  N89  1  0.21735788  0.02560922  0.65186992  1.0
  N  N90  1  0.38292494  0.12998268  0.77098780  1.0
  N  N91  1  0.43910186  0.19344645  0.74984246  1.0
  N  N92  1  0.41314220  0.25599320  0.56731137  1.0
  N  N93  1  0.37251802  0.20362190  0.52065163  1.0
  N  N94  1  0.76284834  0.47251914  0.08249074  1.0
  N  N95  1  0.78264119  0.47439083  0.15186860  1.0
  N  N96  1  0.61707628  0.37001557  0.27098704  1.0
  N  N97  1  0.56089791  0.30655240  0.24984224  1.0
  N  N98  1  0.58685836  0.24400687  0.06731063  1.0
  N  N99  1  0.62748256  0.29637817  0.02065140  1.0
