# generated using pymatgen
data_AlH7C16O5F2
_symmetry_space_group_name_H-M   'P 1'
_cell_length_a   6.65196150
_cell_length_b   24.57768240
_cell_length_c   25.04271303
_cell_angle_alpha   89.98126139
_cell_angle_beta   88.52282654
_cell_angle_gamma   87.85480598
_symmetry_Int_Tables_number   1
_chemical_formula_structural   AlH7C16O5F2
_chemical_formula_sum   'Al4 H28 C64 O20 F8'
_cell_volume   4089.99825361
_cell_formula_units_Z   4
loop_
 _symmetry_equiv_pos_site_id
 _symmetry_equiv_pos_as_xyz
  1  'x, y, z'
loop_
 _atom_site_type_symbol
 _atom_site_label
 _atom_site_symmetry_multiplicity
 _atom_site_fract_x
 _atom_site_fract_y
 _atom_site_fract_z
 _atom_site_occupancy
  Al  Al0  1  0.98681849  0.00111653  0.49807672  1.0
  Al  Al1  1  0.48654722  0.99957807  0.49960233  1.0
  Al  Al2  1  0.01379128  0.50048938  0.00027136  1.0
  Al  Al3  1  0.51347287  0.49901541  0.00183120  1.0
  H  H4  1  0.22950039  0.06985109  0.51592581  1.0
  H  H5  1  0.75048851  0.93181751  0.51788821  1.0
  H  H6  1  0.27101668  0.43014486  0.98415505  1.0
  H  H7  1  0.74997565  0.56830871  0.98204642  1.0
  H  H8  1  0.45992010  0.40405173  0.13111443  1.0
  H  H9  1  0.44463414  0.33357039  0.20279249  1.0
  H  H10  1  0.07939392  0.29553377  0.17490751  1.0
  H  H11  1  0.42073082  0.20435884  0.32479459  1.0
  H  H12  1  0.04031841  0.09601000  0.36876019  1.0
  H  H13  1  0.05558090  0.16644466  0.29701233  1.0
  H  H14  1  0.95834408  0.59706955  0.86650516  1.0
  H  H15  1  0.94828150  0.66749372  0.79482870  1.0
  H  H16  1  0.56517932  0.70328690  0.82760395  1.0
  H  H17  1  0.93500946  0.79700307  0.67253609  1.0
  H  H18  1  0.54195727  0.90313969  0.63344281  1.0
  H  H19  1  0.55210823  0.83277693  0.70516249  1.0
  H  H20  1  0.55729764  0.59549096  0.13048830  1.0
  H  H21  1  0.56367244  0.66666667  0.20138672  1.0
  H  H22  1  0.93113373  0.70326821  0.17706304  1.0
  H  H23  1  0.56890080  0.79687369  0.32272139  1.0
  H  H24  1  0.94274134  0.90460656  0.36945586  1.0
  H  H25  1  0.93625391  0.83344372  0.29855663  1.0
  H  H26  1  0.46897413  0.40605760  0.87029083  1.0
  H  H27  1  0.45328952  0.33571751  0.79905442  1.0
  H  H28  1  0.07859235  0.29087865  0.82516288  1.0
  H  H29  1  0.42056258  0.20844413  0.67542073  1.0
  H  H30  1  0.03076520  0.09360490  0.63006151  1.0
  H  H31  1  0.04580485  0.16361372  0.70161966  1.0
  C  C32  1  0.72573866  0.06792960  0.57033283  1.0
  C  C33  1  0.72496190  0.06632532  0.42796092  1.0
  C  C34  1  0.24688728  0.93446727  0.42776601  1.0
  C  C35  1  0.24131050  0.93291755  0.57027438  1.0
  C  C36  1  0.77449686  0.43200028  0.92970901  1.0
  C  C37  1  0.77534873  0.43374711  0.07191380  1.0
  C  C38  1  0.25334808  0.56565563  0.07210843  1.0
  C  C39  1  0.25893129  0.56721704  0.92966147  1.0
  C  C40  1  0.77574929  0.39136748  0.11454115  1.0
  C  C41  1  0.59472113  0.38057070  0.14213937  1.0
  C  C42  1  0.58592558  0.34108115  0.18159321  1.0
  C  C43  1  0.76042436  0.30965369  0.19428299  1.0
  C  C44  1  0.94285839  0.31962787  0.16681532  1.0
  C  C45  1  0.94765421  0.35998195  0.12817279  1.0
  C  C46  1  0.75293414  0.26809029  0.23323445  1.0
  C  C47  1  0.74702654  0.23184798  0.26651289  1.0
  C  C48  1  0.73975210  0.19030019  0.30548877  1.0
  C  C49  1  0.55730468  0.18030898  0.33294689  1.0
  C  C50  1  0.55255420  0.13999008  0.37162761  1.0
  C  C51  1  0.72454684  0.10864520  0.38528370  1.0
  C  C52  1  0.90556471  0.11945709  0.35768990  1.0
  C  C53  1  0.91434045  0.15892069  0.31821657  1.0
  C  C54  1  0.26417772  0.60925897  0.88657170  1.0
  C  C55  1  0.09056913  0.62038056  0.85687590  1.0
  C  C56  1  0.08461672  0.65976081  0.81725992  1.0
  C  C57  1  0.25544403  0.69065356  0.80593205  1.0
  C  C58  1  0.43110843  0.68003601  0.83495338  1.0
  C  C59  1  0.43286950  0.64007418  0.87401405  1.0
  C  C60  1  0.25142131  0.73209096  0.76676811  1.0
  C  C61  1  0.24896307  0.76826550  0.73335253  1.0
  C  C62  1  0.24490919  0.80963266  0.69412520  1.0
  C  C63  1  0.06917228  0.82020663  0.66511132  1.0
  C  C64  1  0.06736427  0.86014631  0.62602686  1.0
  C  C65  1  0.23608992  0.89093571  0.61342756  1.0
  C  C66  1  0.40975090  0.87985048  0.64310680  1.0
  C  C67  1  0.41574917  0.84049442  0.68273499  1.0
  C  C68  1  0.24437088  0.60796908  0.11490625  1.0
  C  C69  1  0.42119953  0.61905299  0.14196883  1.0
  C  C70  1  0.42493189  0.65887389  0.18104476  1.0
  C  C71  1  0.24840167  0.69019555  0.19449790  1.0
  C  C72  1  0.06965699  0.67968611  0.16801818  1.0
  C  C73  1  0.07023432  0.63930798  0.12934228  1.0
  C  C74  1  0.24970089  0.73188518  0.23333972  1.0
  C  C75  1  0.25006796  0.76825432  0.26651796  1.0
  C  C76  1  0.25161242  0.80994841  0.30535055  1.0
  C  C77  1  0.43041618  0.82045511  0.33179373  1.0
  C  C78  1  0.42990431  0.86082111  0.37047060  1.0
  C  C79  1  0.25583900  0.89215884  0.38495910  1.0
  C  C80  1  0.07893878  0.88107203  0.35795067  1.0
  C  C81  1  0.07510019  0.84124963  0.31886593  1.0
  C  C82  1  0.77937351  0.38968102  0.88679322  1.0
  C  C83  1  0.60169642  0.38091488  0.85919350  1.0
  C  C84  1  0.59265974  0.34160129  0.81983561  1.0
  C  C85  1  0.76430416  0.30825768  0.80665951  1.0
  C  C86  1  0.94383429  0.31620632  0.83377485  1.0
  C  C87  1  0.94851241  0.35632319  0.87264181  1.0
  C  C88  1  0.75510911  0.26728129  0.76731227  1.0
  C  C89  1  0.74333839  0.23199466  0.73336799  1.0
  C  C90  1  0.73465429  0.19107349  0.69394709  1.0
  C  C91  1  0.55533423  0.18317670  0.66673438  1.0
  C  C92  1  0.55098477  0.14321078  0.62772449  1.0
  C  C93  1  0.72038891  0.10998631  0.61349269  1.0
  C  C94  1  0.89789624  0.11866826  0.64121121  1.0
  C  C95  1  0.90651974  0.15780935  0.68074985  1.0
  O  O96  1  0.89997310  0.04844736  0.55689043  1.0
  O  O97  1  0.55947968  0.04510560  0.44074121  1.0
  O  O98  1  0.40908556  0.94532823  0.45056114  1.0
  O  O99  1  0.07659969  0.94558986  0.54794400  1.0
  O  O100  1  0.07402154  0.95613976  0.43896117  1.0
  O  O101  1  0.41238114  0.95230066  0.55886219  1.0
  O  O102  1  0.56032436  0.05510743  0.55018909  1.0
  O  O103  1  0.89435045  0.05496753  0.44867041  1.0
  O  O104  1  0.23298772  0.03365147  0.50052005  1.0
  O  O105  1  0.74215427  0.96705526  0.50049583  1.0
  O  O106  1  0.94005269  0.44492877  0.94969452  1.0
  O  O107  1  0.60584834  0.44520232  0.05129414  1.0
  O  O108  1  0.42629943  0.54403033  0.06090938  1.0
  O  O109  1  0.08794963  0.54777448  0.94102903  1.0
  O  O110  1  0.09122513  0.55475604  0.04930346  1.0
  O  O111  1  0.42367245  0.55452830  0.95197857  1.0
  O  O112  1  0.60032607  0.45155342  0.94313202  1.0
  O  O113  1  0.94091406  0.45490212  0.05909369  1.0
  O  O114  1  0.26733811  0.46644319  0.99933589  1.0
  O  O115  1  0.75822685  0.53306243  0.99942671  1.0
  F  F116  1  0.12662743  0.36680822  0.10220617  1.0
  F  F117  1  0.37361280  0.13315298  0.39759058  1.0
  F  F118  1  0.60761704  0.63283731  0.90059430  1.0
  F  F119  1  0.89256693  0.86740141  0.59946949  1.0
  F  F120  1  0.89307774  0.63196272  0.10517541  1.0
  F  F121  1  0.60713473  0.86815916  0.39462757  1.0
  F  F122  1  0.12612844  0.36124846  0.89757840  1.0
  F  F123  1  0.37352591  0.13834162  0.60270714  1.0
