# generated using pymatgen
data_Al2H4C18ClO10F3
_symmetry_space_group_name_H-M   'P 1'
_cell_length_a   6.69199825
_cell_length_b   16.77553008
_cell_length_c   18.54884807
_cell_angle_alpha   74.44022132
_cell_angle_beta   89.79465928
_cell_angle_gamma   89.65174845
_symmetry_Int_Tables_number   1
_chemical_formula_structural   Al2H4C18ClO10F3
_chemical_formula_sum   'Al4 H8 C36 Cl2 O20 F6'
_cell_volume   2005.97123736
_cell_formula_units_Z   2
loop_
 _symmetry_equiv_pos_site_id
 _symmetry_equiv_pos_as_xyz
  1  'x, y, z'
loop_
 _atom_site_type_symbol
 _atom_site_label
 _atom_site_symmetry_multiplicity
 _atom_site_fract_x
 _atom_site_fract_y
 _atom_site_fract_z
 _atom_site_occupancy
  Al  Al0  1  0.10514485  0.49964654  0.49954812  1.0
  Al  Al1  1  0.60615135  0.50051354  0.49797862  1.0
  Al  Al2  1  0.62764215  0.00018910  0.99740721  1.0
  Al  Al3  1  0.12770123  0.99884186  0.99899002  1.0
  H  H4  1  0.59512811  0.63961361  0.26208746  1.0
  H  H5  1  0.33613882  0.71574879  0.32896017  1.0
  H  H6  1  0.84435083  0.17068412  0.78910087  1.0
  H  H7  1  0.83830857  0.29675360  0.68141629  1.0
  H  H8  1  0.35341009  0.60294687  0.50245530  1.0
  H  H9  1  0.85336187  0.39022478  0.52185290  1.0
  H  H10  1  0.38247988  0.89465634  0.04123345  1.0
  H  H11  1  0.87712735  0.09800928  0.01220627  1.0
  C  C12  1  0.35476340  0.41037223  0.41684120  1.0
  C  C13  1  0.36008255  0.39374572  0.61579583  1.0
  C  C14  1  0.85618367  0.59150731  0.58007767  1.0
  C  C15  1  0.85325644  0.60695739  0.38244360  1.0
  C  C16  1  0.01492301  0.73298818  0.29741035  1.0
  C  C17  1  0.86227491  0.67446584  0.31140587  1.0
  C  C18  1  0.71725598  0.68370494  0.25558339  1.0
  C  C19  1  0.72791575  0.74856289  0.19004630  1.0
  C  C20  1  0.87528725  0.81040613  0.17625908  1.0
  C  C21  1  0.01761974  0.79902375  0.23327032  1.0
  C  C22  1  0.20026912  0.83645245  0.25981283  1.0
  C  C23  1  0.20695949  0.75658105  0.32902572  1.0
  C  C24  1  0.87964290  0.87086757  0.85526210  1.0
  C  C25  1  0.87576929  0.82729264  0.81174985  1.0
  C  C26  1  0.87036164  0.77925754  0.76453863  1.0
  C  C27  1  0.86396599  0.73462175  0.72148021  1.0
  C  C28  1  0.85814022  0.68630258  0.67451462  1.0
  C  C29  1  0.85343010  0.64226122  0.63138184  1.0
  C  C30  1  0.35801153  0.35943049  0.36558777  1.0
  C  C31  1  0.36253553  0.31561757  0.32224134  1.0
  C  C32  1  0.36677370  0.26758133  0.27496409  1.0
  C  C33  1  0.36998768  0.22323071  0.23159200  1.0
  C  C34  1  0.37261553  0.17551425  0.18401857  1.0
  C  C35  1  0.37463128  0.13227823  0.14016286  1.0
  C  C36  1  0.52101520  0.26899901  0.70360809  1.0
  C  C37  1  0.36547320  0.32675532  0.68731001  1.0
  C  C38  1  0.21487450  0.31337264  0.74187419  1.0
  C  C39  1  0.21873629  0.24608202  0.80625785  1.0
  C  C40  1  0.37321915  0.18685202  0.82076754  1.0
  C  C41  1  0.52428675  0.20192017  0.76667679  1.0
  C  C42  1  0.72623405  0.17118856  0.74826703  1.0
  C  C43  1  0.72602964  0.25091115  0.67755022  1.0
  C  C44  1  0.37519753  0.11432930  0.88813155  1.0
  C  C45  1  0.37592501  0.08400187  0.08667169  1.0
  C  C46  1  0.87758240  0.88237720  0.10839458  1.0
  C  C47  1  0.87872185  0.91910915  0.90878946  1.0
  Cl  Cl48  1  0.75106706  0.23606191  0.58662629  1.0
  Cl  Cl49  1  0.73144713  0.07320566  0.72927670  1.0
  O  O50  1  0.52968140  0.42076848  0.58973713  1.0
  O  O51  1  0.18387147  0.43319318  0.43440436  1.0
  O  O52  1  0.02019688  0.58548103  0.41431401  1.0
  O  O53  1  0.18993898  0.41454026  0.58644120  1.0
  O  O54  1  0.02768482  0.56729262  0.56437187  1.0
  O  O55  1  0.52367011  0.42742024  0.44010169  1.0
  O  O56  1  0.35485184  0.55013332  0.49031333  1.0
  O  O57  1  0.68825316  0.57610729  0.55453935  1.0
  O  O58  1  0.68199067  0.57873922  0.40535475  1.0
  O  O59  1  0.85588343  0.45040707  0.50861803  1.0
  O  O60  1  0.20549709  0.06572185  0.06529745  1.0
  O  O61  1  0.54653588  0.08819256  0.91327295  1.0
  O  O62  1  0.70794953  0.93908231  0.92883101  1.0
  O  O63  1  0.54714835  0.06572314  0.06506985  1.0
  O  O64  1  0.70944189  0.90945433  0.08070543  1.0
  O  O65  1  0.20744956  0.08555077  0.91420099  1.0
  O  O66  1  0.37877477  0.94988382  0.00720559  1.0
  O  O67  1  0.04928019  0.91011651  0.08492763  1.0
  O  O68  1  0.04800902  0.93570831  0.93205658  1.0
  O  O69  1  0.87737761  0.04873957  0.99427464  1.0
  F  F70  1  0.58757599  0.74943895  0.13739458  1.0
  F  F71  1  0.16623644  0.90854089  0.27932400  1.0
  F  F72  1  0.36639689  0.84885050  0.21447979  1.0
  F  F73  1  0.19592569  0.77195524  0.39905119  1.0
  F  F74  1  0.05911022  0.36662634  0.73556005  1.0
  F  F75  1  0.06616176  0.24199851  0.85513123  1.0
