# generated using pymatgen
data_ZnH11C24NCl2O9
_symmetry_space_group_name_H-M   'P 1'
_cell_length_a   14.04198528
_cell_length_b   15.18847556
_cell_length_c   16.98447102
_cell_angle_alpha   87.55770403
_cell_angle_beta   83.62265332
_cell_angle_gamma   89.66844025
_symmetry_Int_Tables_number   1
_chemical_formula_structural   ZnH11C24NCl2O9
_chemical_formula_sum   'Zn2 H22 C48 N2 Cl4 O18'
_cell_volume   3596.69827696
_cell_formula_units_Z   2
loop_
 _symmetry_equiv_pos_site_id
 _symmetry_equiv_pos_as_xyz
  1  'x, y, z'
loop_
 _atom_site_type_symbol
 _atom_site_label
 _atom_site_symmetry_multiplicity
 _atom_site_fract_x
 _atom_site_fract_y
 _atom_site_fract_z
 _atom_site_occupancy
  Zn  Zn0  1  0.39407014  0.50352801  0.49566318  1.0
  Zn  Zn1  1  0.60593375  0.49652732  0.50430324  1.0
  H  H2  1  0.10540155  0.66596917  0.35645476  1.0
  H  H3  1  0.89461257  0.33399507  0.64352166  1.0
  H  H4  1  0.63423227  0.56979877  0.24184087  1.0
  H  H5  1  0.36578257  0.43017011  0.75813298  1.0
  H  H6  1  0.52732284  0.40268237  0.98687864  1.0
  H  H7  1  0.47263403  0.59728613  0.01310972  1.0
  H  H8  1  0.64434007  0.21909842  0.53614739  1.0
  H  H9  1  0.35560700  0.78096835  0.46403856  1.0
  H  H10  1  0.34581461  0.22476059  0.50695011  1.0
  H  H11  1  0.65411854  0.77529069  0.49321412  1.0
  H  H12  1  0.26419016  0.92261377  0.46770239  1.0
  H  H13  1  0.73564960  0.07744471  0.53260322  1.0
  H  H14  1  0.31253479  0.35672064  0.55802490  1.0
  H  H15  1  0.68750391  0.64331209  0.44200299  1.0
  H  H16  1  0.23674617  0.63468130  0.36075804  1.0
  H  H17  1  0.76326429  0.36527509  0.63921603  1.0
  H  H18  1  0.85768157  0.69310399  0.37335024  1.0
  H  H19  1  0.14233787  0.30686917  0.62665307  1.0
  H  H20  1  0.38039946  0.41549983  0.96415746  1.0
  H  H21  1  0.61956163  0.58447007  0.03581926  1.0
  H  H22  1  0.24679803  0.15016216  0.49362302  1.0
  H  H23  1  0.75311347  0.84987105  0.50678704  1.0
  C  C24  1  0.50442686  0.67282427  0.47264538  1.0
  C  C25  1  0.49556633  0.32724487  0.52739940  1.0
  C  C26  1  0.57988073  0.18280010  0.52746017  1.0
  C  C27  1  0.42005857  0.81725331  0.47274991  1.0
  C  C28  1  0.49441166  0.22937039  0.52339836  1.0
  C  C29  1  0.50552428  0.77067299  0.47676348  1.0
  C  C30  1  0.41037590  0.18523944  0.51113696  1.0
  C  C31  1  0.58954035  0.81480031  0.48907284  1.0
  C  C32  1  0.41069204  0.09408988  0.50166158  1.0
  C  C33  1  0.58918397  0.90594148  0.49862777  1.0
  C  C34  1  0.49821026  0.04609386  0.50527730  1.0
  C  C35  1  0.50165363  0.95394067  0.49510087  1.0
  C  C36  1  0.58360301  0.09137349  0.51896360  1.0
  C  C37  1  0.41627681  0.90866887  0.48134271  1.0
  C  C38  1  0.32601839  0.04606334  0.48768312  1.0
  C  C39  1  0.67385492  0.95398578  0.51261126  1.0
  C  C40  1  0.32939302  0.95701823  0.47783335  1.0
  C  C41  1  0.67047657  0.04302774  0.52244912  1.0
  C  C42  1  0.19527462  0.42302779  0.53165052  1.0
  C  C43  1  0.80473607  0.57694560  0.46833715  1.0
  C  C44  1  0.20766144  0.54117433  0.43883232  1.0
  C  C45  1  0.79233406  0.45878803  0.56114893  1.0
  C  C46  1  0.45599836  0.53552847  0.64536910  1.0
  C  C47  1  0.54399401  0.46449048  0.35462016  1.0
  C  C48  1  0.10768212  0.55327493  0.44283404  1.0
  C  C49  1  0.89231396  0.44667896  0.55713739  1.0
  C  C50  1  0.05066169  0.49515127  0.49634477  1.0
  C  C51  1  0.94933581  0.50480063  0.50362659  1.0
  C  C52  1  0.09421662  0.42768540  0.54116771  1.0
  C  C53  1  0.90579182  0.57228014  0.45881453  1.0
  C  C54  1  0.06379609  0.62025198  0.39792279  1.0
  C  C55  1  0.93621302  0.37971296  0.60205352  1.0
  C  C56  1  0.96585605  0.63078047  0.40559283  1.0
  C  C57  1  0.03415673  0.36918632  0.59439306  1.0
  C  C58  1  0.45185157  0.54699251  0.73313191  1.0
  C  C59  1  0.54814986  0.45299481  0.26685212  1.0
  C  C60  1  0.50092271  0.61525411  0.76478776  1.0
  C  C61  1  0.49906652  0.38473133  0.23519634  1.0
  C  C62  1  0.50901246  0.61199753  0.84628543  1.0
  C  C63  1  0.49096740  0.38798139  0.15369861  1.0
  C  C64  1  0.47045065  0.54172874  0.89669931  1.0
  C  C65  1  0.52951700  0.45824630  0.10328604  1.0
  C  C66  1  0.41602095  0.47732480  0.86390208  1.0
  C  C67  1  0.58395805  0.52264102  0.13607478  1.0
  C  C68  1  0.40660406  0.48097841  0.78288353  1.0
  C  C69  1  0.59339575  0.51900051  0.21708560  1.0
  C  C70  1  0.48585308  0.53686022  0.98070297  1.0
  C  C71  1  0.51410667  0.46311423  0.01928081  1.0
  N  N72  1  0.24964892  0.48086715  0.48392041  1.0
  N  N73  1  0.75035822  0.51910887  0.51606930  1.0
  Cl  Cl74  1  0.54935941  0.70172234  0.70469701  1.0
  Cl  Cl75  1  0.45063652  0.29828001  0.29530300  1.0
  Cl  Cl76  1  0.42733827  0.30738774  0.11315856  1.0
  Cl  Cl77  1  0.57262513  0.69258262  0.88683676  1.0
  O  O78  1  0.42383078  0.63527326  0.47829656  1.0
  O  O79  1  0.57618126  0.36475465  0.52163869  1.0
  O  O80  1  0.58486710  0.63099620  0.46546234  1.0
  O  O81  1  0.41512856  0.36909445  0.53460274  1.0
  O  O82  1  0.37822114  0.52598477  0.61534023  1.0
  O  O83  1  0.62176310  0.47412000  0.38463722  1.0
  O  O84  1  0.54049104  0.53181789  0.60992985  1.0
  O  O85  1  0.45950163  0.46814578  0.39005398  1.0
  O  O86  1  0.23846863  0.35853708  0.57142739  1.0
  O  O87  1  0.76155214  0.64144415  0.42855847  1.0
  O  O88  1  0.27072322  0.58990521  0.38951479  1.0
  O  O89  1  0.72927520  0.41005707  0.61047206  1.0
  O  O90  1  0.92819466  0.69615463  0.36193811  1.0
  O  O91  1  0.07181955  0.30381282  0.63804645  1.0
  O  O92  1  0.37059982  0.40991104  0.90838307  1.0
  O  O93  1  0.62937985  0.59004884  0.09159391  1.0
  O  O94  1  0.24014756  0.08784317  0.48410098  1.0
  O  O95  1  0.75971943  0.91220568  0.51629235  1.0
