# generated using pymatgen
data_Zn4H88C103N16O9F10
_symmetry_space_group_name_H-M   'P 1'
_cell_length_a   15.70244834
_cell_length_b   17.50038260
_cell_length_c   19.47541653
_cell_angle_alpha   108.57787493
_cell_angle_beta   113.61012094
_cell_angle_gamma   99.22364657
_symmetry_Int_Tables_number   1
_chemical_formula_structural   Zn4H88C103N16O9F10
_chemical_formula_sum   'Zn4 H88 C103 N16 O9 F10'
_cell_volume   4385.52756019
_cell_formula_units_Z   1
loop_
 _symmetry_equiv_pos_site_id
 _symmetry_equiv_pos_as_xyz
  1  'x, y, z'
loop_
 _atom_site_type_symbol
 _atom_site_label
 _atom_site_symmetry_multiplicity
 _atom_site_fract_x
 _atom_site_fract_y
 _atom_site_fract_z
 _atom_site_occupancy
  Zn  Zn0  1  0.63142192  0.10721942  0.99509407  1.0
  Zn  Zn1  1  0.36957971  0.00783504  0.99896014  1.0
  Zn  Zn2  1  0.65248488  0.99898294  0.11423698  1.0
  Zn  Zn3  1  0.35575651  0.04140373  0.85769074  1.0
  H  H4  1  0.31568360  0.93440753  0.11000849  1.0
  H  H5  1  0.62476242  0.99073795  0.68636964  1.0
  H  H6  1  0.31348775  0.95567693  0.57577840  1.0
  H  H7  1  0.20944962  0.88405218  0.29103329  1.0
  H  H8  1  0.92969699  0.26677396  0.41310473  1.0
  H  H9  1  0.06685933  0.33238850  0.55649755  1.0
  H  H10  1  0.25135979  0.61949686  0.76126127  1.0
  H  H11  1  0.10387125  0.77457043  0.65737210  1.0
  H  H12  1  0.84090701  0.58024007  0.39010494  1.0
  H  H13  1  0.58665661  0.70978265  0.20026238  1.0
  H  H14  1  0.57428681  0.56875584  0.20457117  1.0
  H  H15  1  0.10763794  0.98142338  0.73965909  1.0
  H  H16  1  0.53133953  0.41485769  0.13413571  1.0
  H  H17  1  0.34756358  0.05989363  0.70692292  1.0
  H  H18  1  0.88817532  0.79685851  0.67237562  1.0
  H  H19  1  0.93261889  0.87554952  0.05376299  1.0
  H  H20  1  0.87073929  0.98511881  0.87584476  1.0
  H  H21  1  0.41195706  0.72994702  0.94707624  1.0
  H  H22  1  0.91491517  0.19020943  0.96901877  1.0
  H  H23  1  0.96301318  0.12268958  0.01474478  1.0
  H  H24  1  0.85021750  0.23539020  0.06969363  1.0
  H  H25  1  0.90252336  0.17193658  0.11704569  1.0
  H  H26  1  0.13665045  0.97635813  0.96864054  1.0
  H  H27  1  0.07288693  0.26069621  0.15457415  1.0
  H  H28  1  0.01344658  0.32410730  0.19692888  1.0
  H  H29  1  0.01926684  0.32526729  0.10807250  1.0
  H  H30  1  0.76876975  0.84843319  0.40131000  1.0
  H  H31  1  0.63985742  0.80516206  0.36431919  1.0
  H  H32  1  0.80790390  0.82599790  0.52797729  1.0
  H  H33  1  0.68223055  0.79578153  0.50213230  1.0
  H  H34  1  0.64198426  0.66480419  0.37851951  1.0
  H  H35  1  0.73775619  0.66707488  0.46844975  1.0
  H  H36  1  0.76633976  0.69516102  0.39866086  1.0
  H  H37  1  0.75679414  0.30560080  0.16779563  1.0
  H  H38  1  0.35174276  0.47298100  0.73705700  1.0
  H  H39  1  0.31230943  0.53089686  0.67633381  1.0
  H  H40  1  0.26387478  0.33628713  0.60835263  1.0
  H  H41  1  0.22164764  0.39289762  0.54812362  1.0
  H  H42  1  0.39649603  0.47397339  0.59308893  1.0
  H  H43  1  0.37106840  0.36217370  0.54483841  1.0
  H  H44  1  0.44089709  0.41810122  0.65408485  1.0
  H  H45  1  0.49963335  0.53002786  0.84752389  1.0
  H  H46  1  0.58618580  0.62182667  0.93999512  1.0
  H  H47  1  0.41931418  0.63238268  0.79610077  1.0
  H  H48  1  0.63290038  0.02268568  0.25852014  1.0
  H  H49  1  0.51951158  0.71818062  0.88340686  1.0
  H  H50  1  0.63712728  0.66112117  0.83795834  1.0
  H  H51  1  0.55138908  0.68593043  0.76339239  1.0
  H  H52  1  0.53428686  0.57794513  0.74817974  1.0
  H  H53  1  0.45138011  0.22442416  0.79619913  1.0
  H  H54  1  0.45056593  0.32932957  0.80676438  1.0
  H  H55  1  0.26818664  0.16800692  0.69766056  1.0
  H  H56  1  0.27391807  0.27116596  0.70225405  1.0
  H  H57  1  0.39812356  0.26707886  0.64834791  1.0
  H  H58  1  0.28562719  0.18174505  0.57794620  1.0
  H  H59  1  0.30626287  0.91407838  0.22102700  1.0
  H  H60  1  0.38936642  0.16266474  0.64241592  1.0
  H  H61  1  0.86172675  0.01931767  0.69534350  1.0
  H  H62  1  0.98755934  0.02842504  0.73709006  1.0
  H  H63  1  0.88392881  0.09650779  0.83518071  1.0
  H  H64  1  0.00898880  0.10217120  0.88096053  1.0
  H  H65  1  0.04659366  0.19235622  0.81197866  1.0
  H  H66  1  0.99308881  0.24067909  0.87127451  1.0
  H  H67  1  0.92087252  0.18481011  0.76216610  1.0
  H  H68  1  0.29649918  0.81172751  0.59151320  1.0
  H  H69  1  0.24973852  0.73272986  0.61867087  1.0
  H  H70  1  0.61592128  0.94310146  0.33089261  1.0
  H  H71  1  0.46658300  0.84407545  0.70278079  1.0
  H  H72  1  0.42089464  0.76694835  0.73140528  1.0
  H  H73  1  0.36294459  0.65068535  0.58965134  1.0
  H  H74  1  0.49109964  0.70629799  0.63802098  1.0
  H  H75  1  0.40646104  0.72811088  0.55984950  1.0
  H  H76  1  0.75990352  0.77887662  0.97276336  1.0
  H  H77  1  0.67500090  0.78111312  0.01281668  1.0
  H  H78  1  0.88925950  0.78625828  0.10298160  1.0
  H  H79  1  0.81073404  0.79503585  0.14727620  1.0
  H  H80  1  0.70131955  0.64586109  0.05173123  1.0
  H  H81  1  0.28082522  0.79455969  0.90645624  1.0
  H  H82  1  0.82424963  0.64630073  0.09709580  1.0
  H  H83  1  0.76619333  0.63601705  0.99402725  1.0
  H  H84  1  0.63257807  0.37276019  0.99945449  1.0
  H  H85  1  0.57977314  0.27422795  0.90877899  1.0
  H  H86  1  0.79946369  0.35622555  0.03700762  1.0
  H  H87  1  0.74570382  0.25947358  0.94625626  1.0
  H  H88  1  0.68966323  0.33979731  0.85816365  1.0
  H  H89  1  0.81910158  0.38198194  0.92330837  1.0
  H  H90  1  0.74286812  0.43686936  0.94888889  1.0
  H  H91  1  0.70228041  0.95032510  0.59666900  1.0
  C  C92  1  0.78402223  0.03140489  0.97491950  1.0
  C  C93  1  0.75845620  0.25447601  0.18782641  1.0
  C  C94  1  0.77340799  0.66793625  0.05571935  1.0
  C  C95  1  0.64131281  0.31100338  0.97202540  1.0
  C  C96  1  0.73931727  0.32273250  0.97265297  1.0
  C  C97  1  0.74816931  0.37313040  0.92304628  1.0
  C  C98  1  0.40081528  0.19337942  0.99909078  1.0
  C  C99  1  0.29765517  0.82318042  0.86950146  1.0
  C  C100  1  0.55674871  0.00584336  0.21238780  1.0
  C  C101  1  0.46827673  0.26147457  0.00623743  1.0
  C  C102  1  0.47049791  0.96342560  0.20930949  1.0
  C  C103  1  0.79795847  0.26049486  0.26937468  1.0
  C  C104  1  0.07514371  0.96437931  0.83811886  1.0
  C  C105  1  0.37290726  0.91624516  0.27096969  1.0
  C  C106  1  0.46279934  0.93544409  0.27021415  1.0
  C  C107  1  0.26293714  0.78723509  0.78353117  1.0
  C  C108  1  0.54668848  0.93318914  0.33270323  1.0
  C  C109  1  0.54525021  0.92452915  0.40126362  1.0
  C  C110  1  0.45694231  0.91770152  0.40740402  1.0
  C  C111  1  0.61216107  0.81977021  0.12519476  1.0
  C  C112  1  0.36827380  0.90763272  0.33851991  1.0
  C  C113  1  0.63219024  0.92982172  0.47048950  1.0
  C  C114  1  0.63440590  0.94263841  0.54430653  1.0
  C  C115  1  0.54968421  0.94726227  0.55440983  1.0
  C  C116  1  0.45885572  0.92866843  0.48332434  1.0
  C  C117  1  0.37248344  0.92839189  0.49166748  1.0
  C  C118  1  0.53422707  0.74338477  0.06641113  1.0
  C  C119  1  0.28309609  0.90670608  0.41772265  1.0
  C  C120  1  0.27918685  0.89685094  0.34428007  1.0
  C  C121  1  0.55409390  0.97271286  0.63192774  1.0
  C  C122  1  0.47094800  0.98007292  0.64080838  1.0
  C  C123  1  0.41733393  0.05535785  0.74579171  1.0
  C  C124  1  0.37942274  0.95389077  0.57002329  1.0
  C  C125  1  0.84548084  0.41625160  0.35915660  1.0
  C  C126  1  0.85330295  0.33507856  0.34883631  1.0
  C  C127  1  0.92150797  0.32877065  0.41868889  1.0
  C  C128  1  0.98335503  0.40030102  0.49392964  1.0
  C  C129  1  0.47996353  0.01882306  0.72273422  1.0
  C  C130  1  0.97652798  0.48247130  0.50111606  1.0
  C  C131  1  0.90406020  0.49041914  0.43277211  1.0
  C  C132  1  0.05968050  0.39466407  0.56165294  1.0
  C  C133  1  0.12839158  0.46612603  0.63066225  1.0
  C  C134  1  0.12238662  0.55028035  0.64118652  1.0
  C  C135  1  0.47991186  0.76856611  0.00431088  1.0
  C  C136  1  0.04436775  0.55643319  0.57470126  1.0
  C  C137  1  0.03827548  0.63899312  0.58203172  1.0
  C  C138  1  0.96080719  0.64234495  0.51317516  1.0
  C  C139  1  0.89644148  0.57298140  0.44102215  1.0
  C  C140  1  0.54677600  0.22994686  0.01213447  1.0
  C  C141  1  0.19194520  0.62512993  0.71133434  1.0
  C  C142  1  0.18713408  0.70601139  0.71661377  1.0
  C  C143  1  0.10865030  0.71189891  0.65256939  1.0
  C  C144  1  0.51892747  0.65952931  0.06680528  1.0
  C  C145  1  0.45974052  0.34286336  0.00293710  1.0
  C  C146  1  0.41788912  0.42444338  0.92167368  1.0
  C  C147  1  0.55544348  0.03189741  0.79973691  1.0
  C  C148  1  0.41719307  0.34611687  0.92442776  1.0
  C  C149  1  0.49901378  0.41735577  0.07412512  1.0
  C  C150  1  0.50256928  0.49758803  0.07169904  1.0
  C  C151  1  0.39521110  0.96057351  0.13736917  1.0
  C  C152  1  0.46363389  0.50307147  0.99330977  1.0
  C  C153  1  0.47425167  0.58528910  0.99271366  1.0
  C  C154  1  0.55340603  0.65176097  0.14311331  1.0
  C  C155  1  0.54629750  0.57363907  0.14556969  1.0
  C  C156  1  0.99476756  0.77465409  0.77010300  1.0
  C  C157  1  0.89070467  0.93378914  0.96734092  1.0
  C  C158  1  0.97891444  0.83309094  0.96267363  1.0
  C  C159  1  0.30676210  0.85474385  0.77083752  1.0
  C  C160  1  0.93535490  0.88147470  0.00073555  1.0
  C  C161  1  0.90226931  0.94313190  0.90129315  1.0
  C  C162  1  0.77860336  0.17426311  0.25484570  1.0
  C  C163  1  0.94764053  0.89570263  0.86536981  1.0
  C  C164  1  0.98331004  0.83542689  0.89319635  1.0
  C  C165  1  0.02833591  0.78800856  0.84913484  1.0
  C  C166  1  0.94844984  0.82071867  0.73549280  1.0
  C  C167  1  0.96753559  0.91096398  0.79666556  1.0
  C  C168  1  0.77447838  0.94072195  0.03114139  1.0
  C  C169  1  0.82559879  0.96981517  0.99325800  1.0
  C  C170  1  0.90582574  0.15342296  0.00346205  1.0
  C  C171  1  0.91202695  0.21027209  0.08389549  1.0
  C  C172  1  0.00977759  0.28407642  0.13877744  1.0
  C  C173  1  0.13104367  0.98758552  0.80229338  1.0
  C  C174  1  0.71226512  0.84056616  0.42058436  1.0
  C  C175  1  0.73247292  0.79305306  0.47568853  1.0
  C  C176  1  0.71881323  0.69985292  0.42759970  1.0
  C  C177  1  0.29326016  0.46918816  0.67988094  1.0
  C  C178  1  0.28291596  0.39761064  0.60456741  1.0
  C  C179  1  0.37796861  0.41375580  0.59885366  1.0
  C  C180  1  0.51092802  0.59597620  0.88773973  1.0
  C  C181  1  0.49785723  0.65131409  0.84033436  1.0
  C  C182  1  0.55830277  0.64351648  0.79500620  1.0
  C  C183  1  0.40523416  0.26582440  0.79237764  1.0
  C  C184  1  0.14639334  0.98480988  0.91914550  1.0
  C  C185  1  0.31678545  0.22730668  0.70653470  1.0
  C  C186  1  0.34916165  0.20864809  0.64026384  1.0
  C  C187  1  0.92525318  0.02329256  0.74994691  1.0
  C  C188  1  0.94915608  0.10183686  0.82615732  1.0
  C  C189  1  0.97895044  0.18433150  0.81737103  1.0
  C  C190  1  0.30858262  0.79291065  0.64244429  1.0
  C  C191  1  0.40934248  0.78280486  0.67864724  1.0
  C  C192  1  0.41788524  0.71309504  0.61295034  1.0
  C  C193  1  0.75350839  0.79975173  0.02971406  1.0
  C  C194  1  0.81185111  0.76512732  0.08882842  1.0
  N  N195  1  0.71149676  0.03319209  0.99463575  1.0
  N  N196  1  0.60645018  0.88164842  0.09939948  1.0
  N  N197  1  0.45354203  0.08741370  0.82916253  1.0
  N  N198  1  0.52242066  0.85021792  0.02377399  1.0
  N  N199  1  0.54204919  0.07223278  0.86333180  1.0
  N  N200  1  0.36299860  0.92455120  0.84344969  1.0
  N  N201  1  0.70500774  0.97719874  0.02970125  1.0
  N  N202  1  0.52664290  0.15129382  0.00829493  1.0
  N  N203  1  0.43526462  0.99688678  0.10102434  1.0
  N  N204  1  0.73390959  0.12230631  0.17458537  1.0
  N  N205  1  0.22756258  0.02004444  0.85858671  1.0
  N  N206  1  0.23711970  0.01663403  0.93066423  1.0
  N  N207  1  0.72117439  0.17269384  0.13200375  1.0
  N  N208  1  0.43262335  0.12464834  0.99751607  1.0
  N  N209  1  0.53585890  0.02463054  0.14669779  1.0
  N  N210  1  0.35547283  0.90526163  0.90427006  1.0
  O  O211  1  0.80935257  0.08767943  0.94603120  1.0
  O  O212  1  0.71539716  0.92689156  0.46282195  1.0
  O  O213  1  0.20672486  0.45811088  0.69075086  1.0
  O  O214  1  0.44137916  0.59328829  0.91886129  1.0
  O  O215  1  0.37416067  0.27117757  0.85425603  1.0
  O  O216  1  0.89549648  0.94410157  0.75484552  1.0
  O  O217  1  0.29752459  0.86146624  0.70083204  1.0
  O  O218  1  0.79618147  0.89248258  0.07384004  1.0
  O  O219  1  0.63666339  0.26316192  0.02041973  1.0
  F  F220  1  0.79782232  0.13981452  0.31018101  1.0
  F  F221  1  0.63478871  0.00726755  0.81227901  1.0
  F  F222  1  0.31392481  0.19238859  0.99548816  1.0
  F  F223  1  0.19872674  0.89959782  0.42407817  1.0
  F  F224  1  0.77799593  0.42468970  0.29291656  1.0
  F  F225  1  0.68828626  0.83459944  0.19880010  1.0
  F  F226  1  0.95448872  0.72152538  0.52107747  1.0
  F  F227  1  0.37140859  0.42346491  0.84507225  1.0
  F  F228  1  0.10892257  0.77065147  0.89404533  1.0
  F  F229  1  0.01750811  0.78005858  0.99470030  1.0
