# generated using pymatgen
data_CuSiH16C24N8(O4F3)2
_symmetry_space_group_name_H-M   'P 1'
_cell_length_a   7.84182397
_cell_length_b   13.48861011
_cell_length_c   13.48922964
_cell_angle_alpha   89.49309471
_cell_angle_beta   83.00198301
_cell_angle_gamma   83.00525327
_symmetry_Int_Tables_number   1
_chemical_formula_structural   CuSiH16C24N8(O4F3)2
_chemical_formula_sum   'Cu1 Si1 H16 C24 N8 O8 F6'
_cell_volume   1405.63176774
_cell_formula_units_Z   1
loop_
 _symmetry_equiv_pos_site_id
 _symmetry_equiv_pos_as_xyz
  1  'x, y, z'
loop_
 _atom_site_type_symbol
 _atom_site_label
 _atom_site_symmetry_multiplicity
 _atom_site_fract_x
 _atom_site_fract_y
 _atom_site_fract_z
 _atom_site_occupancy
  Cu  Cu0  1  0.49999468  0.49804467  0.50198152  1.0
  Si  Si1  1  0.99998836  0.49810962  0.50192214  1.0
  H  H2  1  0.27066039  0.56913708  0.35240981  1.0
  H  H3  1  0.28371905  0.58202756  0.17080633  1.0
  H  H4  1  0.81003897  0.43055201  0.14995622  1.0
  H  H5  1  0.77970292  0.43302422  0.33473723  1.0
  H  H6  1  0.21494846  0.43295183  0.85280172  1.0
  H  H7  1  0.68112742  0.58067876  0.83425520  1.0
  H  H8  1  0.70059606  0.56786889  0.65235659  1.0
  H  H9  1  0.24399494  0.43544716  0.66800442  1.0
  H  H10  1  0.29936074  0.34768165  0.43219348  1.0
  H  H11  1  0.31879892  0.16578624  0.41928469  1.0
  H  H12  1  0.78505076  0.14722296  0.56697620  1.0
  H  H13  1  0.75596087  0.33201694  0.56456146  1.0
  H  H14  1  0.18998208  0.85007804  0.56938282  1.0
  H  H15  1  0.71622173  0.82921066  0.41793839  1.0
  H  H16  1  0.72935246  0.64760153  0.43084033  1.0
  H  H17  1  0.22021163  0.66531038  0.56697292  1.0
  C  C18  1  0.38873709  0.54026829  0.30485595  1.0
  C  C19  1  0.39584666  0.54449087  0.20163404  1.0
  C  C20  1  0.54649316  0.50299617  0.14184289  1.0
  C  C21  1  0.68753909  0.46246172  0.19084105  1.0
  C  C22  1  0.67178684  0.46225704  0.29455493  1.0
  C  C23  1  0.56017021  0.50167330  0.03246725  1.0
  C  C24  1  0.43578588  0.50301324  0.97103607  1.0
  C  C25  1  0.32465944  0.46410123  0.81213571  1.0
  C  C26  1  0.44956818  0.50362729  0.86163052  1.0
  C  C27  1  0.58418864  0.54393110  0.80257106  1.0
  C  C28  1  0.59339593  0.53969699  0.69925864  1.0
  C  C29  1  0.34071878  0.46384010  0.70839457  1.0
  C  C30  1  0.40653837  0.30076554  0.46033097  1.0
  C  C31  1  0.41572124  0.19745256  0.45605231  1.0
  C  C32  1  0.55043586  0.13839117  0.49629781  1.0
  C  C33  1  0.67534340  0.18789130  0.53586157  1.0
  C  C34  1  0.65923655  0.29163639  0.53617169  1.0
  C  C35  1  0.56425946  0.02900107  0.49688816  1.0
  C  C36  1  0.43986607  0.96757362  0.49829839  1.0
  C  C37  1  0.31247077  0.80918039  0.53750090  1.0
  C  C38  1  0.45348069  0.85817915  0.49694683  1.0
  C  C39  1  0.60408608  0.79837748  0.45545681  1.0
  C  C40  1  0.61121509  0.69515345  0.45969802  1.0
  C  C41  1  0.32821054  0.70545974  0.53773658  1.0
  N  N42  1  0.52385418  0.49945181  0.35028340  1.0
  N  N43  1  0.47434952  0.49997884  0.65324330  1.0
  N  N44  1  0.52561755  0.34677113  0.50002469  1.0
  N  N45  1  0.47611921  0.64972167  0.50054785  1.0
  N  N46  1  0.74272473  0.49683280  0.98437283  1.0
  N  N47  1  0.25397544  0.50318815  0.01890635  1.0
  N  N48  1  0.74610848  0.98113151  0.49648321  1.0
  N  N49  1  0.25725713  0.01569463  0.50328883  1.0
  O  O50  1  0.80656892  0.57621992  0.98180798  1.0
  O  O51  1  0.81573195  0.41475072  0.95364349  1.0
  O  O52  1  0.16350554  0.58493875  0.02312544  1.0
  O  O53  1  0.20802994  0.42251183  0.04806790  1.0
  O  O54  1  0.83628768  0.97704442  0.41463945  1.0
  O  O55  1  0.79235256  0.95183016  0.57704444  1.0
  O  O56  1  0.19319800  0.01823825  0.42397656  1.0
  O  O57  1  0.18445982  0.04639597  0.58542416  1.0
  F  F58  1  0.21608512  0.50524396  0.50903084  1.0
  F  F59  1  0.78388447  0.49096335  0.49477977  1.0
  F  F60  1  0.99996773  0.58874233  0.41132011  1.0
  F  F61  1  0.99996058  0.40805975  0.59197280  1.0
  F  F62  1  0.05310614  0.40836041  0.41037262  1.0
  F  F63  1  0.94685960  0.58964533  0.59168698  1.0
