# generated using pymatgen
data_Al6H50C101O33
_symmetry_space_group_name_H-M   'P 1'
_cell_length_a   12.72800856
_cell_length_b   12.82524955
_cell_length_c   27.62951624
_cell_angle_alpha   88.21211409
_cell_angle_beta   89.10605338
_cell_angle_gamma   61.40427198
_symmetry_Int_Tables_number   1
_chemical_formula_structural   Al6H50C101O33
_chemical_formula_sum   'Al6 H50 C101 O33'
_cell_volume   3958.14509945
_cell_formula_units_Z   1
loop_
 _symmetry_equiv_pos_site_id
 _symmetry_equiv_pos_as_xyz
  1  'x, y, z'
loop_
 _atom_site_type_symbol
 _atom_site_label
 _atom_site_symmetry_multiplicity
 _atom_site_fract_x
 _atom_site_fract_y
 _atom_site_fract_z
 _atom_site_occupancy
  Al  Al0  1  0.81854761  0.57582779  0.49689137  1.0
  Al  Al1  1  0.07606392  0.34052742  0.49868328  1.0
  Al  Al2  1  0.06844234  0.57789305  0.49896984  1.0
  Al  Al3  1  0.83981133  0.08801284  0.98291913  1.0
  Al  Al4  1  0.58801160  0.08779661  0.98216866  1.0
  Al  Al5  1  0.58432743  0.32282676  0.98208444  1.0
  H  H6  1  0.28984486  0.17880322  0.21281789  1.0
  H  H7  1  0.77313818  0.69386857  0.20723512  1.0
  H  H8  1  0.64173929  0.86557450  0.27773381  1.0
  H  H9  1  0.67282540  0.03797561  0.22131284  1.0
  H  H10  1  0.67292336  0.52818935  0.21663677  1.0
  H  H11  1  0.65105929  0.37302790  0.28688336  1.0
  H  H12  1  0.89349730  0.47980979  0.25926087  1.0
  H  H13  1  0.01532299  0.28790046  0.19514731  1.0
  H  H14  1  0.99359666  0.13260495  0.26541066  1.0
  H  H15  1  0.77263426  0.18108425  0.22275331  1.0
  H  H16  1  0.43074407  0.11165928  0.85736218  1.0
  H  H17  1  0.46333857  0.15194861  0.28238223  1.0
  H  H18  1  0.29336214  0.18538205  0.61797693  1.0
  H  H19  1  0.40517522  0.03050714  0.78039008  1.0
  H  H20  1  0.36136137  0.05446773  0.69306429  1.0
  H  H21  1  0.36137117  0.47375538  0.86168986  1.0
  H  H22  1  0.24057601  0.63038087  0.69930251  1.0
  H  H23  1  0.22179038  0.54829105  0.62330968  1.0
  H  H24  1  0.91126773  0.98731248  0.84604363  1.0
  H  H25  1  0.00334823  0.80950556  0.61370338  1.0
  H  H26  1  0.00876023  0.97744465  0.76573059  1.0
  H  H27  1  0.12070694  0.38815916  0.25866081  1.0
  H  H28  1  0.04057903  0.91523251  0.68070114  1.0
  H  H29  1  0.63038862  0.89328358  0.85958895  1.0
  H  H30  1  0.56526639  0.82597953  0.78729192  1.0
  H  H31  1  0.59051171  0.77373989  0.70095740  1.0
  H  H32  1  0.71227593  0.73002522  0.62476155  1.0
  H  H33  1  0.71847761  0.51013530  0.61845665  1.0
  H  H34  1  0.56535216  0.60270369  0.77906911  1.0
  H  H35  1  0.59293134  0.59962198  0.69058352  1.0
  H  H36  1  0.95935298  0.18035252  0.87552588  1.0
  H  H37  1  0.19241827  0.52456580  0.19713553  1.0
  H  H38  1  0.14046590  0.11461808  0.71629220  1.0
  H  H39  1  0.06372067  0.20260026  0.63376339  1.0
  H  H40  1  0.36606356  0.49772999  0.26664686  1.0
  H  H41  1  0.53504785  0.28829919  0.22080352  1.0
  H  H42  1  0.01830793  0.80498002  0.20274683  1.0
  H  H43  1  0.88692201  0.97653388  0.27311904  1.0
  H  H44  1  0.98732337  0.63247758  0.25907416  1.0
  H  H45  1  0.22541208  0.79822203  0.80087489  1.0
  H  H46  1  0.17064693  0.75922602  0.74981447  1.0
  H  H47  1  0.40631482  0.76043652  0.76335280  1.0
  H  H48  1  0.40849316  0.64774466  0.72729694  1.0
  H  H49  1  0.25515943  0.80004859  0.67174813  1.0
  H  H50  1  0.37707333  0.82913517  0.67731996  1.0
  H  H51  1  0.24267744  0.91529973  0.70971097  1.0
  H  H52  1  0.44049426  0.62429151  0.87090340  1.0
  H  H53  1  0.21992393  0.05558671  0.87128945  1.0
  H  H54  1  0.62213970  0.60967339  0.51131212  1.0
  H  H55  1  0.03681183  0.95456825  0.00566360  1.0
  C  C56  1  0.90833659  0.36992394  0.42971263  1.0
  C  C57  1  0.26020827  0.37851651  0.38221199  1.0
  C  C58  1  0.44285627  0.31054507  0.22984184  1.0
  C  C59  1  0.34636323  0.32514402  0.19051312  1.0
  C  C60  1  0.34920908  0.42689602  0.25432185  1.0
  C  C61  1  0.30936527  0.35149933  0.28898694  1.0
  C  C62  1  0.25244386  0.44202132  0.21653513  1.0
  C  C63  1  0.21290630  0.36597407  0.24965705  1.0
  C  C64  1  0.36999860  0.31103188  0.14023848  1.0
  C  C65  1  0.28533554  0.36541723  0.33924610  1.0
  C  C66  1  0.86159176  0.91395515  0.25799468  1.0
  C  C67  1  0.20944009  0.39905408  0.43003462  1.0
  C  C68  1  0.93494587  0.81816237  0.21983340  1.0
  C  C69  1  0.78137876  0.89607347  0.09706857  1.0
  C  C70  1  0.87615005  0.76838034  0.38296409  1.0
  C  C71  1  0.74278981  0.94777093  0.23038969  1.0
  C  C72  1  0.81609250  0.85207197  0.19083198  1.0
  C  C73  1  0.72503792  0.85228036  0.26055244  1.0
  C  C74  1  0.84393031  0.81820258  0.28953207  1.0
  C  C75  1  0.79841331  0.75639844  0.22244871  1.0
  C  C76  1  0.91726356  0.72261484  0.24998308  1.0
  C  C77  1  0.79826453  0.87351688  0.14035722  1.0
  C  C78  1  0.89878416  0.71534169  0.43087290  1.0
  C  C79  1  0.86115780  0.79476346  0.33992356  1.0
  C  C80  1  0.73144142  0.35414514  0.26587373  1.0
  C  C81  1  0.74414077  0.44037207  0.22784518  1.0
  C  C82  1  0.77442722  0.31649186  0.10042281  1.0
  C  C83  1  0.89110557  0.33711126  0.38241324  1.0
  C  C84  1  0.79968071  0.24728303  0.23167706  1.0
  C  C85  1  0.81160659  0.33386489  0.19235032  1.0
  C  C86  1  0.92229424  0.22029865  0.25413150  1.0
  C  C87  1  0.85486084  0.32658216  0.28969990  1.0
  C  C88  1  0.93492762  0.30658686  0.21612175  1.0
  C  C89  1  0.91039700  0.36782147  0.56868682  1.0
  C  C90  1  0.86671145  0.41337713  0.25039609  1.0
  C  C91  1  0.79069170  0.32946133  0.14263025  1.0
  C  C92  1  0.87547029  0.32856661  0.33963906  1.0
  C  C93  1  0.29015029  0.25761480  0.63882293  1.0
  C  C94  1  0.31846746  0.24053712  0.68834951  1.0
  C  C95  1  0.37168915  0.21155301  0.78960471  1.0
  C  C96  1  0.37892605  0.11560767  0.76187603  1.0
  C  C97  1  0.35396152  0.12917034  0.71350733  1.0
  C  C98  1  0.40098191  0.19753107  0.83894090  1.0
  C  C99  1  0.39800707  0.29155384  0.86452225  1.0
  C  C100  1  0.21309630  0.39180387  0.56507088  1.0
  C  C101  1  0.25005118  0.46292232  0.64193716  1.0
  C  C102  1  0.27600989  0.44984207  0.69155931  1.0
  C  C103  1  0.31048024  0.33760416  0.71522716  1.0
  C  C104  1  0.26787770  0.54628206  0.71868528  1.0
  C  C105  1  0.29362206  0.53335604  0.76732711  1.0
  C  C106  1  0.33037152  0.42027576  0.79241439  1.0
  C  C107  1  0.33681433  0.32376228  0.76557320  1.0
  C  C108  1  0.36175549  0.40242148  0.84146091  1.0
  C  C109  1  0.25601238  0.36828363  0.61588322  1.0
  C  C110  1  0.93026651  0.80994869  0.63496957  1.0
  C  C111  1  0.89292139  0.70351881  0.56776030  1.0
  C  C112  1  0.90666351  0.85575914  0.68171105  1.0
  C  C113  1  0.87000319  0.92756533  0.77995884  1.0
  C  C114  1  0.95587721  0.94085726  0.74990296  1.0
  C  C115  1  0.97361649  0.90621808  0.70291425  1.0
  C  C116  1  0.85581390  0.95525757  0.82906225  1.0
  C  C117  1  0.77017033  0.94261640  0.85739656  1.0
  C  C118  1  0.76570893  0.76466942  0.64156331  1.0
  C  C119  1  0.74129566  0.80640061  0.68887292  1.0
  C  C120  1  0.81443449  0.84959264  0.70990812  1.0
  C  C121  1  0.64819800  0.80330002  0.71775873  1.0
  C  C122  1  0.40332971  0.23452542  0.26298521  1.0
  C  C123  1  0.63378459  0.83294298  0.76532251  1.0
  C  C124  1  0.70828288  0.87302240  0.78790697  1.0
  C  C125  1  0.79693967  0.88409132  0.75902438  1.0
  C  C126  1  0.69658488  0.90239775  0.83693191  1.0
  C  C127  1  0.86176946  0.76277995  0.61539584  1.0
  C  C128  1  0.78573087  0.44198969  0.64208723  1.0
  C  C129  1  0.76782425  0.44355004  0.69215742  1.0
  C  C130  1  0.73353528  0.44390695  0.79410098  1.0
  C  C131  1  0.64663485  0.53437090  0.76297922  1.0
  C  C132  1  0.66173512  0.53273222  0.71409706  1.0
  C  C133  1  0.30659343  0.24965310  0.22519478  1.0
  C  C134  1  0.71285393  0.43864960  0.84414922  1.0
  C  C135  1  0.79316582  0.33923206  0.87173121  1.0
  C  C136  1  0.98113846  0.26788318  0.65052652  1.0
  C  C137  1  0.96609174  0.26591604  0.70096858  1.0
  C  C138  1  0.85859996  0.35481426  0.72234391  1.0
  C  C139  1  0.05626110  0.17966066  0.73207743  1.0
  C  C140  1  0.04141357  0.17795283  0.78142001  1.0
  C  C141  1  0.93034937  0.26251883  0.80348004  1.0
  C  C142  1  0.84157666  0.35380530  0.77329373  1.0
  C  C143  1  0.90093644  0.25451894  0.85197253  1.0
  C  C144  1  0.39430021  0.29713480  0.09720946  1.0
  C  C145  1  0.89144563  0.35553766  0.62140602  1.0
  C  C146  1  0.75745055  0.94618411  0.04866206  1.0
  C  C147  1  0.44514598  0.27331204  0.04943594  1.0
  C  C148  1  0.75470578  0.28311594  0.05365362  1.0
  C  C149  1  0.75528627  0.97965343  0.90874680  1.0
  C  C150  1  0.44618666  0.26897473  0.91465050  1.0
  C  C151  1  0.75929706  0.30961113  0.91990807  1.0
  C  C152  1  0.25111718  0.73539729  0.77143181  1.0
  C  C153  1  0.35081599  0.73767731  0.74041250  1.0
  C  C154  1  0.30359000  0.82556582  0.69739432  1.0
  C  C155  1  0.60984733  0.54243526  0.86721095  1.0
  C  C156  1  0.14419220  0.08684221  0.81006818  1.0
  O  O157  1  0.82260889  0.68851332  0.44857349  1.0
  O  O158  1  0.19865566  0.31247418  0.54363450  1.0
  O  O159  1  0.18574556  0.49431553  0.54610025  1.0
  O  O160  1  0.99069072  0.68890945  0.54699421  1.0
  O  O161  1  0.98966471  0.49663531  0.49819488  1.0
  O  O162  1  0.82784968  0.17923664  0.04090451  1.0
  O  O163  1  0.83558103  0.96724490  0.02870941  1.0
  O  O164  1  0.65506521  0.97086688  0.03036687  1.0
  O  O165  1  0.47139343  0.17318317  0.03159940  1.0
  O  O166  1  0.46591567  0.35327587  0.02936857  1.0
  O  O167  1  0.66249123  0.36020449  0.02978125  1.0
  O  O168  1  0.83388495  0.47318463  0.44238407  1.0
  O  O169  1  0.83404708  0.21564444  0.94138548  1.0
  O  O170  1  0.82761590  0.01160286  0.92479982  1.0
  O  O171  1  0.66734680  0.98051413  0.93313555  1.0
  O  O172  1  0.46862464  0.16955363  0.93559548  1.0
  O  O173  1  0.46947265  0.34566011  0.93334614  1.0
  O  O174  1  0.65135561  0.37768502  0.93453882  1.0
  O  O175  1  0.66863906  0.16708937  0.98306969  1.0
  O  O176  1  0.00011593  0.29367144  0.45425851  1.0
  O  O177  1  0.18586318  0.31927752  0.44801409  1.0
  O  O178  1  0.18627617  0.49640493  0.44987567  1.0
  O  O179  1  0.99816507  0.69495773  0.45083492  1.0
  O  O180  1  0.82402537  0.66758195  0.55152314  1.0
  O  O181  1  0.82853561  0.45391337  0.54527764  1.0
  O  O182  1  0.01246279  0.29329337  0.55089750  1.0
  O  O183  1  0.28708291  0.62144460  0.79530981  1.0
  O  O184  1  0.62190721  0.61470393  0.89085194  1.0
  O  O185  1  0.50223376  0.55256161  0.85568986  1.0
  O  O186  1  0.21668299  0.98903834  0.79508079  1.0
  O  O187  1  0.15304791  0.12267444  0.85472189  1.0
  O  O188  1  0.66164457  0.64966719  0.49552831  1.0
  O  O189  1  0.99710831  0.01512366  0.98076083  1.0
