# generated using pymatgen
data_AlH4C8O5F
_symmetry_space_group_name_H-M   'P 1'
_cell_length_a   6.71604175
_cell_length_b   11.13792647
_cell_length_c   11.13847737
_cell_angle_alpha   93.16808568
_cell_angle_beta   106.97241339
_cell_angle_gamma   106.96200135
_symmetry_Int_Tables_number   1
_chemical_formula_structural   AlH4C8O5F
_chemical_formula_sum   'Al2 H8 C16 O10 F2'
_cell_volume   753.20010121
_cell_formula_units_Z   2
loop_
 _symmetry_equiv_pos_site_id
 _symmetry_equiv_pos_as_xyz
  1  'x, y, z'
loop_
 _atom_site_type_symbol
 _atom_site_label
 _atom_site_symmetry_multiplicity
 _atom_site_fract_x
 _atom_site_fract_y
 _atom_site_fract_z
 _atom_site_occupancy
  Al  Al0  1  0.99992272  0.50087698  0.49899142  1.0
  Al  Al1  1  0.49995875  0.50391487  0.49605449  1.0
  H  H2  1  0.36645989  0.58375797  0.65088657  1.0
  H  H3  1  0.63319663  0.34914133  0.41596148  1.0
  H  H4  1  0.36813278  0.49067069  0.10914463  1.0
  H  H5  1  0.75051839  0.51779544  0.12588340  1.0
  H  H6  1  0.24032900  0.49145076  0.87416220  1.0
  H  H7  1  0.63262993  0.89131951  0.51063826  1.0
  H  H8  1  0.24873396  0.87364342  0.48187185  1.0
  H  H9  1  0.76058439  0.12615243  0.50937752  1.0
  C  C10  1  0.86065543  0.72832798  0.49830206  1.0
  C  C11  1  0.86176343  0.50804549  0.72698784  1.0
  C  C12  1  0.13858935  0.27288277  0.49169913  1.0
  C  C13  1  0.13892823  0.50199502  0.27160824  1.0
  C  C14  1  0.92710390  0.50640714  0.86706909  1.0
  C  C15  1  0.06731527  0.50382542  0.13161914  1.0
  C  C16  1  0.79300702  0.51399820  0.94135361  1.0
  C  C17  1  0.20611483  0.49684796  0.06069683  1.0
  C  C18  1  0.85888698  0.51221419  0.07116919  1.0
  C  C19  1  0.13530949  0.49757563  0.93063609  1.0
  C  C20  1  0.07307128  0.13281523  0.49344682  1.0
  C  C21  1  0.93263874  0.86834241  0.49659355  1.0
  C  C22  1  0.20671694  0.05830825  0.48564307  1.0
  C  C23  1  0.79435014  0.93950147  0.50398347  1.0
  C  C24  1  0.14075952  0.92852926  0.48774802  1.0
  C  C25  1  0.86524215  0.06952835  0.50294890  1.0
  O  O26  1  0.00249563  0.67278393  0.50176274  1.0
  O  O27  1  0.66975274  0.51191086  0.67117294  1.0
  O  O28  1  0.33126488  0.32873882  0.48882635  1.0
  O  O29  1  0.99741849  0.49939712  0.32716390  1.0
  O  O30  1  0.99363720  0.32558803  0.49259749  1.0
  O  O31  1  0.33448390  0.50196419  0.32387074  1.0
  O  O32  1  0.66453482  0.67606248  0.49728214  1.0
  O  O33  1  0.00633691  0.50622132  0.67426925  1.0
  O  O34  1  0.30717570  0.55886700  0.55936617  1.0
  O  O35  1  0.69268312  0.44063356  0.44096181  1.0
  F  F36  1  0.58991404  0.52442602  0.88805798  1.0
  F  F37  1  0.40935910  0.11126014  0.47448067  1.0
