# generated using pymatgen
data_AlH8C21NO7F
_symmetry_space_group_name_H-M   'P 1'
_cell_length_a   6.80637983
_cell_length_b   10.39233833
_cell_length_c   29.97557114
_cell_angle_alpha   89.99953129
_cell_angle_beta   87.26650758
_cell_angle_gamma   89.99976186
_symmetry_Int_Tables_number   1
_chemical_formula_structural   AlH8C21NO7F
_chemical_formula_sum   'Al4 H32 C84 N4 O28 F4'
_cell_volume   2117.88556102
_cell_formula_units_Z   4
loop_
 _symmetry_equiv_pos_site_id
 _symmetry_equiv_pos_as_xyz
  1  'x, y, z'
loop_
 _atom_site_type_symbol
 _atom_site_label
 _atom_site_symmetry_multiplicity
 _atom_site_fract_x
 _atom_site_fract_y
 _atom_site_fract_z
 _atom_site_occupancy
  Al  Al0  1  0.75686607  0.74607789  0.61976239  1.0
  Al  Al1  1  0.24313757  0.25394401  0.38023352  1.0
  Al  Al2  1  0.74313912  0.24608900  0.38023532  1.0
  Al  Al3  1  0.25686670  0.75394252  0.61976426  1.0
  H  H4  1  0.79258870  0.85006550  0.76275486  1.0
  H  H5  1  0.20735140  0.14991406  0.23723572  1.0
  H  H6  1  0.70733816  0.35008538  0.23723637  1.0
  H  H7  1  0.29259111  0.64992882  0.76275688  1.0
  H  H8  1  0.83325162  0.97715598  0.83151713  1.0
  H  H9  1  0.16659693  0.02278605  0.16848281  1.0
  H  H10  1  0.66659987  0.47719852  0.16848057  1.0
  H  H11  1  0.33325699  0.52282049  0.83151470  1.0
  H  H12  1  0.04515723  0.04936748  0.96633957  1.0
  H  H13  1  0.95448914  0.95053125  0.03369313  1.0
  H  H14  1  0.45448316  0.54946000  0.03368633  1.0
  H  H15  1  0.54518961  0.45061963  0.96633234  1.0
  H  H16  1  0.79672646  0.89758995  0.30768439  1.0
  H  H17  1  0.20327196  0.10243099  0.69234391  1.0
  H  H18  1  0.70327306  0.39757709  0.69233642  1.0
  H  H19  1  0.29671958  0.60243904  0.30767719  1.0
  H  H20  1  0.00342411  0.41662190  0.15760210  1.0
  H  H21  1  0.99658890  0.58331917  0.84244089  1.0
  H  H22  1  0.49654715  0.91666685  0.84243327  1.0
  H  H23  1  0.50337039  0.08337718  0.15759538  1.0
  H  H24  1  0.00945350  0.28001338  0.09025966  1.0
  H  H25  1  0.99046592  0.71990266  0.90978836  1.0
  H  H26  1  0.49041947  0.78008660  0.90978119  1.0
  H  H27  1  0.50939853  0.21998148  0.09025283  1.0
  H  H28  1  0.02268256  0.17702404  0.03596981  1.0
  H  H29  1  0.97691582  0.82285736  0.96406758  1.0
  H  H30  1  0.47689318  0.67712999  0.96406023  1.0
  H  H31  1  0.52270810  0.32296600  0.03596313  1.0
  H  H32  1  0.51921175  0.91065207  0.60137838  1.0
  H  H33  1  0.48079661  0.08935444  0.39860183  1.0
  H  H34  1  0.98079780  0.41067078  0.39861052  1.0
  H  H35  1  0.01921893  0.58936267  0.60138605  1.0
  C  C36  1  0.48671970  0.61021627  0.68123793  1.0
  C  C37  1  0.51328718  0.38981045  0.31876365  1.0
  C  C38  1  0.01328736  0.11022292  0.31876222  1.0
  C  C39  1  0.98671133  0.88980571  0.68123636  1.0
  C  C40  1  0.52090797  0.60376356  0.55788739  1.0
  C  C41  1  0.47908394  0.39624102  0.44211553  1.0
  C  C42  1  0.97909884  0.10377154  0.44211070  1.0
  C  C43  1  0.02091759  0.89624363  0.55788020  1.0
  C  C44  1  0.04519625  0.13061375  0.88271357  1.0
  C  C45  1  0.95456800  0.86930519  0.11731744  1.0
  C  C46  1  0.45458109  0.63068823  0.11731023  1.0
  C  C47  1  0.54521706  0.36936927  0.88270609  1.0
  C  C48  1  0.01093907  0.33024709  0.83729941  1.0
  C  C49  1  0.98892826  0.66969302  0.16273760  1.0
  C  C50  1  0.48893542  0.83030479  0.16273032  1.0
  C  C51  1  0.51095145  0.16973635  0.83729032  1.0
  C  C52  1  0.12703759  0.15063111  0.76020813  1.0
  C  C53  1  0.87289464  0.84934749  0.23982051  1.0
  C  C54  1  0.37290186  0.65066284  0.23981319  1.0
  C  C55  1  0.62704684  0.34936291  0.76019975  1.0
  C  C56  1  0.11752162  0.07476418  0.72240265  1.0
  C  C57  1  0.88244726  0.92523655  0.27761932  1.0
  C  C58  1  0.38244502  0.57478239  0.27761381  1.0
  C  C59  1  0.61752774  0.42523854  0.72239647  1.0
  C  C60  1  0.89034254  0.93308374  0.76233509  1.0
  C  C61  1  0.10959263  0.06689774  0.23766517  1.0
  C  C62  1  0.60958837  0.43310677  0.23766376  1.0
  C  C63  1  0.39034727  0.56691128  0.76233416  1.0
  C  C64  1  0.91155643  0.00547402  0.80075333  1.0
  C  C65  1  0.08833328  0.99448533  0.19925361  1.0
  C  C66  1  0.58833748  0.50550954  0.19925034  1.0
  C  C67  1  0.41156248  0.49451139  0.80074959  1.0
  C  C68  1  0.02807982  0.11684545  0.80077293  1.0
  C  C69  1  0.97181252  0.88311294  0.19924971  1.0
  C  C70  1  0.47182344  0.61688718  0.19924368  1.0
  C  C71  1  0.52809216  0.38314145  0.80076594  1.0
  C  C72  1  0.02649564  0.34794989  0.92069480  1.0
  C  C73  1  0.97320925  0.65195749  0.07934624  1.0
  C  C74  1  0.47320925  0.84803578  0.07933883  1.0
  C  C75  1  0.52649433  0.15203519  0.92068719  1.0
  C  C76  1  0.03614492  0.21231916  0.92322419  1.0
  C  C77  1  0.96353596  0.78758630  0.07681218  1.0
  C  C78  1  0.46354155  0.71240609  0.07680490  1.0
  C  C79  1  0.53615852  0.28766584  0.92321678  1.0
  C  C80  1  0.03587954  0.15380400  0.96493978  1.0
  C  C81  1  0.96375593  0.84609472  0.03509593  1.0
  C  C82  1  0.46375262  0.65389562  0.03508865  1.0
  C  C83  1  0.53589910  0.34618305  0.96493236  1.0
  C  C84  1  0.02027797  0.40704043  0.87848574  1.0
  C  C85  1  0.97953991  0.59288140  0.12155595  1.0
  C  C86  1  0.47952673  0.90711403  0.12154855  1.0
  C  C87  1  0.52027081  0.09294443  0.87847779  1.0
  C  C88  1  0.99638711  0.96674913  0.72291825  1.0
  C  C89  1  0.00358487  0.03325160  0.27708868  1.0
  C  C90  1  0.50358119  0.46676694  0.27708665  1.0
  C  C91  1  0.49639169  0.53325496  0.72291594  1.0
  C  C92  1  0.99773598  0.43890713  0.04350812  1.0
  C  C93  1  0.00196969  0.56098968  0.95653627  1.0
  C  C94  1  0.50195594  0.93899875  0.95652891  1.0
  C  C95  1  0.49772925  0.06108377  0.04350078  1.0
  C  C96  1  0.98659679  0.63840206  0.99718926  1.0
  C  C97  1  0.01304877  0.36149090  0.00285447  1.0
  C  C98  1  0.51304842  0.13849855  0.00284703  1.0
  C  C99  1  0.48659436  0.86158685  0.99718167  1.0
  C  C100  1  0.98426889  0.57566854  0.03963149  1.0
  C  C101  1  0.01539872  0.42422826  0.96041223  1.0
  C  C102  1  0.51539419  0.07575983  0.96040475  1.0
  C  C103  1  0.48427063  0.92432173  0.03962395  1.0
  C  C104  1  0.99914866  0.38391086  0.08623871  1.0
  C  C105  1  0.00069484  0.61600134  0.91380699  1.0
  C  C106  1  0.50066170  0.88398609  0.91379934  1.0
  C  C107  1  0.49911577  0.11608392  0.08623167  1.0
  C  C108  1  0.99302471  0.45967650  0.12464942  1.0
  C  C109  1  0.00687510  0.54024917  0.87539392  1.0
  C  C110  1  0.50684668  0.95973591  0.87538614  1.0
  C  C111  1  0.49299151  0.04032063  0.12464252  1.0
  C  C112  1  0.02420173  0.22698322  0.00399394  1.0
  C  C113  1  0.97541255  0.77290781  0.99604479  1.0
  C  C114  1  0.47540386  0.72708192  0.99603734  1.0
  C  C115  1  0.52421484  0.27300637  0.00398702  1.0
  C  C116  1  0.99051225  0.02982407  0.48281923  1.0
  C  C117  1  0.00952049  0.97019013  0.51717100  1.0
  C  C118  1  0.50949901  0.52981168  0.51717669  1.0
  C  C119  1  0.49048808  0.47018424  0.48282824  1.0
  N  N120  1  0.03534815  0.19373314  0.84079539  1.0
  N  N121  1  0.96449412  0.80620312  0.15923494  1.0
  N  N122  1  0.46450393  0.69379260  0.15922811  1.0
  N  N123  1  0.53536194  0.30625047  0.84078752  1.0
  O  O124  1  0.35726959  0.62153073  0.57955194  1.0
  O  O125  1  0.64272259  0.37848636  0.42044964  1.0
  O  O126  1  0.14273190  0.12152993  0.42044266  1.0
  O  O127  1  0.85727256  0.87847465  0.57954223  1.0
  O  O128  1  0.64628417  0.61702211  0.65717898  1.0
  O  O129  1  0.35373364  0.38300941  0.34282661  1.0
  O  O130  1  0.85373368  0.11702963  0.34282493  1.0
  O  O131  1  0.14627613  0.88300478  0.65717665  1.0
  O  O132  1  0.82335725  0.83891477  0.67224377  1.0
  O  O133  1  0.17664155  0.16112734  0.32774713  1.0
  O  O134  1  0.67664463  0.33891583  0.32775099  1.0
  O  O135  1  0.32336867  0.66111665  0.67224792  1.0
  O  O136  1  0.69027150  0.64310274  0.56784004  1.0
  O  O137  1  0.30972502  0.35689799  0.43216188  1.0
  O  O138  1  0.80973931  0.14312109  0.43216017  1.0
  O  O139  1  0.19027574  0.85690658  0.56783741  1.0
  O  O140  1  0.50940392  0.83036187  0.61787088  1.0
  O  O141  1  0.49060496  0.16966388  0.38212102  1.0
  O  O142  1  0.99060134  0.33036959  0.38212478  1.0
  O  O143  1  0.00940448  0.66966000  0.61787480  1.0
  O  O144  1  0.05930808  0.01258159  0.88559261  1.0
  O  O145  1  0.94046148  0.98733831  0.11443406  1.0
  O  O146  1  0.44049364  0.51265417  0.11442650  1.0
  O  O147  1  0.55933626  0.48740140  0.88558547  1.0
  O  O148  1  0.02042605  0.61814090  0.19839104  1.0
  O  O149  1  0.97950138  0.38182230  0.80164663  1.0
  O  O150  1  0.47952912  0.11815901  0.80163693  1.0
  O  O151  1  0.52045206  0.88185904  0.19838236  1.0
  F  F152  1  0.76523306  0.74115549  0.24444392  1.0
  F  F153  1  0.23469696  0.25882792  0.75559541  1.0
  F  F154  1  0.73470913  0.24116762  0.75558313  1.0
  F  F155  1  0.26524916  0.75886005  0.24443316  1.0
