# generated using pymatgen
data_ZnH28C29NO4
_symmetry_space_group_name_H-M   'P 1'
_cell_length_a   11.82047770
_cell_length_b   14.34392445
_cell_length_c   14.80916554
_cell_angle_alpha   89.99286144
_cell_angle_beta   92.08129386
_cell_angle_gamma   89.99874802
_symmetry_Int_Tables_number   1
_chemical_formula_structural   ZnH28C29NO4
_chemical_formula_sum   'Zn2 H56 C58 N2 O8'
_cell_volume   2509.26774778
_cell_formula_units_Z   2
loop_
 _symmetry_equiv_pos_site_id
 _symmetry_equiv_pos_as_xyz
  1  'x, y, z'
loop_
 _atom_site_type_symbol
 _atom_site_label
 _atom_site_symmetry_multiplicity
 _atom_site_fract_x
 _atom_site_fract_y
 _atom_site_fract_z
 _atom_site_occupancy
  Zn  Zn0  1  0.49992585  0.60574908  0.49999254  1.0
  Zn  Zn1  1  0.49985969  0.38532056  0.50003543  1.0
  H  H2  1  0.23124093  0.39497172  0.16134353  1.0
  H  H3  1  0.30412891  0.38162288  0.26752073  1.0
  H  H4  1  0.15986268  0.41542136  0.26365863  1.0
  H  H5  1  0.28277914  0.55310045  0.29761893  1.0
  H  H6  1  0.20687635  0.56526806  0.19443504  1.0
  H  H7  1  0.76862368  0.39496401  0.83847338  1.0
  H  H8  1  0.69586781  0.38181034  0.73222034  1.0
  H  H9  1  0.84014859  0.41557005  0.73624903  1.0
  H  H10  1  0.71724329  0.55332255  0.70242103  1.0
  H  H11  1  0.79310943  0.56531150  0.80565082  1.0
  H  H12  1  0.76226564  0.46121537  0.19752747  1.0
  H  H13  1  0.73891958  0.54402627  0.28449876  1.0
  H  H14  1  0.67529825  0.43275334  0.28810365  1.0
  H  H15  1  0.32470325  0.43275094  0.71194223  1.0
  H  H16  1  0.23774004  0.46120429  0.80252558  1.0
  H  H17  1  0.26105774  0.54401961  0.71553837  1.0
  H  H18  1  0.72713183  0.77442684  0.12863556  1.0
  H  H19  1  0.69166797  0.69932561  0.21841269  1.0
  H  H20  1  0.83044995  0.74669274  0.21504731  1.0
  H  H21  1  0.83357770  0.58152997  0.16452265  1.0
  H  H22  1  0.86822143  0.65494533  0.07624274  1.0
  H  H23  1  0.27277876  0.77442808  0.87139478  1.0
  H  H24  1  0.30828548  0.69935075  0.78161677  1.0
  H  H25  1  0.16949539  0.74667807  0.78496941  1.0
  H  H26  1  0.16643507  0.58150376  0.83547146  1.0
  H  H27  1  0.13172810  0.65486902  0.92374909  1.0
  H  H28  1  0.80895413  0.72740193  0.96611168  1.0
  H  H29  1  0.87563425  0.63093402  0.91631839  1.0
  H  H30  1  0.76373086  0.69030385  0.85730124  1.0
  H  H31  1  0.19090926  0.72725841  0.03387531  1.0
  H  H32  1  0.12432761  0.63074775  0.08372124  1.0
  H  H33  1  0.23620439  0.69020872  0.14269366  1.0
  H  H34  1  0.31168644  0.70144169  0.41470823  1.0
  H  H35  1  0.30466025  0.79636093  0.33693162  1.0
  H  H36  1  0.40037707  0.70133641  0.32210794  1.0
  H  H37  1  0.67998019  0.29025764  0.59228648  1.0
  H  H38  1  0.58420265  0.28562573  0.68031722  1.0
  H  H39  1  0.68691347  0.19510281  0.66965220  1.0
  H  H40  1  0.68850606  0.70137928  0.58522459  1.0
  H  H41  1  0.69554588  0.79626653  0.66302101  1.0
  H  H42  1  0.59982214  0.70126217  0.67781492  1.0
  H  H43  1  0.31994982  0.29024165  0.40775945  1.0
  H  H44  1  0.41568905  0.28560762  0.31971102  1.0
  H  H45  1  0.31300665  0.19507547  0.33043614  1.0
  H  H46  1  0.48026621  0.92285157  0.79651331  1.0
  H  H47  1  0.51987752  0.81908421  0.74250808  1.0
  H  H48  1  0.62482189  0.89444667  0.79055485  1.0
  H  H49  1  0.51808333  0.05867281  0.20167140  1.0
  H  H50  1  0.37631028  0.09440170  0.21021904  1.0
  H  H51  1  0.48779896  0.16515609  0.25527232  1.0
  H  H52  1  0.51988624  0.92295905  0.20338063  1.0
  H  H53  1  0.48028334  0.81918140  0.25741488  1.0
  H  H54  1  0.37532697  0.89458589  0.20943661  1.0
  H  H55  1  0.48193730  0.05852023  0.79827324  1.0
  H  H56  1  0.62370845  0.09431708  0.78982013  1.0
  H  H57  1  0.51221369  0.16502468  0.74470805  1.0
  C  C58  1  0.51273136  0.49454759  0.67317356  1.0
  C  C59  1  0.48718787  0.49451493  0.32685244  1.0
  C  C60  1  0.28261463  0.49870335  0.50744001  1.0
  C  C61  1  0.71713612  0.49854242  0.49270648  1.0
  C  C62  1  0.16044784  0.49561505  0.50521072  1.0
  C  C63  1  0.83929813  0.49548035  0.49515387  1.0
  C  C64  1  0.05691417  0.49521808  0.50195015  1.0
  C  C65  1  0.94283795  0.49517807  0.49845378  1.0
  C  C66  1  0.38627716  0.54181838  0.18145491  1.0
  C  C67  1  0.61370421  0.54186538  0.81856011  1.0
  C  C68  1  0.48852298  0.51570826  0.22703455  1.0
  C  C69  1  0.51145775  0.51573108  0.77299088  1.0
  C  C70  1  0.59565737  0.52314466  0.18899193  1.0
  C  C71  1  0.40432951  0.52315114  0.81103878  1.0
  C  C72  1  0.60136552  0.55854758  0.10006259  1.0
  C  C73  1  0.39862310  0.55854196  0.89995944  1.0
  C  C74  1  0.49790782  0.56890611  0.04816647  1.0
  C  C75  1  0.50208106  0.56890370  0.95185248  1.0
  C  C76  1  0.39100792  0.56993489  0.09005781  1.0
  C  C77  1  0.60897758  0.56995874  0.90995831  1.0
  C  C78  1  0.70317986  0.59337382  0.05848525  1.0
  C  C79  1  0.29679947  0.59334451  0.94152850  1.0
  C  C80  1  0.70429065  0.60434785  0.96598697  1.0
  C  C81  1  0.29568221  0.60428777  0.03402757  1.0
  C  C82  1  0.44673525  0.79831210  0.43060708  1.0
  C  C83  1  0.55039613  0.18936093  0.57050496  1.0
  C  C84  1  0.55350301  0.79828917  0.56933008  1.0
  C  C85  1  0.44957862  0.18936303  0.42954243  1.0
  C  C86  1  0.53451256  0.89517558  0.57961038  1.0
  C  C87  1  0.46714678  0.09217332  0.41995198  1.0
  C  C88  1  0.46576296  0.89519623  0.42032484  1.0
  C  C89  1  0.53296307  0.09215197  0.58004569  1.0
  C  C90  1  0.50013166  0.94423524  0.49997196  1.0
  C  C91  1  0.50006905  0.04309413  0.49999300  1.0
  C  C92  1  0.54554727  0.94505337  0.66430954  1.0
  C  C93  1  0.45575487  0.04173013  0.33540110  1.0
  C  C94  1  0.45469579  0.94512028  0.33563856  1.0
  C  C95  1  0.54440686  0.04166044  0.66457880  1.0
  C  C96  1  0.27563220  0.52651300  0.22804798  1.0
  C  C97  1  0.24077950  0.42339969  0.23010671  1.0
  C  C98  1  0.72436141  0.52662403  0.77195914  1.0
  C  C99  1  0.75918257  0.42350718  0.76974606  1.0
  C  C100  1  0.69880715  0.48905119  0.24246012  1.0
  C  C101  1  0.30118819  0.48904362  0.75757949  1.0
  C  C102  1  0.79786417  0.63415341  0.11808485  1.0
  C  C103  1  0.75967636  0.71850472  0.17329476  1.0
  C  C104  1  0.20210265  0.63412139  0.88191831  1.0
  C  C105  1  0.24027167  0.71850424  0.82673319  1.0
  C  C106  1  0.79319948  0.66533398  0.92401635  1.0
  C  C107  1  0.20672759  0.66520412  0.07599547  1.0
  C  C108  1  0.36178677  0.74702038  0.37183263  1.0
  C  C109  1  0.62950071  0.24231939  0.63235286  1.0
  C  C110  1  0.63842047  0.74695068  0.62809889  1.0
  C  C111  1  0.37042383  0.24230377  0.36769874  1.0
  C  C112  1  0.54318670  0.89219219  0.75238752  1.0
  C  C113  1  0.45915530  0.09317472  0.24666346  1.0
  C  C114  1  0.45700158  0.89230048  0.24755033  1.0
  C  C115  1  0.54090289  0.09305241  0.75332408  1.0
  N  N116  1  0.50009444  0.75199357  0.49997725  1.0
  N  N117  1  0.49993982  0.23597370  0.50003683  1.0
  O  O118  1  0.53176991  0.56712850  0.62667356  1.0
  O  O119  1  0.50654300  0.41364676  0.35840427  1.0
  O  O120  1  0.46807580  0.56708327  0.37333102  1.0
  O  O121  1  0.49334625  0.41368805  0.64163879  1.0
  O  O122  1  0.32709509  0.57786983  0.52307406  1.0
  O  O123  1  0.66786735  0.42113172  0.50720281  1.0
  O  O124  1  0.67268753  0.57769943  0.47695014  1.0
  O  O125  1  0.33187340  0.42129659  0.49288752  1.0
