# generated using pymatgen
data_ZnH13C23NO6
_symmetry_space_group_name_H-M   'P 1'
_cell_length_a   16.53009575
_cell_length_b   17.38343207
_cell_length_c   17.78839659
_cell_angle_alpha   91.36966631
_cell_angle_beta   91.12231421
_cell_angle_gamma   99.57828782
_symmetry_Int_Tables_number   1
_chemical_formula_structural   ZnH13C23NO6
_chemical_formula_sum   'Zn2 H26 C46 N2 O12'
_cell_volume   5037.35378345
_cell_formula_units_Z   2
loop_
 _symmetry_equiv_pos_site_id
 _symmetry_equiv_pos_as_xyz
  1  'x, y, z'
loop_
 _atom_site_type_symbol
 _atom_site_label
 _atom_site_symmetry_multiplicity
 _atom_site_fract_x
 _atom_site_fract_y
 _atom_site_fract_z
 _atom_site_occupancy
  Zn  Zn0  1  0.41288295  0.49272943  0.49840527  1.0
  Zn  Zn1  1  0.58474911  0.50048252  0.50187489  1.0
  H  H2  1  0.11819559  0.39692600  0.57111327  1.0
  H  H3  1  0.87953756  0.59363825  0.42881017  1.0
  H  H4  1  0.27069046  0.40056623  0.56541107  1.0
  H  H5  1  0.72682493  0.58962357  0.43304359  1.0
  H  H6  1  0.30184585  0.59969802  0.43945844  1.0
  H  H7  1  0.69618089  0.39628870  0.56688717  1.0
  H  H8  1  0.15073774  0.60428833  0.43748288  1.0
  H  H9  1  0.84740441  0.39236885  0.57059608  1.0
  H  H10  1  0.63900878  0.74949827  0.42388578  1.0
  H  H11  1  0.34503922  0.23032461  0.51809255  1.0
  H  H12  1  0.57958830  0.00672353  0.41974571  1.0
  H  H13  1  0.40325731  0.98015147  0.47798597  1.0
  H  H14  1  0.34221693  0.08658843  0.50573576  1.0
  H  H15  1  0.63417369  0.88867120  0.39601382  1.0
  H  H16  1  0.41761926  0.87739674  0.52977611  1.0
  H  H17  1  0.57403370  0.12889488  0.39358292  1.0
  H  H18  1  0.37467711  0.53155582  0.12024810  1.0
  H  H19  1  0.63670059  0.54360734  0.88028434  1.0
  H  H20  1  0.37260193  0.51048187  0.25911748  1.0
  H  H21  1  0.63207617  0.52208159  0.74042910  1.0
  H  H22  1  0.63532062  0.53802407  0.26677018  1.0
  H  H23  1  0.37186458  0.51819912  0.73647667  1.0
  H  H24  1  0.63895692  0.55861999  0.12798759  1.0
  H  H25  1  0.37529215  0.54124261  0.87612970  1.0
  H  H26  1  0.60882716  0.36735370  0.32446451  1.0
  H  H27  1  0.39934890  0.67526788  0.66308497  1.0
  C  C28  1  0.49914645  0.50415499  0.64689158  1.0
  C  C29  1  0.50195776  0.50722004  0.35332182  1.0
  C  C30  1  0.43164183  0.53312724  0.15259543  1.0
  C  C31  1  0.57888502  0.53846157  0.84851754  1.0
  C  C32  1  0.43034160  0.52135268  0.22952052  1.0
  C  C33  1  0.57638878  0.52622579  0.77099896  1.0
  C  C34  1  0.50367172  0.52198904  0.27074389  1.0
  C  C35  1  0.50172539  0.51833938  0.73038804  1.0
  C  C36  1  0.57873394  0.53649612  0.23382791  1.0
  C  C37  1  0.42949610  0.52437617  0.76871299  1.0
  C  C38  1  0.58073459  0.54823157  0.15689202  1.0
  C  C39  1  0.43137043  0.53696933  0.84617878  1.0
  C  C40  1  0.50690825  0.54553700  0.11474695  1.0
  C  C41  1  0.50615267  0.54324372  0.88754864  1.0
  C  C42  1  0.50786224  0.55134191  0.03561588  1.0
  C  C43  1  0.50752732  0.55056571  0.96692429  1.0
  C  C44  1  0.15669905  0.44235849  0.54088315  1.0
  C  C45  1  0.84105611  0.54939205  0.46041665  1.0
  C  C46  1  0.24070609  0.44410939  0.53805915  1.0
  C  C47  1  0.75697325  0.54739640  0.46230280  1.0
  C  C48  1  0.25832030  0.55560219  0.46668138  1.0
  C  C49  1  0.73957017  0.43914844  0.53800115  1.0
  C  C50  1  0.46822029  0.34478045  0.48397781  1.0
  C  C51  1  0.52837456  0.64988727  0.49919880  1.0
  C  C52  1  0.17479370  0.55799342  0.46614631  1.0
  C  C53  1  0.82317090  0.43709801  0.53960411  1.0
  C  C54  1  0.12186142  0.49987922  0.50330506  1.0
  C  C55  1  0.87605014  0.49367051  0.50054890  1.0
  C  C56  1  0.03608886  0.49841319  0.50269710  1.0
  C  C57  1  0.96186781  0.49535505  0.50168704  1.0
  C  C58  1  0.46098455  0.25950728  0.46504442  1.0
  C  C59  1  0.53172948  0.73586382  0.49129933  1.0
  C  C60  1  0.52427323  0.22991176  0.42752825  1.0
  C  C61  1  0.46943922  0.77305434  0.52135348  1.0
  C  C62  1  0.52351538  0.14984458  0.42171800  1.0
  C  C63  1  0.46587492  0.85014366  0.50481144  1.0
  C  C64  1  0.45934953  0.09669444  0.45196348  1.0
  C  C65  1  0.52447107  0.89333303  0.45884977  1.0
  C  C66  1  0.39344887  0.12703609  0.48383034  1.0
  C  C67  1  0.58772931  0.85612414  0.43115272  1.0
  C  C68  1  0.39456654  0.20703954  0.49072568  1.0
  C  C69  1  0.59106004  0.77861360  0.44692857  1.0
  C  C70  1  0.45980712  0.01328648  0.45652806  1.0
  C  C71  1  0.52308342  0.97498531  0.44264713  1.0
  C  C72  1  0.59268146  0.28334350  0.39205444  1.0
  C  C73  1  0.40703727  0.73224456  0.57316476  1.0
  N  N74  1  0.29042013  0.49914706  0.50111873  1.0
  N  N75  1  0.70725491  0.49374980  0.50079193  1.0
  O  O76  1  0.42897142  0.49505747  0.61383622  1.0
  O  O77  1  0.57092961  0.50611383  0.38652892  1.0
  O  O78  1  0.56743589  0.50269714  0.61513203  1.0
  O  O79  1  0.43226763  0.49701892  0.38411191  1.0
  O  O80  1  0.40253602  0.37299427  0.49191087  1.0
  O  O81  1  0.59488795  0.62242704  0.50100359  1.0
  O  O82  1  0.54112056  0.38191446  0.49284166  1.0
  O  O83  1  0.45596776  0.61084588  0.50063589  1.0
  O  O84  1  0.66583486  0.28388069  0.40397581  1.0
  O  O85  1  0.56281109  0.32879794  0.34078618  1.0
  O  O86  1  0.33276162  0.72767146  0.56495989  1.0
  O  O87  1  0.44319732  0.70466117  0.63388044  1.0
