# generated using pymatgen
data_AlH5C8O5
_symmetry_space_group_name_H-M   'P 1'
_cell_length_a   6.69641689
_cell_length_b   12.22204672
_cell_length_c   17.24954664
_cell_angle_alpha   89.99993989
_cell_angle_beta   90.00001439
_cell_angle_gamma   89.99982356
_symmetry_Int_Tables_number   1
_chemical_formula_structural   AlH5C8O5
_chemical_formula_sum   'Al4 H20 C32 O20'
_cell_volume   1411.77051672
_cell_formula_units_Z   4
loop_
 _symmetry_equiv_pos_site_id
 _symmetry_equiv_pos_as_xyz
  1  'x, y, z'
loop_
 _atom_site_type_symbol
 _atom_site_label
 _atom_site_symmetry_multiplicity
 _atom_site_fract_x
 _atom_site_fract_y
 _atom_site_fract_z
 _atom_site_occupancy
  Al  Al0  1  0.00000000  0.00000000  0.00000000  1.0
  Al  Al1  1  0.99999844  0.49999928  0.50000059  1.0
  Al  Al2  1  0.49999977  0.00000042  0.99999997  1.0
  Al  Al3  1  0.50000119  0.49999969  0.50000056  1.0
  H  H4  1  0.92975744  0.67724201  0.69821500  1.0
  H  H5  1  0.92988560  0.78613939  0.82260200  1.0
  H  H6  1  0.07024550  0.17724211  0.80178540  1.0
  H  H7  1  0.07011822  0.28613885  0.67739774  1.0
  H  H8  1  0.42975512  0.32275872  0.30178730  1.0
  H  H9  1  0.42988083  0.21386216  0.17739856  1.0
  H  H10  1  0.57024373  0.82276004  0.19821222  1.0
  H  H11  1  0.57011564  0.71386166  0.32259988  1.0
  H  H12  1  0.07024196  0.32275738  0.30178612  1.0
  H  H13  1  0.07011380  0.21386082  0.17739854  1.0
  H  H14  1  0.92975539  0.82275974  0.19821398  1.0
  H  H15  1  0.92988267  0.71386217  0.32260048  1.0
  H  H16  1  0.57024578  0.67723985  0.69821324  1.0
  H  H17  1  0.57012006  0.78613805  0.82260140  1.0
  H  H18  1  0.42975717  0.17724180  0.80178716  1.0
  H  H19  1  0.42988375  0.28613937  0.67739892  1.0
  H  H20  1  0.24999849  0.14272715  0.98099361  1.0
  H  H21  1  0.74999867  0.64272516  0.51900566  1.0
  H  H22  1  0.75000090  0.85727470  0.01900635  1.0
  H  H23  1  0.25000073  0.35727423  0.48099372  1.0
  C  C24  1  0.06869092  0.70167560  0.72610785  1.0
  C  C25  1  0.06865642  0.76128423  0.79476065  1.0
  C  C26  1  0.93131786  0.20167758  0.77389253  1.0
  C  C27  1  0.93135052  0.26128466  0.70523911  1.0
  C  C28  1  0.56868769  0.29832327  0.27389383  1.0
  C  C29  1  0.56865349  0.23871547  0.20523929  1.0
  C  C30  1  0.43130831  0.79832233  0.22610629  1.0
  C  C31  1  0.43134434  0.73871360  0.29475971  1.0
  C  C32  1  0.93130699  0.29832297  0.27389327  1.0
  C  C33  1  0.93134447  0.23871435  0.20523989  1.0
  C  C34  1  0.06868154  0.79832263  0.22610801  1.0
  C  C35  1  0.06865186  0.73871473  0.29476085  1.0
  C  C36  1  0.43131022  0.70167612  0.72610729  1.0
  C  C37  1  0.43134890  0.76128474  0.79476125  1.0
  C  C38  1  0.56869258  0.20167706  0.77389483  1.0
  C  C39  1  0.56865506  0.26128579  0.70524141  1.0
  C  C40  1  0.25000304  0.61100414  0.61621283  1.0
  C  C41  1  0.24999840  0.67245288  0.69102521  1.0
  C  C42  1  0.24999195  0.86127216  0.90041209  1.0
  C  C43  1  0.25000557  0.79200067  0.82910822  1.0
  C  C44  1  0.75001671  0.11100625  0.88378877  1.0
  C  C45  1  0.75000457  0.17245510  0.80897461  1.0
  C  C46  1  0.74999501  0.36127306  0.59958643  1.0
  C  C47  1  0.75000269  0.29200065  0.67089268  1.0
  C  C48  1  0.74999338  0.38899443  0.38378828  1.0
  C  C49  1  0.75000100  0.32754570  0.30897475  1.0
  C  C50  1  0.75000446  0.13872887  0.09958844  1.0
  C  C51  1  0.74999532  0.20799954  0.17089290  1.0
  C  C52  1  0.24998568  0.88899559  0.11620944  1.0
  C  C53  1  0.24999633  0.82754593  0.19102477  1.0
  C  C54  1  0.25000289  0.63872961  0.40041179  1.0
  C  C55  1  0.24999670  0.70799629  0.32910612  1.0
  O  O56  1  0.08069836  0.88862531  0.92794729  1.0
  O  O57  1  0.08073048  0.58760069  0.58684742  1.0
  O  O58  1  0.91931234  0.38862515  0.57205295  1.0
  O  O59  1  0.91927596  0.08760166  0.91315246  1.0
  O  O60  1  0.58068711  0.11137518  0.07205381  1.0
  O  O61  1  0.58073265  0.41240062  0.41315368  1.0
  O  O62  1  0.41930098  0.61137396  0.42794529  1.0
  O  O63  1  0.41926718  0.91240072  0.08684404  1.0
  O  O64  1  0.91930402  0.11137735  0.07205499  1.0
  O  O65  1  0.91926743  0.41240115  0.41315311  1.0
  O  O66  1  0.08069154  0.61137343  0.42794469  1.0
  O  O67  1  0.08072493  0.91239855  0.08684634  1.0
  O  O68  1  0.41931079  0.88862666  0.92794789  1.0
  O  O69  1  0.41926675  0.58759959  0.58684860  1.0
  O  O70  1  0.58069394  0.38862543  0.57205351  1.0
  O  O71  1  0.58073670  0.08760113  0.91315534  1.0
  O  O72  1  0.25000170  0.06598876  0.99483052  1.0
  O  O73  1  0.75000336  0.56598843  0.50516706  1.0
  O  O74  1  0.74999919  0.93401227  0.00516828  1.0
  O  O75  1  0.24999902  0.43401178  0.49483232  1.0
