# generated using pymatgen
data_Zn4H15C34Br5N2O13
_symmetry_space_group_name_H-M   'P 1'
_cell_length_a   16.07076667
_cell_length_b   16.09892644
_cell_length_c   19.57273412
_cell_angle_alpha   83.83274832
_cell_angle_beta   89.73063955
_cell_angle_gamma   83.84709961
_symmetry_Int_Tables_number   1
_chemical_formula_structural   Zn4H15C34Br5N2O13
_chemical_formula_sum   'Zn4 H15 C34 Br5 N2 O13'
_cell_volume   5005.47038812
_cell_formula_units_Z   1
loop_
 _symmetry_equiv_pos_site_id
 _symmetry_equiv_pos_as_xyz
  1  'x, y, z'
loop_
 _atom_site_type_symbol
 _atom_site_label
 _atom_site_symmetry_multiplicity
 _atom_site_fract_x
 _atom_site_fract_y
 _atom_site_fract_z
 _atom_site_occupancy
  Zn  Zn0  1  0.43139131  0.57306728  0.55861949  1.0
  Zn  Zn1  1  0.56178304  0.57123233  0.43470748  1.0
  Zn  Zn2  1  0.42858449  0.43668173  0.44931929  1.0
  Zn  Zn3  1  0.57731290  0.41992509  0.55972718  1.0
  H  H4  1  0.99049428  0.56533093  0.55651201  1.0
  H  H5  1  0.56557481  0.03307289  0.66908276  1.0
  H  H6  1  0.64358790  0.06437633  0.60961355  1.0
  H  H7  1  0.58673766  0.42651929  0.06717230  1.0
  H  H8  1  0.51788938  0.30574169  0.02776258  1.0
  H  H9  1  0.62982300  0.29165461  0.03074534  1.0
  H  H10  1  0.57692184  0.32314752  0.95111703  1.0
  H  H11  1  0.00971816  0.43677237  0.44932270  1.0
  H  H12  1  0.44527336  0.02176168  0.43766599  1.0
  H  H13  1  0.55821989  0.61783591  0.22975969  1.0
  H  H14  1  0.65210664  0.49114075  0.89470256  1.0
  H  H15  1  0.40355816  0.43560981  0.10024448  1.0
  H  H16  1  0.38762723  0.46717319  0.90241817  1.0
  H  H17  1  0.56888060  0.91065194  0.58273998  1.0
  H  H18  1  0.65780471  0.96365131  0.65767686  1.0
  C  C19  1  0.72383727  0.48949112  0.49288641  1.0
  C  C20  1  0.52348977  0.48009554  0.98216198  1.0
  C  C21  1  0.48085148  0.54066898  0.01601260  1.0
  C  C22  1  0.27632719  0.51097320  0.51477008  1.0
  C  C23  1  0.48024689  0.51739777  0.23801997  1.0
  C  C24  1  0.81386382  0.48486854  0.48919422  1.0
  C  C25  1  0.97747296  0.47841762  0.48393967  1.0
  C  C26  1  0.02298640  0.52360398  0.52213388  1.0
  C  C27  1  0.11050400  0.51910834  0.51964881  1.0
  C  C28  1  0.88999275  0.48216141  0.48662632  1.0
  C  C29  1  0.18670508  0.51603968  0.51861384  1.0
  C  C30  1  0.52004656  0.47954232  0.90644925  1.0
  C  C31  1  0.48588486  0.81753921  0.48374849  1.0
  C  C32  1  0.48020805  0.98125343  0.47820801  1.0
  C  C33  1  0.52417454  0.01832905  0.52532572  1.0
  C  C34  1  0.48882024  0.72758381  0.48757836  1.0
  C  C35  1  0.52089209  0.10702211  0.51880917  1.0
  C  C36  1  0.48201866  0.89428540  0.48014365  1.0
  C  C37  1  0.51746163  0.18343359  0.51296424  1.0
  C  C38  1  0.51365219  0.27339108  0.50790197  1.0
  C  C39  1  0.48546219  0.51256259  0.31482433  1.0
  C  C40  1  0.51271818  0.48609314  0.68512946  1.0
  C  C41  1  0.59360684  0.48584926  0.86848220  1.0
  C  C42  1  0.51583889  0.48158627  0.76223928  1.0
  C  C43  1  0.44341000  0.47363097  0.80177404  1.0
  C  C44  1  0.44473919  0.47277824  0.87295522  1.0
  C  C45  1  0.61132070  0.01079960  0.63111440  1.0
  C  C46  1  0.57534441  0.33002285  0.00625233  1.0
  C  C47  1  0.59067694  0.48731110  0.79729035  1.0
  C  C48  1  0.43749557  0.47590137  0.12880387  1.0
  C  C49  1  0.43689846  0.46530343  0.20047989  1.0
  C  C50  1  0.52353284  0.57876168  0.20076431  1.0
  C  C51  1  0.52420211  0.58851155  0.12946325  1.0
  C  C52  1  0.48081983  0.53705585  0.09149804  1.0
  Br  Br53  1  0.34027760  0.46107927  0.75864422  1.0
  Br  Br54  1  0.58924870  0.66934041  0.08405442  1.0
  Br  Br55  1  0.37726465  0.37650649  0.24024394  1.0
  Br  Br56  1  0.42114012  0.63873952  0.96818187  1.0
  Br  Br57  1  0.69118048  0.50134066  0.74736264  1.0
  N  N58  1  0.57305629  0.97346804  0.57651574  1.0
  N  N59  1  0.57994962  0.41799645  0.01678706  1.0
  O  O60  1  0.50056094  0.50006190  0.50078657  1.0
  O  O61  1  0.53962046  0.55450646  0.33892685  1.0
  O  O62  1  0.55222472  0.42541687  0.65792089  1.0
  O  O63  1  0.43627071  0.46832505  0.34995910  1.0
  O  O64  1  0.47092681  0.55082789  0.65477245  1.0
  O  O65  1  0.44520171  0.69236781  0.53473989  1.0
  O  O66  1  0.56672797  0.30285856  0.54460615  1.0
  O  O67  1  0.68364905  0.54221918  0.44847692  1.0
  O  O68  1  0.31059746  0.46139690  0.47352166  1.0
  O  O69  1  0.69440982  0.44047671  0.54032521  1.0
  O  O70  1  0.31259497  0.55638576  0.55267743  1.0
  O  O71  1  0.53493005  0.69144364  0.44362493  1.0
  O  O72  1  0.45786676  0.31459353  0.46759309  1.0
