# generated using pymatgen
data_Zn2H30C39(N3O4)2
_symmetry_space_group_name_H-M   'P 1'
_cell_length_a   11.88232530
_cell_length_b   11.89620701
_cell_length_c   24.17311423
_cell_angle_alpha   89.96501671
_cell_angle_beta   89.83772094
_cell_angle_gamma   89.89663704
_symmetry_Int_Tables_number   1
_chemical_formula_structural   Zn2H30C39(N3O4)2
_chemical_formula_sum   'Zn4 H60 C78 N12 O16'
_cell_volume   3416.96103771
_cell_formula_units_Z   2
loop_
 _symmetry_equiv_pos_site_id
 _symmetry_equiv_pos_as_xyz
  1  'x, y, z'
loop_
 _atom_site_type_symbol
 _atom_site_label
 _atom_site_symmetry_multiplicity
 _atom_site_fract_x
 _atom_site_fract_y
 _atom_site_fract_z
 _atom_site_occupancy
  Zn  Zn0  1  0.61686175  0.50125929  0.50037118  1.0
  Zn  Zn1  1  0.38516339  0.50163674  0.49986976  1.0
  Zn  Zn2  1  0.00227026  0.88772130  0.00034763  1.0
  Zn  Zn3  1  0.00489026  0.11930846  0.00016308  1.0
  H  H4  1  0.18107710  0.50555324  0.42523600  1.0
  H  H5  1  0.23239255  0.48906184  0.59360315  1.0
  H  H6  1  0.82094306  0.50625574  0.57502769  1.0
  H  H7  1  0.76977290  0.48695420  0.40674776  1.0
  H  H8  1  0.67973705  0.13927244  0.72079076  1.0
  H  H9  1  0.32800226  0.86412335  0.72028277  1.0
  H  H10  1  0.36576610  0.17712200  0.77944172  1.0
  H  H11  1  0.64227412  0.82534017  0.78052849  1.0
  H  H12  1  0.33653483  0.22580122  0.61337539  1.0
  H  H13  1  0.67313811  0.77467486  0.61416299  1.0
  H  H14  1  0.27953906  0.83515495  0.88798245  1.0
  H  H15  1  0.72675070  0.16935193  0.88734951  1.0
  H  H16  1  0.32969415  0.07926192  0.68671481  1.0
  H  H17  1  0.67969716  0.92041279  0.68779826  1.0
  H  H18  1  0.42463489  0.82681280  0.81372448  1.0
  H  H19  1  0.58217381  0.17600242  0.81330028  1.0
  H  H20  1  0.67735321  0.86328543  0.28040693  1.0
  H  H21  1  0.32593649  0.13979310  0.27907174  1.0
  H  H22  1  0.36434825  0.82720226  0.21934279  1.0
  H  H23  1  0.64135127  0.17760231  0.22028588  1.0
  H  H24  1  0.33021391  0.77635892  0.38525977  1.0
  H  H25  1  0.66714346  0.22633706  0.38760483  1.0
  H  H26  1  0.28161907  0.17219855  0.11250311  1.0
  H  H27  1  0.72682537  0.83376637  0.11298263  1.0
  H  H28  1  0.32588451  0.92344141  0.31215122  1.0
  H  H29  1  0.67608605  0.08096329  0.31379261  1.0
  H  H30  1  0.42607229  0.17751247  0.18670921  1.0
  H  H31  1  0.58198126  0.82713406  0.18739719  1.0
  H  H32  1  0.15843733  0.32480530  0.99958041  1.0
  H  H33  1  0.81575005  0.27097791  0.99976079  1.0
  H  H34  1  0.85056343  0.68238078  0.00054279  1.0
  H  H35  1  0.19313512  0.73670378  0.99952475  1.0
  H  H36  1  0.94726914  0.42025364  0.34625007  1.0
  H  H37  1  0.07402134  0.49235126  0.36140442  1.0
  H  H38  1  0.94975015  0.56844218  0.34551452  1.0
  H  H39  1  0.05456483  0.42228689  0.65432334  1.0
  H  H40  1  0.92781428  0.49451690  0.63879005  1.0
  H  H41  1  0.05188529  0.57052430  0.65458341  1.0
  H  H42  1  0.31750761  0.55836265  0.96279620  1.0
  H  H43  1  0.28773980  0.43395407  0.00035537  1.0
  H  H44  1  0.31768481  0.56096477  0.03583795  1.0
  H  H45  1  0.69116634  0.44919541  0.96436194  1.0
  H  H46  1  0.72158447  0.57382626  0.00145081  1.0
  H  H47  1  0.69199620  0.44708177  0.03741037  1.0
  H  H48  1  0.29422612  0.67234610  0.60736497  1.0
  H  H49  1  0.22776568  0.75539909  0.65709934  1.0
  H  H50  1  0.85786233  0.79744753  0.88358301  1.0
  H  H51  1  0.78725266  0.73436389  0.82794040  1.0
  H  H52  1  0.71328796  0.33635336  0.60963939  1.0
  H  H53  1  0.78025461  0.25328365  0.65949908  1.0
  H  H54  1  0.14926140  0.20737518  0.88255925  1.0
  H  H55  1  0.22032580  0.26922975  0.82644548  1.0
  H  H56  1  0.28938709  0.33460950  0.39096152  1.0
  H  H57  1  0.22359963  0.25190745  0.34074971  1.0
  H  H58  1  0.85765909  0.20534578  0.11697964  1.0
  H  H59  1  0.78682250  0.26822181  0.17269596  1.0
  H  H60  1  0.70826612  0.66908363  0.39252408  1.0
  H  H61  1  0.77577416  0.75221533  0.34321882  1.0
  H  H62  1  0.14803349  0.80150895  0.11670609  1.0
  H  H63  1  0.21866492  0.73790644  0.17208523  1.0
  C  C64  1  0.50050924  0.65413752  0.42080269  1.0
  C  C65  1  0.49439009  0.34741307  0.42172124  1.0
  C  C66  1  0.50797821  0.34854875  0.57929976  1.0
  C  C67  1  0.50162277  0.65538592  0.57862393  1.0
  C  C68  1  0.15766200  0.00313533  0.07794559  1.0
  C  C69  1  0.15824740  0.00738499  0.92247761  1.0
  C  C70  1  0.84928162  0.99826563  0.92231617  1.0
  C  C71  1  0.84881187  0.00405807  0.07792653  1.0
  C  C72  1  0.14151715  0.50133286  0.46591019  1.0
  C  C73  1  0.16913893  0.49436242  0.56107161  1.0
  C  C74  1  0.05541330  0.49700151  0.57338600  1.0
  C  C75  1  0.97910285  0.49964265  0.52788370  1.0
  C  C76  1  0.86055270  0.50146905  0.53438038  1.0
  C  C77  1  0.83297335  0.49296144  0.43926180  1.0
  C  C78  1  0.94667278  0.49577955  0.42693025  1.0
  C  C79  1  0.02297334  0.49932105  0.47240847  1.0
  C  C80  1  0.50411687  0.00096611  0.75028075  1.0
  C  C81  1  0.40369146  0.00200342  0.79064397  1.0
  C  C82  1  0.60388229  0.00063500  0.79081070  1.0
  C  C83  1  0.50382582  0.90074519  0.71010324  1.0
  C  C84  1  0.50470828  0.10084812  0.70980291  1.0
  C  C85  1  0.60331257  0.15804653  0.69762870  1.0
  C  C86  1  0.40487011  0.84476182  0.69737773  1.0
  C  C87  1  0.34662412  0.10083359  0.80268016  1.0
  C  C88  1  0.66097793  0.90211852  0.80338201  1.0
  C  C89  1  0.60931416  0.23980882  0.65541710  1.0
  C  C90  1  0.39892097  0.76413984  0.65471225  1.0
  C  C91  1  0.26575253  0.10776950  0.84547983  1.0
  C  C92  1  0.74140249  0.89604331  0.84622803  1.0
  C  C93  1  0.51023838  0.26537738  0.62497098  1.0
  C  C94  1  0.49857468  0.73763885  0.62467400  1.0
  C  C95  1  0.24138513  0.00925903  0.87673562  1.0
  C  C96  1  0.76565907  0.99517760  0.87692028  1.0
  C  C97  1  0.41090773  0.20665781  0.63796236  1.0
  C  C98  1  0.59828522  0.79462562  0.63842053  1.0
  C  C99  1  0.29930177  0.90952368  0.86347955  1.0
  C  C100  1  0.70736523  0.09444749  0.86327182  1.0
  C  C101  1  0.40708288  0.12565333  0.67898084  1.0
  C  C102  1  0.60197809  0.87505256  0.67965251  1.0
  C  C103  1  0.37911912  0.90467799  0.82179662  1.0
  C  C104  1  0.62784923  0.09838990  0.82162792  1.0
  C  C105  1  0.50252478  0.00216243  0.24999865  1.0
  C  C106  1  0.40331307  0.00232362  0.20915546  1.0
  C  C107  1  0.60326809  0.00242146  0.20984140  1.0
  C  C108  1  0.50113462  0.10201753  0.29040157  1.0
  C  C109  1  0.50180143  0.90190607  0.29022624  1.0
  C  C110  1  0.60005148  0.84452785  0.30304790  1.0
  C  C111  1  0.40193148  0.15864210  0.30249360  1.0
  C  C112  1  0.34599308  0.90418420  0.19648165  1.0
  C  C113  1  0.66036916  0.10087956  0.19733085  1.0
  C  C114  1  0.60474757  0.76298578  0.34537588  1.0
  C  C115  1  0.39465307  0.23956316  0.34499502  1.0
  C  C116  1  0.26557124  0.89894569  0.15362795  1.0
  C  C117  1  0.74092061  0.10684516  0.15433871  1.0
  C  C118  1  0.50452853  0.73717396  0.37505104  1.0
  C  C119  1  0.49319078  0.26503546  0.37575582  1.0
  C  C120  1  0.24171590  0.99853745  0.12308751  1.0
  C  C121  1  0.76529536  0.00768572  0.12356526  1.0
  C  C122  1  0.40552275  0.79576214  0.36128396  1.0
  C  C123  1  0.59322489  0.20718489  0.36275419  1.0
  C  C124  1  0.30056857  0.09719440  0.13667791  1.0
  C  C125  1  0.70727063  0.90846134  0.13727153  1.0
  C  C126  1  0.40310246  0.87699150  0.32034749  1.0
  C  C127  1  0.59823977  0.12688380  0.32147270  1.0
  C  C128  1  0.38002920  0.10033494  0.17833007  1.0
  C  C129  1  0.62765628  0.90461523  0.17904601  1.0
  C  C130  1  0.07529285  0.36365893  0.99966415  1.0
  C  C131  1  0.88165610  0.33470737  0.99998312  1.0
  C  C132  1  0.85612587  0.44817819  0.00031906  1.0
  C  C133  1  0.94804367  0.52527410  0.00013769  1.0
  C  C134  1  0.93376771  0.64365819  0.00026616  1.0
  C  C135  1  0.12731427  0.67287876  0.99984553  1.0
  C  C136  1  0.15300800  0.55939877  0.99978109  1.0
  C  C137  1  0.06118248  0.48212711  0.99982551  1.0
  C  C138  1  0.98266750  0.49410106  0.36720960  1.0
  C  C139  1  0.01919555  0.49600770  0.63308980  1.0
  C  C140  1  0.27484372  0.52498379  0.99971050  1.0
  C  C141  1  0.73436134  0.48278510  0.00093846  1.0
  N  N142  1  0.21082250  0.49854022  0.50867893  1.0
  N  N143  1  0.79124502  0.49785796  0.49163045  1.0
  N  N144  1  0.98857806  0.29371516  0.99970344  1.0
  N  N145  1  0.02033612  0.71369435  0.00007723  1.0
  N  N146  1  0.29712242  0.71281446  0.64450372  1.0
  N  N147  1  0.79042716  0.79407515  0.85765968  1.0
  N  N148  1  0.71020826  0.29338497  0.64613867  1.0
  N  N149  1  0.21660343  0.20991167  0.85637801  1.0
  N  N150  1  0.29315130  0.29230177  0.35431438  1.0
  N  N151  1  0.78968432  0.20891856  0.14273577  1.0
  N  N152  1  0.70600348  0.71018524  0.35552139  1.0
  N  N153  1  0.21631885  0.79717108  0.14205841  1.0
  O  O154  1  0.59443715  0.60950541  0.43599177  1.0
  O  O155  1  0.40582316  0.63113338  0.44293454  1.0
  O  O156  1  0.39957095  0.39157301  0.43634201  1.0
  O  O157  1  0.58796296  0.37050474  0.44458099  1.0
  O  O158  1  0.41411145  0.37198304  0.55671662  1.0
  O  O159  1  0.60250088  0.39295331  0.56460334  1.0
  O  O160  1  0.59606035  0.63205572  0.55624531  1.0
  O  O161  1  0.40741874  0.61162833  0.56349611  1.0
  O  O162  1  0.10380576  0.91181514  0.06696811  1.0
  O  O163  1  0.14185666  0.09577079  0.05251047  1.0
  O  O164  1  0.10557586  0.09987171  0.93336978  1.0
  O  O165  1  0.14197219  0.91591423  0.94869235  1.0
  O  O166  1  0.86563407  0.09025442  0.94799185  1.0
  O  O167  1  0.90233984  0.90611081  0.93337595  1.0
  O  O168  1  0.86483516  0.91157066  0.05241194  1.0
  O  O169  1  0.90184125  0.09580337  0.06656059  1.0
