# generated using pymatgen
data_ZnH5C25N3(ClO)4
_symmetry_space_group_name_H-M   'P 1'
_cell_length_a   14.39021163
_cell_length_b   15.27062182
_cell_length_c   16.05069139
_cell_angle_alpha   87.95022849
_cell_angle_beta   89.73611304
_cell_angle_gamma   89.73992015
_symmetry_Int_Tables_number   1
_chemical_formula_structural   ZnH5C25N3(ClO)4
_chemical_formula_sum   'Zn2 H10 C50 N6 Cl8 O8'
_cell_volume   3524.77095332
_cell_formula_units_Z   2
loop_
 _symmetry_equiv_pos_site_id
 _symmetry_equiv_pos_as_xyz
  1  'x, y, z'
loop_
 _atom_site_type_symbol
 _atom_site_label
 _atom_site_symmetry_multiplicity
 _atom_site_fract_x
 _atom_site_fract_y
 _atom_site_fract_z
 _atom_site_occupancy
  Zn  Zn0  1  0.39761034  0.50029433  0.50134909  1.0
  Zn  Zn1  1  0.60238380  0.49970224  0.49864886  1.0
  H  H2  1  0.37879657  0.40227791  0.95037999  1.0
  H  H3  1  0.53609519  0.92749681  0.28977191  1.0
  H  H4  1  0.62120659  0.59772913  0.04961765  1.0
  H  H5  1  0.65237933  0.44833536  0.95172785  1.0
  H  H6  1  0.34762522  0.55167232  0.04826914  1.0
  H  H7  1  0.47231387  0.77353960  0.63226704  1.0
  H  H8  1  0.52769346  0.22645888  0.36773520  1.0
  H  H9  1  0.46309402  0.91059649  0.70942863  1.0
  H  H10  1  0.53690843  0.08940463  0.29057354  1.0
  H  H11  1  0.46390171  0.07250433  0.71022840  1.0
  C  C12  1  0.50255054  0.32987853  0.49950716  1.0
  C  C13  1  0.50027592  0.04657419  0.50018624  1.0
  C  C14  1  0.51340033  0.91001295  0.42342964  1.0
  C  C15  1  0.48660213  0.08998686  0.57657194  1.0
  C  C16  1  0.47303867  0.94917260  0.65152726  1.0
  C  C17  1  0.52696241  0.05082656  0.34847373  1.0
  C  C18  1  0.47346660  0.03867821  0.65201798  1.0
  C  C19  1  0.52653378  0.96132161  0.34798298  1.0
  C  C20  1  0.19680850  0.54762360  0.44248275  1.0
  C  C21  1  0.80318974  0.45239058  0.55752839  1.0
  C  C22  1  0.19683633  0.45304054  0.55945472  1.0
  C  C23  1  0.49747486  0.67011925  0.50049321  1.0
  C  C24  1  0.80315778  0.54696649  0.44054729  1.0
  C  C25  1  0.09904904  0.46147953  0.56982896  1.0
  C  C26  1  0.90094922  0.53853663  0.43017838  1.0
  C  C27  1  0.50023498  0.49823210  0.33950340  1.0
  C  C28  1  0.49973900  0.50176913  0.66049382  1.0
  C  C29  1  0.04968998  0.50006217  0.50052892  1.0
  C  C30  1  0.95030618  0.49995400  0.49947905  1.0
  C  C31  1  0.09943211  0.53926497  0.43225230  1.0
  C  C32  1  0.90056613  0.46074856  0.56775761  1.0
  C  C33  1  0.04693568  0.43608362  0.64342843  1.0
  C  C34  1  0.49818423  0.76869232  0.50050488  1.0
  C  C35  1  0.95306464  0.56393842  0.35658123  1.0
  C  C36  1  0.95030081  0.43413418  0.64232217  1.0
  C  C37  1  0.04970020  0.56588654  0.35768941  1.0
  C  C38  1  0.43204937  0.44625055  0.97285634  1.0
  C  C39  1  0.56795449  0.55375715  0.02713878  1.0
  C  C40  1  0.51542650  0.41790270  0.02968775  1.0
  C  C41  1  0.48457806  0.58210499  0.97030799  1.0
  C  C42  1  0.49883602  0.49723274  0.24979054  1.0
  C  C43  1  0.50114491  0.50278094  0.75020132  1.0
  C  C44  1  0.41501075  0.52820482  0.02650114  1.0
  C  C45  1  0.50182379  0.23130747  0.49949670  1.0
  C  C46  1  0.58499311  0.47180157  0.97349464  1.0
  C  C47  1  0.49823539  0.50049939  0.08599677  1.0
  C  C48  1  0.50176847  0.49950765  0.91399900  1.0
  C  C49  1  0.49797726  0.49901642  0.17393509  1.0
  C  C50  1  0.50202379  0.50099517  0.82606865  1.0
  C  C51  1  0.51362677  0.81701069  0.42522068  1.0
  C  C52  1  0.48638125  0.18298844  0.57478091  1.0
  C  C53  1  0.90359559  0.41489658  0.71937665  1.0
  C  C54  1  0.09640747  0.58514376  0.28063934  1.0
  C  C55  1  0.52996058  0.77179454  0.35037134  1.0
  C  C56  1  0.48410314  0.81172315  0.57442560  1.0
  C  C57  1  0.47004675  0.22820591  0.64963022  1.0
  C  C58  1  0.51590418  0.18827729  0.42557658  1.0
  C  C59  1  0.48558412  0.90366341  0.57587596  1.0
  C  C60  1  0.51441904  0.09633640  0.42412562  1.0
  C  C61  1  0.49972516  0.95342561  0.49981597  1.0
  N  N62  1  0.24370555  0.50037174  0.50087508  1.0
  N  N63  1  0.75629202  0.49963658  0.49912938  1.0
  N  N64  1  0.87031792  0.40165903  0.78515685  1.0
  N  N65  1  0.12969064  0.59840878  0.21486519  1.0
  N  N66  1  0.54437786  0.73493446  0.28892813  1.0
  N  N67  1  0.45562668  0.26506600  0.71107281  1.0
  Cl  Cl68  1  0.53489694  0.31174704  0.06860911  1.0
  Cl  Cl69  1  0.46510483  0.68825934  0.93138917  1.0
  Cl  Cl70  1  0.10049629  0.41796871  0.73732538  1.0
  Cl  Cl71  1  0.89951165  0.58207298  0.26268184  1.0
  Cl  Cl72  1  0.25745031  0.62034802  0.38195771  1.0
  Cl  Cl73  1  0.74254858  0.37967987  0.61806176  1.0
  Cl  Cl74  1  0.25931563  0.37835465  0.61632639  1.0
  Cl  Cl75  1  0.74066674  0.62163153  0.38366191  1.0
  O  O76  1  0.42356115  0.36682858  0.50138312  1.0
  O  O77  1  0.57644622  0.63317522  0.49860588  1.0
  O  O78  1  0.58194119  0.36543367  0.49791169  1.0
  O  O79  1  0.41806750  0.63455754  0.50210073  1.0
  O  O80  1  0.42148580  0.49969721  0.37620677  1.0
  O  O81  1  0.57847360  0.50030868  0.62378535  1.0
  O  O82  1  0.58004386  0.49755986  0.37359330  1.0
  O  O83  1  0.41991276  0.50242305  0.62640946  1.0
