# generated using pymatgen
data_FeH24C26(SN3)2
_symmetry_space_group_name_H-M   'P 1'
_cell_length_a   13.04677166
_cell_length_b   13.32803542
_cell_length_c   13.47442563
_cell_angle_alpha   75.91801718
_cell_angle_beta   61.95186617
_cell_angle_gamma   60.71113878
_symmetry_Int_Tables_number   1
_chemical_formula_structural   FeH24C26(SN3)2
_chemical_formula_sum   'Fe2 H48 C52 S4 N12'
_cell_volume   1803.24173013
_cell_formula_units_Z   2
loop_
 _symmetry_equiv_pos_site_id
 _symmetry_equiv_pos_as_xyz
  1  'x, y, z'
loop_
 _atom_site_type_symbol
 _atom_site_label
 _atom_site_symmetry_multiplicity
 _atom_site_fract_x
 _atom_site_fract_y
 _atom_site_fract_z
 _atom_site_occupancy
  Fe  Fe0  1  0.00026436  0.00709218  0.98870308  1.0
  Fe  Fe1  1  0.99122706  0.49736154  0.51155449  1.0
  H  H2  1  0.77694220  0.10063481  0.43013090  1.0
  H  H3  1  0.22070766  0.56742042  0.89965799  1.0
  H  H4  1  0.31166570  0.39584989  0.06981498  1.0
  H  H5  1  0.69010283  0.92863159  0.60376720  1.0
  H  H6  1  0.22058269  0.89805816  0.57864665  1.0
  H  H7  1  0.78278744  0.42363821  0.10160859  1.0
  H  H8  1  0.69528706  0.60400375  0.92257354  1.0
  H  H9  1  0.30603293  0.07788671  0.39616597  1.0
  H  H10  1  0.79208977  0.10873375  0.23738760  1.0
  H  H11  1  0.20441136  0.76289543  0.88915042  1.0
  H  H12  1  0.14046869  0.39177160  0.25911740  1.0
  H  H13  1  0.85870775  0.73399719  0.61365675  1.0
  H  H14  1  0.20454224  0.89438253  0.76946621  1.0
  H  H15  1  0.79949670  0.23048199  0.10290877  1.0
  H  H16  1  0.86462966  0.60745309  0.73442175  1.0
  H  H17  1  0.12900779  0.27047335  0.39665572  1.0
  H  H18  1  0.16930787  0.83547270  0.31542927  1.0
  H  H19  1  0.83580396  0.68793571  0.16501752  1.0
  H  H20  1  0.32116714  0.66268471  0.18832831  1.0
  H  H21  1  0.68747236  0.81036883  0.33457764  1.0
  H  H22  1  0.83119352  0.16755323  0.68716193  1.0
  H  H23  1  0.16479656  0.31204527  0.83244572  1.0
  H  H24  1  0.68504980  0.33596868  0.80717440  1.0
  H  H25  1  0.31271929  0.18817701  0.66756478  1.0
  H  H26  1  0.86996996  0.99277523  0.56732827  1.0
  H  H27  1  0.13126011  0.42849001  0.00902682  1.0
  H  H28  1  0.42782746  0.50641552  0.93388446  1.0
  H  H29  1  0.56969958  0.06922076  0.49329508  1.0
  H  H30  1  0.13040863  0.00495323  0.43801489  1.0
  H  H31  1  0.86858445  0.56681212  0.99499836  1.0
  H  H32  1  0.57701828  0.49469860  0.06070334  1.0
  H  H33  1  0.43028835  0.93400048  0.50315882  1.0
  H  H34  1  0.02362776  0.87242083  0.52679564  1.0
  H  H35  1  0.97871195  0.47243405  0.12590649  1.0
  H  H36  1  0.41967339  0.62694372  0.97599633  1.0
  H  H37  1  0.57656230  0.02625242  0.37490076  1.0
  H  H38  1  0.97725630  0.12567071  0.47683563  1.0
  H  H39  1  0.02048630  0.52544670  0.87765461  1.0
  H  H40  1  0.58478005  0.37391745  0.01954803  1.0
  H  H41  1  0.42484782  0.97448227  0.62200949  1.0
  H  H42  1  0.17136265  0.86093966  0.12382660  1.0
  H  H43  1  0.83166624  0.88216572  0.13785867  1.0
  H  H44  1  0.15598385  0.64067655  0.37673394  1.0
  H  H45  1  0.85092263  0.61670582  0.36091423  1.0
  H  H46  1  0.82794086  0.14967843  0.87675189  1.0
  H  H47  1  0.16875824  0.12042227  0.84733156  1.0
  H  H48  1  0.85059539  0.35463504  0.62014778  1.0
  H  H49  1  0.13868919  0.37962448  0.65327594  1.0
  C  C50  1  0.97225640  0.96625427  0.38952243  1.0
  C  C51  1  0.02910502  0.61053418  0.03414287  1.0
  C  C52  1  0.33105879  0.53085173  0.11198189  1.0
  C  C53  1  0.67311877  0.88723519  0.46775725  1.0
  C  C54  1  0.02684197  0.03413109  0.61523964  1.0
  C  C55  1  0.97260894  0.38567051  0.96560372  1.0
  C  C56  1  0.67407498  0.46886081  0.88292488  1.0
  C  C57  1  0.32509295  0.11508435  0.53303740  1.0
  C  C58  1  0.86606872  0.04415991  0.36543190  1.0
  C  C59  1  0.13282870  0.63394134  0.95575219  1.0
  C  C60  1  0.27911929  0.45328414  0.13467188  1.0
  C  C61  1  0.72353965  0.86275597  0.54679587  1.0
  C  C62  1  0.13136056  0.95660059  0.64161029  1.0
  C  C63  1  0.87032638  0.35963740  0.04248727  1.0
  C  C64  1  0.72691277  0.54595776  0.85865178  1.0
  C  C65  1  0.27151865  0.14151410  0.45597039  1.0
  C  C66  1  0.29817585  0.89693103  0.89752039  1.0
  C  C67  1  0.70222199  0.10459436  0.09927318  1.0
  C  C68  1  0.09094817  0.60394180  0.60574394  1.0
  C  C69  1  0.90610452  0.39525880  0.39705798  1.0
  C  C70  1  0.87450714  0.05084865  0.25753084  1.0
  C  C71  1  0.12367324  0.74357344  0.94764870  1.0
  C  C72  1  0.18504144  0.44893998  0.24087274  1.0
  C  C73  1  0.81630750  0.75315829  0.55462800  1.0
  C  C74  1  0.12275820  0.95229343  0.74893350  1.0
  C  C75  1  0.87932386  0.25111436  0.04528712  1.0
  C  C76  1  0.82049557  0.55027008  0.75252122  1.0
  C  C77  1  0.17357809  0.24978247  0.45425262  1.0
  C  C78  1  0.08365061  0.89799535  0.30138966  1.0
  C  C79  1  0.91959750  0.70117640  0.10201620  1.0
  C  C80  1  0.28491870  0.60011990  0.20074858  1.0
  C  C81  1  0.72184985  0.79691132  0.39870375  1.0
  C  C82  1  0.91630994  0.10499961  0.70195791  1.0
  C  C83  1  0.08138608  0.29752775  0.89413779  1.0
  C  C84  1  0.72104640  0.39874686  0.79458592  1.0
  C  C85  1  0.27522806  0.20288984  0.60541692  1.0
  C  C86  1  0.96997311  0.96130354  0.50272720  1.0
  C  C87  1  0.03122268  0.49617075  0.03923193  1.0
  C  C88  1  0.43387261  0.53730902  0.99871882  1.0
  C  C89  1  0.56654059  0.00222748  0.46211078  1.0
  C  C90  1  0.03011653  0.03708484  0.50208532  1.0
  C  C91  1  0.96905308  0.49992983  0.96389360  1.0
  C  C92  1  0.57087529  0.46341620  0.99618880  1.0
  C  C93  1  0.43363236  0.00025803  0.53527857  1.0
  C  C94  1  0.08576464  0.91090650  0.19502818  1.0
  C  C95  1  0.91630756  0.80926407  0.08805177  1.0
  C  C96  1  0.19246562  0.58930124  0.30551505  1.0
  C  C97  1  0.81333779  0.68877890  0.41211289  1.0
  C  C98  1  0.91312136  0.09622698  0.80789264  1.0
  C  C99  1  0.08481684  0.19047771  0.90132947  1.0
  C  C100  1  0.81383442  0.40781289  0.68979562  1.0
  C  C101  1  0.17784353  0.30978844  0.59873761  1.0
  S  S102  1  0.45466257  0.83401002  0.84070777  1.0
  S  S103  1  0.54631822  0.16049796  0.16632449  1.0
  S  S104  1  0.13162303  0.66535195  0.66180552  1.0
  S  S105  1  0.87446787  0.33609085  0.32997945  1.0
  N  N106  1  0.98295897  0.98653217  0.17318704  1.0
  N  N107  1  0.01647287  0.83094012  0.01122600  1.0
  N  N108  1  0.14285730  0.51496617  0.32560683  1.0
  N  N109  1  0.86000168  0.66549735  0.49003020  1.0
  N  N110  1  0.01450579  0.01976586  0.83329952  1.0
  N  N111  1  0.98561250  0.16554850  0.97675452  1.0
  N  N112  1  0.86380196  0.48358913  0.66666667  1.0
  N  N113  1  0.12678734  0.33477014  0.52364762  1.0
  N  N114  1  0.18304372  0.94158232  0.93766991  1.0
  N  N115  1  0.81702852  0.06480863  0.05176791  1.0
  N  N116  1  0.05823812  0.56016898  0.56598710  1.0
  N  N117  1  0.93250650  0.43732975  0.44481812  1.0
