# generated using pymatgen
data_ZnH14(C11N6)2
_symmetry_space_group_name_H-M   'P 1'
_cell_length_a   17.53898535
_cell_length_b   17.53902016
_cell_length_c   17.53899920
_cell_angle_alpha   109.31619768
_cell_angle_beta   109.31616577
_cell_angle_gamma   109.31614901
_symmetry_Int_Tables_number   1
_chemical_formula_structural   ZnH14(C11N6)2
_chemical_formula_sum   'Zn6 H84 C132 N72'
_cell_volume   4176.96647484
_cell_formula_units_Z   6
loop_
 _symmetry_equiv_pos_site_id
 _symmetry_equiv_pos_as_xyz
  1  'x, y, z'
loop_
 _atom_site_type_symbol
 _atom_site_label
 _atom_site_symmetry_multiplicity
 _atom_site_fract_x
 _atom_site_fract_y
 _atom_site_fract_z
 _atom_site_occupancy
  Zn  Zn0  1  0.24789943  0.24735126  0.76272355  1.0
  Zn  Zn1  1  0.76272410  0.24790014  0.24735170  1.0
  Zn  Zn2  1  0.24735177  0.76272415  0.24790013  1.0
  Zn  Zn3  1  0.75209955  0.75264805  0.23727616  1.0
  Zn  Zn4  1  0.23727643  0.75209987  0.75264876  1.0
  Zn  Zn5  1  0.75264756  0.23727586  0.75209936  1.0
  H  H6  1  0.37777604  0.23976000  0.65123291  1.0
  H  H7  1  0.65123282  0.37777658  0.23976013  1.0
  H  H8  1  0.23975989  0.65123289  0.37777652  1.0
  H  H9  1  0.62222234  0.76023932  0.34876661  1.0
  H  H10  1  0.34876685  0.62222412  0.76023970  1.0
  H  H11  1  0.76023978  0.34876781  0.62222331  1.0
  H  H12  1  0.51976617  0.36285248  0.66791432  1.0
  H  H13  1  0.66791365  0.51976565  0.36285261  1.0
  H  H14  1  0.36285280  0.66791515  0.51976731  1.0
  H  H15  1  0.48023152  0.63714544  0.33208223  1.0
  H  H16  1  0.33208568  0.48023436  0.63714803  1.0
  H  H17  1  0.63714748  0.33208555  0.48023330  1.0
  H  H18  1  0.53330053  0.56476072  0.88785556  1.0
  H  H19  1  0.88785555  0.53330052  0.56476080  1.0
  H  H20  1  0.56476118  0.88785599  0.53330066  1.0
  H  H21  1  0.46670026  0.43523859  0.11214362  1.0
  H  H22  1  0.11214473  0.46670018  0.43523924  1.0
  H  H23  1  0.43523961  0.11214332  0.46669794  1.0
  H  H24  1  0.42125755  0.69203762  0.05737027  1.0
  H  H25  1  0.05737156  0.42125820  0.69203953  1.0
  H  H26  1  0.69204034  0.05737178  0.42125893  1.0
  H  H27  1  0.57874264  0.30796169  0.94262928  1.0
  H  H28  1  0.94262897  0.57874180  0.30796093  1.0
  H  H29  1  0.30796149  0.94262961  0.57874185  1.0
  H  H30  1  0.38560756  0.79197996  0.16435695  1.0
  H  H31  1  0.16435920  0.38560906  0.79198221  1.0
  H  H32  1  0.79198158  0.16435910  0.38560799  1.0
  H  H33  1  0.61439263  0.20801935  0.83564202  1.0
  H  H34  1  0.83564108  0.61439164  0.20801839  1.0
  H  H35  1  0.20801938  0.83564299  0.61439216  1.0
  H  H36  1  0.21839715  0.56825288  0.17359258  1.0
  H  H37  1  0.17359188  0.21839673  0.56825343  1.0
  H  H38  1  0.56825369  0.17359266  0.21839743  1.0
  H  H39  1  0.78160304  0.43174643  0.82640754  1.0
  H  H40  1  0.82640676  0.78160189  0.43174595  1.0
  H  H41  1  0.43174719  0.82640804  0.78160280  1.0
  H  H42  1  0.24636942  0.45930102  0.06667754  1.0
  H  H43  1  0.06667673  0.24636844  0.45930030  1.0
  H  H44  1  0.45930055  0.06667728  0.24636993  1.0
  H  H45  1  0.75363017  0.54069829  0.93332237  1.0
  H  H46  1  0.93332252  0.75363018  0.54069813  1.0
  H  H47  1  0.54069938  0.93332272  0.75363033  1.0
  H  H48  1  0.10755210  0.24272917  0.86472320  1.0
  H  H49  1  0.86472285  0.10755070  0.24272739  1.0
  H  H50  1  0.24272726  0.86472266  0.10755069  1.0
  H  H51  1  0.89244722  0.75727084  0.13527686  1.0
  H  H52  1  0.13527803  0.89245001  0.75727171  1.0
  H  H53  1  0.75727206  0.13527734  0.89244880  1.0
  H  H54  1  0.95725057  0.11697784  0.83226896  1.0
  H  H55  1  0.83226873  0.95724909  0.11697702  1.0
  H  H56  1  0.11697661  0.83226853  0.95724893  1.0
  H  H57  1  0.04274876  0.88302217  0.16773224  1.0
  H  H58  1  0.16773000  0.04275092  0.88302171  1.0
  H  H59  1  0.88302177  0.16773078  0.04275059  1.0
  H  H60  1  0.95132047  0.92620765  0.60985593  1.0
  H  H61  1  0.60985427  0.95132023  0.92620712  1.0
  H  H62  1  0.92620710  0.60985503  0.95132048  1.0
  H  H63  1  0.04867825  0.07379235  0.39014507  1.0
  H  H64  1  0.39014566  0.04867978  0.07379315  1.0
  H  H65  1  0.07379249  0.39014428  0.04867830  1.0
  H  H66  1  0.26913069  0.06231914  0.46899708  1.0
  H  H67  1  0.46899681  0.26913123  0.06231961  1.0
  H  H68  1  0.06232021  0.46899667  0.26913125  1.0
  H  H69  1  0.73086864  0.93768087  0.53100356  1.0
  H  H70  1  0.53100312  0.73086878  0.93768065  1.0
  H  H71  1  0.93768154  0.53100333  0.73087075  1.0
  H  H72  1  0.29407796  0.96214512  0.35086489  1.0
  H  H73  1  0.35086344  0.29407753  0.96214406  1.0
  H  H74  1  0.96214456  0.35086318  0.29407780  1.0
  H  H75  1  0.70592205  0.03785628  0.64913700  1.0
  H  H76  1  0.64913589  0.70592248  0.03785600  1.0
  H  H77  1  0.03785555  0.64913474  0.70592126  1.0
  H  H78  1  0.09399532  0.72147855  0.30938510  1.0
  H  H79  1  0.30938392  0.09399430  0.72147699  1.0
  H  H80  1  0.72147794  0.30938409  0.09399489  1.0
  H  H81  1  0.90600547  0.27852076  0.69061465  1.0
  H  H82  1  0.69061654  0.90600432  0.27852127  1.0
  H  H83  1  0.27852449  0.69061731  0.90600666  1.0
  H  H84  1  0.05875037  0.81171286  0.42359216  1.0
  H  H85  1  0.42359189  0.05875040  0.81171295  1.0
  H  H86  1  0.81171353  0.42359176  0.05874977  1.0
  H  H87  1  0.94125076  0.18828715  0.57640850  1.0
  H  H88  1  0.57640933  0.94125099  0.18828706  1.0
  H  H89  1  0.18828769  0.57640964  0.94125081  1.0
  C  C90  1  0.41357914  0.31287848  0.70414236  1.0
  C  C91  1  0.70414165  0.41357920  0.31287851  1.0
  C  C92  1  0.31287836  0.70414154  0.41357916  1.0
  C  C93  1  0.58642071  0.68712013  0.29585741  1.0
  C  C94  1  0.29585863  0.58642150  0.68712153  1.0
  C  C95  1  0.68712183  0.29585777  0.58641981  1.0
  C  C96  1  0.49117437  0.38097099  0.71346413  1.0
  C  C97  1  0.71346333  0.49117469  0.38097056  1.0
  C  C98  1  0.38097049  0.71346405  0.49117450  1.0
  C  C99  1  0.50882427  0.61902763  0.28653410  1.0
  C  C100  1  0.28653599  0.50882532  0.61902893  1.0
  C  C101  1  0.61902883  0.28653595  0.50882442  1.0
  C  C102  1  0.49908048  0.49230640  0.83423164  1.0
  C  C103  1  0.83423043  0.49908032  0.49230628  1.0
  C  C104  1  0.49230678  0.83423134  0.49908068  1.0
  C  C105  1  0.50091911  0.50769292  0.16576713  1.0
  C  C106  1  0.16576924  0.50092038  0.50769356  1.0
  C  C107  1  0.50769402  0.16576797  0.50091792  1.0
  C  C108  1  0.42128704  0.42488599  0.82631440  1.0
  C  C109  1  0.82631550  0.42128814  0.42488655  1.0
  C  C110  1  0.42488610  0.82631525  0.42128778  1.0
  C  C111  1  0.57871160  0.57511263  0.17368326  1.0
  C  C112  1  0.17368477  0.57871256  0.57511405  1.0
  C  C113  1  0.57511417  0.17368546  0.57871225  1.0
  C  C114  1  0.38165469  0.44493559  0.88620786  1.0
  C  C115  1  0.88620811  0.38165506  0.44493572  1.0
  C  C116  1  0.44493665  0.88620832  0.38165498  1.0
  C  C117  1  0.61834455  0.55506302  0.11379058  1.0
  C  C118  1  0.11379277  0.61834565  0.55506394  1.0
  C  C119  1  0.55506388  0.11379169  0.61834435  1.0
  C  C120  1  0.34410249  0.50319641  0.98295477  1.0
  C  C121  1  0.98295466  0.34410239  0.50319783  1.0
  C  C122  1  0.50319765  0.98295474  0.34410169  1.0
  C  C123  1  0.65589830  0.49680290  0.01704497  1.0
  C  C124  1  0.01704398  0.65589622  0.49680211  1.0
  C  C125  1  0.49680288  0.01704527  0.65589763  1.0
  C  C126  1  0.33460551  0.56704581  0.05207119  1.0
  C  C127  1  0.05207081  0.33460569  0.56704762  1.0
  C  C128  1  0.56704763  0.05207138  0.33460557  1.0
  C  C129  1  0.66539434  0.43295281  0.94792858  1.0
  C  C130  1  0.94792878  0.66539362  0.43295230  1.0
  C  C131  1  0.43295360  0.94793002  0.66539501  1.0
  C  C132  1  0.37631834  0.66260986  0.08227460  1.0
  C  C133  1  0.08227601  0.37631983  0.66261184  1.0
  C  C134  1  0.66261228  0.08227605  0.37631970  1.0
  C  C135  1  0.62368151  0.33738876  0.91772403  1.0
  C  C136  1  0.91772392  0.62368018  0.33738785  1.0
  C  C137  1  0.33738860  0.91772466  0.62368053  1.0
  C  C138  1  0.35652622  0.71784505  0.14146434  1.0
  C  C139  1  0.14146562  0.35652685  0.71784663  1.0
  C  C140  1  0.71784664  0.14146637  0.35652710  1.0
  C  C141  1  0.64347397  0.28215426  0.85853463  1.0
  C  C142  1  0.85853396  0.64347246  0.28215329  1.0
  C  C143  1  0.28215399  0.85853502  0.64347328  1.0
  C  C144  1  0.26308868  0.59287961  0.14641621  1.0
  C  C145  1  0.14641653  0.26308909  0.59288060  1.0
  C  C146  1  0.59288009  0.14641639  0.26308940  1.0
  C  C147  1  0.73691151  0.40711970  0.85358391  1.0
  C  C148  1  0.85358340  0.73691092  0.40711966  1.0
  C  C149  1  0.40712018  0.85358431  0.73691120  1.0
  C  C150  1  0.27840343  0.53267879  0.08723414  1.0
  C  C151  1  0.08723346  0.27840273  0.53268016  1.0
  C  C152  1  0.53268014  0.08723485  0.27840426  1.0
  C  C153  1  0.72159762  0.46731982  0.91276603  1.0
  C  C154  1  0.91276613  0.72159658  0.46731976  1.0
  C  C155  1  0.46732083  0.91276724  0.72159760  1.0
  C  C156  1  0.07181759  0.17154880  0.80761234  1.0
  C  C157  1  0.80761201  0.07181557  0.17154546  1.0
  C  C158  1  0.17154514  0.80761213  0.07181616  1.0
  C  C159  1  0.92818354  0.82845120  0.19238946  1.0
  C  C160  1  0.19238697  0.92818375  0.82845425  1.0
  C  C161  1  0.82845358  0.19238788  0.92818370  1.0
  C  C162  1  0.98952221  0.10189610  0.78977188  1.0
  C  C163  1  0.78977056  0.98952057  0.10189352  1.0
  C  C164  1  0.10189265  0.78977033  0.98952029  1.0
  C  C165  1  0.01047806  0.89810460  0.21022930  1.0
  C  C166  1  0.21022782  0.01047874  0.89810713  1.0
  C  C167  1  0.89810634  0.21022898  0.01047886  1.0
  C  C168  1  0.98567896  0.99676211  0.66748942  1.0
  C  C169  1  0.66748749  0.98567911  0.99676117  1.0
  C  C170  1  0.99676105  0.66748851  0.98567970  1.0
  C  C171  1  0.01432002  0.00323720  0.33251144  1.0
  C  C172  1  0.33251158  0.01432160  0.00323903  1.0
  C  C173  1  0.00323793  0.33251080  0.01431944  1.0
  C  C174  1  0.06771115  0.06603581  0.68338146  1.0
  C  C175  1  0.68338074  0.06771053  0.06603534  1.0
  C  C176  1  0.06603487  0.68338096  0.06771104  1.0
  C  C177  1  0.93228784  0.93396350  0.31661883  1.0
  C  C178  1  0.31661832  0.93229017  0.93396543  1.0
  C  C179  1  0.93396464  0.31661696  0.93228782  1.0
  C  C180  1  0.11085032  0.05095129  0.62603674  1.0
  C  C181  1  0.62603601  0.11085051  0.05095143  1.0
  C  C182  1  0.05095113  0.62603612  0.11085041  1.0
  C  C183  1  0.88914900  0.94904871  0.37396389  1.0
  C  C184  1  0.37396305  0.88915019  0.94904934  1.0
  C  C185  1  0.94904872  0.37396249  0.88914936  1.0
  C  C186  1  0.15195280  0.00183023  0.52927868  1.0
  C  C187  1  0.52927829  0.15195332  0.00182987  1.0
  C  C188  1  0.00183068  0.52927833  0.15195360  1.0
  C  C189  1  0.84804618  0.99816908  0.47072160  1.0
  C  C190  1  0.47072198  0.84804738  0.99816960  1.0
  C  C191  1  0.99817054  0.47072306  0.84804869  1.0
  C  C192  1  0.16264716  0.94452596  0.45650198  1.0
  C  C193  1  0.45650266  0.16264845  0.94452548  1.0
  C  C194  1  0.94452628  0.45650179  0.16264756  1.0
  C  C195  1  0.83735216  0.05547405  0.54349808  1.0
  C  C196  1  0.54349762  0.83735226  0.05547398  1.0
  C  C197  1  0.05547675  0.54349961  0.83735419  1.0
  C  C198  1  0.22876875  0.98694095  0.43427210  1.0
  C  C199  1  0.43427206  0.22876931  0.98694109  1.0
  C  C200  1  0.98694175  0.43427222  0.22876965  1.0
  C  C201  1  0.77122963  0.01305837  0.56572741  1.0
  C  C202  1  0.56572692  0.77123000  0.01305863  1.0
  C  C203  1  0.01305965  0.56572709  0.77123030  1.0
  C  C204  1  0.24264176  0.93173842  0.36911010  1.0
  C  C205  1  0.36910937  0.24264098  0.93173817  1.0
  C  C206  1  0.93173938  0.36910972  0.24264174  1.0
  C  C207  1  0.75735938  0.06826158  0.63089113  1.0
  C  C208  1  0.63088996  0.75735903  0.06826190  1.0
  C  C209  1  0.06826202  0.63088959  0.75735878  1.0
  C  C210  1  0.13047623  0.79724194  0.34514470  1.0
  C  C211  1  0.34514309  0.13047575  0.79724058  1.0
  C  C212  1  0.79724090  0.34514305  0.13047527  1.0
  C  C213  1  0.86952465  0.20275876  0.65485610  1.0
  C  C214  1  0.65485659  0.86952495  0.20275925  1.0
  C  C215  1  0.20275990  0.65485626  0.86952390  1.0
  C  C216  1  0.11122071  0.84719082  0.40889048  1.0
  C  C217  1  0.40888961  0.11122086  0.84718990  1.0
  C  C218  1  0.84719019  0.40889002  0.11122073  1.0
  C  C219  1  0.88878043  0.15280918  0.59111018  1.0
  C  C220  1  0.59111127  0.88877984  0.15280976  1.0
  C  C221  1  0.15281069  0.59111068  0.88877894  1.0
  N  N222  1  0.37848540  0.33491766  0.75993676  1.0
  N  N223  1  0.75993690  0.37848561  0.33491749  1.0
  N  N224  1  0.33491755  0.75993644  0.37848544  1.0
  N  N225  1  0.62151479  0.66508165  0.24006278  1.0
  N  N226  1  0.24006338  0.62151510  0.66508254  1.0
  N  N227  1  0.66508238  0.24006357  0.62151425  1.0
  N  N228  1  0.53376843  0.47084636  0.77811610  1.0
  N  N229  1  0.77811483  0.53376862  0.47084618  1.0
  N  N230  1  0.47084687  0.77811614  0.53376931  1.0
  N  N231  1  0.46623210  0.52915365  0.22188436  1.0
  N  N232  1  0.22188450  0.46623139  0.52915332  1.0
  N  N233  1  0.52915341  0.22188456  0.46623073  1.0
  N  N234  1  0.40442102  0.52815071  0.95164678  1.0
  N  N235  1  0.95164593  0.40442113  0.52815219  1.0
  N  N236  1  0.52815239  0.95164716  0.40442113  1.0
  N  N237  1  0.59557908  0.47184721  0.04835284  1.0
  N  N238  1  0.04835400  0.59557888  0.47184750  1.0
  N  N239  1  0.47184754  0.04835284  0.59557799  1.0
  N  N240  1  0.31149580  0.37358162  0.87800081  1.0
  N  N241  1  0.87800156  0.31149660  0.37358285  1.0
  N  N242  1  0.37358340  0.87800100  0.31149618  1.0
  N  N243  1  0.68850439  0.62641769  0.12199874  1.0
  N  N244  1  0.12199967  0.68850479  0.62641716  1.0
  N  N245  1  0.62641774  0.12199900  0.68850391  1.0
  N  N246  1  0.28676069  0.40990466  0.93968855  1.0
  N  N247  1  0.93968927  0.28676098  0.40990630  1.0
  N  N248  1  0.40990564  0.93968942  0.28676113  1.0
  N  N249  1  0.71323950  0.59009465  0.06031043  1.0
  N  N250  1  0.06031066  0.71323903  0.59009396  1.0
  N  N251  1  0.59009558  0.06031197  0.71323945  1.0
  N  N252  1  0.29974851  0.68380700  0.17222263  1.0
  N  N253  1  0.17222335  0.29974856  0.68380750  1.0
  N  N254  1  0.68380769  0.17222406  0.29974914  1.0
  N  N255  1  0.70025108  0.31619231  0.82777615  1.0
  N  N256  1  0.82777529  0.70025006  0.31619187  1.0
  N  N257  1  0.31619259  0.82777664  0.70025089  1.0
  N  N258  1  0.11114616  0.15364542  0.75521287  1.0
  N  N259  1  0.75521282  0.11114458  0.15364459  1.0
  N  N260  1  0.15364440  0.75521244  0.11114443  1.0
  N  N261  1  0.88885343  0.84635389  0.24478762  1.0
  N  N262  1  0.24478685  0.88885612  0.84635525  1.0
  N  N263  1  0.84635390  0.24478549  0.88885403  1.0
  N  N264  1  0.94686393  0.01419001  0.72037180  1.0
  N  N265  1  0.72036932  0.94686231  0.01418761  1.0
  N  N266  1  0.01418786  0.72036930  0.94686176  1.0
  N  N267  1  0.05313574  0.98581070  0.27962917  1.0
  N  N268  1  0.27963035  0.05313840  0.98581280  1.0
  N  N269  1  0.98581233  0.27963001  0.05313722  1.0
  N  N270  1  0.18569125  0.12498757  0.64389746  1.0
  N  N271  1  0.64389688  0.18569149  0.12498773  1.0
  N  N272  1  0.12498732  0.64389691  0.18569133  1.0
  N  N273  1  0.81430808  0.87501243  0.35610374  1.0
  N  N274  1  0.35610245  0.81430851  0.87501290  1.0
  N  N275  1  0.87501295  0.35610379  0.81430871  1.0
  N  N276  1  0.21274940  0.09470546  0.58248084  1.0
  N  N277  1  0.58248021  0.21274977  0.09470469  1.0
  N  N278  1  0.09470560  0.58248075  0.21275006  1.0
  N  N279  1  0.78724993  0.90529455  0.41751979  1.0
  N  N280  1  0.41752041  0.78725163  0.90529455  1.0
  N  N281  1  0.90529632  0.41752203  0.78725235  1.0
  N  N282  1  0.08704969  0.97138787  0.55408328  1.0
  N  N283  1  0.55408229  0.08704967  0.97138820  1.0
  N  N284  1  0.97138826  0.55408204  0.08705039  1.0
  N  N285  1  0.91294964  0.02861214  0.44591735  1.0
  N  N286  1  0.44591704  0.91295034  0.02861186  1.0
  N  N287  1  0.02861254  0.44591727  0.91295049  1.0
  N  N288  1  0.19577070  0.83823001  0.32580674  1.0
  N  N289  1  0.32580610  0.19577024  0.83822983  1.0
  N  N290  1  0.83823035  0.32580609  0.19577022  1.0
  N  N291  1  0.80423105  0.16177000  0.67419355  1.0
  N  N292  1  0.67419323  0.80422976  0.16176966  1.0
  N  N293  1  0.16177113  0.67419461  0.80422965  1.0
