# generated using pymatgen
data_Zn4H33C78N23O14
_symmetry_space_group_name_H-M   'P 1'
_cell_length_a   18.81361868
_cell_length_b   19.68870988
_cell_length_c   20.24242059
_cell_angle_alpha   106.51479408
_cell_angle_beta   109.64691028
_cell_angle_gamma   108.83802645
_symmetry_Int_Tables_number   1
_chemical_formula_structural   Zn4H33C78N23O14
_chemical_formula_sum   'Zn4 H33 C78 N23 O14'
_cell_volume   5999.27281110
_cell_formula_units_Z   1
loop_
 _symmetry_equiv_pos_site_id
 _symmetry_equiv_pos_as_xyz
  1  'x, y, z'
loop_
 _atom_site_type_symbol
 _atom_site_label
 _atom_site_symmetry_multiplicity
 _atom_site_fract_x
 _atom_site_fract_y
 _atom_site_fract_z
 _atom_site_occupancy
  Zn  Zn0  1  0.87620273  0.88199185  0.48953118  1.0
  Zn  Zn1  1  0.10631338  0.12259772  0.51559923  1.0
  Zn  Zn2  1  0.10421926  0.99133280  0.60627152  1.0
  Zn  Zn3  1  0.87061259  0.99816456  0.38256268  1.0
  H  H4  1  0.82367836  0.86992414  0.63820421  1.0
  H  H5  1  0.21720041  0.12770241  0.77662439  1.0
  H  H6  1  0.18450124  0.27453331  0.65772806  1.0
  H  H7  1  0.85834726  0.00204809  0.63404797  1.0
  H  H8  1  0.84819964  0.16121892  0.35277134  1.0
  H  H9  1  0.14824390  0.87285359  0.50407275  1.0
  H  H10  1  0.15842826  0.10591429  0.39079166  1.0
  H  H11  1  0.87358695  0.73654691  0.36883043  1.0
  H  H12  1  0.77974320  0.83878282  0.21796192  1.0
  H  H13  1  0.28944153  0.99430808  0.63643987  1.0
  H  H14  1  0.15395484  0.49023292  0.42838678  1.0
  H  H15  1  0.89811995  0.50870301  0.27412312  1.0
  H  H16  1  0.88334074  0.37905213  0.27410542  1.0
  H  H17  1  0.44987484  0.49174887  0.87656468  1.0
  H  H18  1  0.57611268  0.60915867  0.99478982  1.0
  H  H19  1  0.86266254  0.02963118  0.91919406  1.0
  H  H20  1  0.15112886  0.11438995  0.12707433  1.0
  H  H21  1  0.12288721  0.07148486  0.98903283  1.0
  H  H22  1  0.91176716  0.92726116  0.13431360  1.0
  H  H23  1  0.77780337  0.87316418  0.01268522  1.0
  H  H24  1  0.65643440  0.89465460  0.01924884  1.0
  H  H25  1  0.66987744  0.96962777  0.14875131  1.0
  H  H26  1  0.80429795  0.02745881  0.26877785  1.0
  H  H27  1  0.60948379  0.32260327  0.98433151  1.0
  H  H28  1  0.57366405  0.18264285  0.96255901  1.0
  H  H29  1  0.43116847  0.09124234  0.93960507  1.0
  H  H30  1  0.32572184  0.14141050  0.94069163  1.0
  H  H31  1  0.36222866  0.28207206  0.96384314  1.0
  H  H32  1  0.72547471  0.60422705  0.28277016  1.0
  H  H33  1  0.67902774  0.50817687  0.33422475  1.0
  H  H34  1  0.64437932  0.54662497  0.44363124  1.0
  H  H35  1  0.65390635  0.68146157  0.49891439  1.0
  H  H36  1  0.69630514  0.77672750  0.44451259  1.0
  C  C37  1  0.89070103  0.89442930  0.65343450  1.0
  C  C38  1  0.05148009  0.23406477  0.46644409  1.0
  C  C39  1  0.19486962  0.15118347  0.73603076  1.0
  C  C40  1  0.79709850  0.04005193  0.48342007  1.0
  C  C41  1  0.17872138  0.22672940  0.67527332  1.0
  C  C42  1  0.84455538  0.01193836  0.58215052  1.0
  C  C43  1  0.91330018  0.17810758  0.39231339  1.0
  C  C44  1  0.03054166  0.95071284  0.70956136  1.0
  C  C45  1  0.96229344  0.93850106  0.72831436  1.0
  C  C46  1  0.98867440  0.24511840  0.41427846  1.0
  C  C47  1  0.23079175  0.23050626  0.74624235  1.0
  C  C48  1  0.78955977  0.04227252  0.55147973  1.0
  C  C49  1  0.74367040  0.75554223  0.33143691  1.0
  C  C50  1  0.29396592  0.11967637  0.55920999  1.0
  C  C51  1  0.07988288  0.85119434  0.47844657  1.0
  C  C52  1  0.94966353  0.01478228  0.28014633  1.0
  C  C53  1  0.08937819  0.07351497  0.36112256  1.0
  C  C54  1  0.93903899  0.78130696  0.40915149  1.0
  C  C55  1  0.77360696  0.82088215  0.26261839  1.0
  C  C56  1  0.28172849  0.03384018  0.60970419  1.0
  C  C57  1  0.73545795  0.74307323  0.25605050  1.0
  C  C58  1  0.33969075  0.08336875  0.59359138  1.0
  C  C59  1  0.01428157  0.77586306  0.41791128  1.0
  C  C60  1  0.03082611  0.05613597  0.28612136  1.0
  C  C61  1  0.73489984  0.06111435  0.57622879  1.0
  C  C62  1  0.68012546  0.07206797  0.59120295  1.0
  C  C63  1  0.61730062  0.08112355  0.60267182  1.0
  C  C64  1  0.55510415  0.08614204  0.60736177  1.0
  C  C65  1  0.48526472  0.08880047  0.60769246  1.0
  C  C66  1  0.41843571  0.08902870  0.60311297  1.0
  C  C67  1  0.10514471  0.56543850  0.39330248  1.0
  C  C68  1  0.03305805  0.57472524  0.35436536  1.0
  C  C69  1  0.95384926  0.50400335  0.30761871  1.0
  C  C70  1  0.94552303  0.43175824  0.30783101  1.0
  C  C71  1  0.01663819  0.42622886  0.35497414  1.0
  C  C72  1  0.09731766  0.49317894  0.39427949  1.0
  C  C73  1  0.03288932  0.64850281  0.36593695  1.0
  C  C74  1  0.00658300  0.35834269  0.36865773  1.0
  C  C75  1  0.99866292  0.30509898  0.38946647  1.0
  C  C76  1  0.02184024  0.70756849  0.38430630  1.0
  C  C77  1  0.50855862  0.39406665  0.98390842  1.0
  C  C78  1  0.45836897  0.40692244  0.92279914  1.0
  C  C79  1  0.48651553  0.48411051  0.92596116  1.0
  C  C80  1  0.55695105  0.54923024  0.99118409  1.0
  C  C81  1  0.60230728  0.54032003  0.05687901  1.0
  C  C82  1  0.57880167  0.46162453  0.04926025  1.0
  C  C83  1  0.37967029  0.34466749  0.85994382  1.0
  C  C84  1  0.65953462  0.60907006  0.12855195  1.0
  C  C85  1  0.69573725  0.67122642  0.18837305  1.0
  C  C86  1  0.30815254  0.29430401  0.80821012  1.0
  C  C87  1  0.94351600  0.07424885  0.04116264  1.0
  C  C88  1  0.02283299  0.09263806  0.10147525  1.0
  C  C89  1  0.08845832  0.09603516  0.08090058  1.0
  C  C90  1  0.07254623  0.07153010  0.00417953  1.0
  C  C91  1  0.98925696  0.04160166  0.94323548  1.0
  C  C92  1  0.92608168  0.04717076  0.96342743  1.0
  C  C93  1  0.03487415  0.09563761  0.17461028  1.0
  C  C94  1  0.97263677  0.00452457  0.86529184  1.0
  C  C95  1  0.96605969  0.97000274  0.80121653  1.0
  C  C96  1  0.04215838  0.07952630  0.22993338  1.0
  C  C97  1  0.86730977  0.97971961  0.21055516  1.0
  C  C98  1  0.85853376  0.93632836  0.13720904  1.0
  C  C99  1  0.78307942  0.90565854  0.06907495  1.0
  C  C100  1  0.71481194  0.91735666  0.07280709  1.0
  C  C101  1  0.72236404  0.95942267  0.14520998  1.0
  C  C102  1  0.79824601  0.99079866  0.21353353  1.0
  C  C103  1  0.48808367  0.31170120  0.97552803  1.0
  C  C104  1  0.54760821  0.28322659  0.97577146  1.0
  C  C105  1  0.52722721  0.20430996  0.96307934  1.0
  C  C106  1  0.44736383  0.15308224  0.95014685  1.0
  C  C107  1  0.38811386  0.18124475  0.95063267  1.0
  C  C108  1  0.40829855  0.26003362  0.96324230  1.0
  C  C109  1  0.71613324  0.69802541  0.36133200  1.0
  C  C110  1  0.71000071  0.62149635  0.33020110  1.0
  C  C111  1  0.68428566  0.56750950  0.35970974  1.0
  C  C112  1  0.66490450  0.58910268  0.42093274  1.0
  C  C113  1  0.67072817  0.66497944  0.45227244  1.0
  C  C114  1  0.69573255  0.71896803  0.42256992  1.0
  N  N115  1  0.91653872  0.88599200  0.59788027  1.0
  N  N116  1  0.01603087  0.16727900  0.47405633  1.0
  N  N117  1  0.12835014  0.10388019  0.66370627  1.0
  N  N118  1  0.85168045  0.01206414  0.47640170  1.0
  N  N119  1  0.11880754  0.15045560  0.62530788  1.0
  N  N120  1  0.87987971  0.99340236  0.53557306  1.0
  N  N121  1  0.93157664  0.13274914  0.42808685  1.0
  N  N122  1  0.00205747  0.92082071  0.63205863  1.0
  N  N123  1  0.78509083  0.83557105  0.37826743  1.0
  N  N124  1  0.21598638  0.09364226  0.55469837  1.0
  N  N125  1  0.04553422  0.89616393  0.50395417  1.0
  N  N126  1  0.96117944  0.01128965  0.34839174  1.0
  N  N127  1  0.04740613  0.04769498  0.39849926  1.0
  N  N128  1  0.95879321  0.85313355  0.46154074  1.0
  N  N129  1  0.80328697  0.87516433  0.33531893  1.0
  N  N130  1  0.21003674  0.04135153  0.58695677  1.0
  N  N131  1  0.32589635  0.17655723  0.53173729  1.0
  N  N132  1  0.19139832  0.63361944  0.43847260  1.0
  N  N133  1  0.14086930  0.27761927  0.50449563  1.0
  N  N134  1  0.62837319  0.45257649  0.11739410  1.0
  N  N135  1  0.87589547  0.08213014  0.05891883  1.0
  N  N136  1  0.74882430  0.05157361  0.42074594  1.0
  N  N137  1  0.11941535  0.98752454  0.75752897  1.0
  O  O138  1  0.40428879  0.21175205  0.55832365  1.0
  O  O139  1  0.27388273  0.18643129  0.48300770  1.0
  O  O140  1  0.25204597  0.61987547  0.46615893  1.0
  O  O141  1  0.19871341  0.70071698  0.44611879  1.0
  O  O142  1  0.17626842  0.34299297  0.50560455  1.0
  O  O143  1  0.18253231  0.24571565  0.53698584  1.0
  O  O144  1  0.70591673  0.47804686  0.13962413  1.0
  O  O145  1  0.58981490  0.42195107  0.14858534  1.0
  O  O146  1  0.80379418  0.05285176  0.00291856  1.0
  O  O147  1  0.89526463  0.11905310  0.12821846  1.0
  O  O148  1  0.70259920  0.08231823  0.42821747  1.0
  O  O149  1  0.75424339  0.02664845  0.35816776  1.0
  O  O150  1  0.14954496  0.01504374  0.82935693  1.0
  O  O151  1  0.16579748  0.99060870  0.72330302  1.0
