# generated using pymatgen
data_Al2H19C28O10F
_symmetry_space_group_name_H-M   'P 1'
_cell_length_a   7.23578548
_cell_length_b   11.17324180
_cell_length_c   15.02592526
_cell_angle_alpha   91.76215477
_cell_angle_beta   102.30450555
_cell_angle_gamma   108.87539122
_symmetry_Int_Tables_number   1
_chemical_formula_structural   Al2H19C28O10F
_chemical_formula_sum   'Al2 H19 C28 O10 F1'
_cell_volume   1116.52308426
_cell_formula_units_Z   1
loop_
 _symmetry_equiv_pos_site_id
 _symmetry_equiv_pos_as_xyz
  1  'x, y, z'
loop_
 _atom_site_type_symbol
 _atom_site_label
 _atom_site_symmetry_multiplicity
 _atom_site_fract_x
 _atom_site_fract_y
 _atom_site_fract_z
 _atom_site_occupancy
  Al  Al0  1  0.98573935  0.49241348  0.49165317  1.0
  Al  Al1  1  0.48735071  0.49274703  0.49321856  1.0
  H  H2  1  0.33668690  0.60413976  0.59391261  1.0
  H  H3  1  0.62873951  0.34721846  0.41984360  1.0
  H  H4  1  0.55876207  0.43945320  0.77118027  1.0
  H  H5  1  0.17966636  0.54987566  0.75860180  1.0
  H  H6  1  0.37628066  0.45775517  0.21167145  1.0
  H  H7  1  0.86975864  0.56791965  0.23584834  1.0
  H  H8  1  0.66783459  0.36433519  0.00104826  1.0
  H  H9  1  0.48926525  0.41723181  0.93176564  1.0
  H  H10  1  0.40087732  0.65035972  0.99229981  1.0
  H  H11  1  0.42584431  0.55190767  0.90445089  1.0
  H  H12  1  0.18138355  0.36278932  0.97362466  1.0
  H  H13  1  0.41878810  0.42405627  0.04867596  1.0
  H  H14  1  0.74839221  0.65122559  0.01073681  1.0
  H  H15  1  0.62396393  0.56243502  0.08906063  1.0
  H  H16  1  0.15446293  0.86300359  0.42214604  1.0
  H  H17  1  0.68169166  0.89884944  0.64316838  1.0
  H  H18  1  0.50546537  0.88106713  0.53649112  1.0
  H  H19  1  0.62734361  0.11994751  0.53433931  1.0
  H  H20  1  0.80203015  0.13624782  0.64119745  1.0
  C  C21  1  0.84833760  0.71444081  0.49167608  1.0
  C  C22  1  0.80746617  0.49291995  0.65351707  1.0
  C  C23  1  0.12263309  0.26947371  0.48886828  1.0
  C  C24  1  0.17668234  0.50672526  0.33390723  1.0
  C  C25  1  0.64590488  0.44725857  0.96789666  1.0
  C  C26  1  0.32998237  0.55741404  0.95041703  1.0
  C  C27  1  0.29129741  0.44989456  0.01517032  1.0
  C  C28  1  0.72341209  0.56253730  0.04378916  1.0
  C  C29  1  0.71723373  0.47181904  0.80681948  1.0
  C  C30  1  0.77681690  0.48124217  0.90199340  1.0
  C  C31  1  0.06887064  0.53521697  0.79992981  1.0
  C  C32  1  0.12647344  0.54507409  0.89494314  1.0
  C  C33  1  0.25086356  0.48766827  0.17925625  1.0
  C  C34  1  0.19897767  0.49043714  0.08481736  1.0
  C  C35  1  0.96498330  0.55123096  0.19295221  1.0
  C  C36  1  0.91611713  0.55505002  0.09867573  1.0
  C  C37  1  0.86454579  0.50125418  0.75552120  1.0
  C  C38  1  0.98034935  0.52321857  0.94562467  1.0
  C  C39  1  0.13382785  0.51886611  0.23362406  1.0
  C  C40  1  0.03716144  0.52834478  0.04552356  1.0
  C  C41  1  0.91430810  0.85479547  0.48951068  1.0
  C  C42  1  0.05144791  0.12844558  0.48702168  1.0
  C  C43  1  0.82202007  0.93109378  0.52463212  1.0
  C  C44  1  0.14061874  0.04875441  0.45055694  1.0
  C  C45  1  0.88940691  0.06293329  0.52353077  1.0
  C  C46  1  0.07747676  0.91749866  0.45171915  1.0
  C  C47  1  0.66091426  0.93155465  0.57462253  1.0
  C  C48  1  0.73707943  0.08107334  0.57343531  1.0
  O  O49  1  0.97837181  0.66162493  0.48678350  1.0
  O  O50  1  0.62662556  0.48436140  0.61638861  1.0
  O  O51  1  0.30657130  0.32354444  0.48803607  1.0
  O  O52  1  0.03150912  0.49703895  0.37213030  1.0
  O  O53  1  0.99025426  0.32145506  0.49233185  1.0
  O  O54  1  0.35107378  0.50432523  0.37163258  1.0
  O  O55  1  0.66818769  0.66186619  0.49923292  1.0
  O  O56  1  0.94794067  0.49674670  0.61314123  1.0
  O  O57  1  0.28445869  0.54989942  0.53629532  1.0
  O  O58  1  0.68739769  0.43380898  0.44955076  1.0
  F  F59  1  0.29543291  0.10018961  0.40945541  1.0
