# generated using pymatgen
data_Zr3H35(C39O8)2
_symmetry_space_group_name_H-M   'P 1'
_cell_length_a   22.11741793
_cell_length_b   22.12281588
_cell_length_c   22.12873025
_cell_angle_alpha   89.96833441
_cell_angle_beta   90.03035850
_cell_angle_gamma   89.93201680
_symmetry_Int_Tables_number   1
_chemical_formula_structural   Zr3H35(C39O8)2
_chemical_formula_sum   'Zr6 H70 C156 O32'
_cell_volume   10827.56727751
_cell_formula_units_Z   2
loop_
 _symmetry_equiv_pos_site_id
 _symmetry_equiv_pos_as_xyz
  1  'x, y, z'
loop_
 _atom_site_type_symbol
 _atom_site_label
 _atom_site_symmetry_multiplicity
 _atom_site_fract_x
 _atom_site_fract_y
 _atom_site_fract_z
 _atom_site_occupancy
  Zr  Zr0  1  0.49819575  0.61368907  0.49983871  1.0
  Zr  Zr1  1  0.49844675  0.50100692  0.38682381  1.0
  Zr  Zr2  1  0.61193963  0.50092155  0.49951468  1.0
  Zr  Zr3  1  0.49943160  0.38762940  0.49943914  1.0
  Zr  Zr4  1  0.38592087  0.50009188  0.50045086  1.0
  Zr  Zr5  1  0.49952555  0.50070167  0.61276580  1.0
  H  H6  1  0.41090750  0.41151804  0.58934816  1.0
  H  H7  1  0.50678432  0.00061867  0.20820189  1.0
  H  H8  1  0.49508596  0.15408390  0.05565703  1.0
  H  H9  1  0.49262671  0.15410951  0.94350131  1.0
  H  H10  1  0.52749544  0.72655090  0.16411646  1.0
  H  H11  1  0.52200933  0.64055650  0.23741997  1.0
  H  H12  1  0.48998076  0.76533666  0.38243480  1.0
  H  H13  1  0.49381424  0.85174613  0.30974052  1.0
  H  H14  1  0.49119265  0.36161252  0.23388261  1.0
  H  H15  1  0.49263450  0.27502315  0.16128134  1.0
  H  H16  1  0.50150732  0.15038356  0.31109973  1.0
  H  H17  1  0.49929312  0.23751754  0.38288402  1.0
  H  H18  1  0.49500345  0.00068860  0.79073598  1.0
  H  H19  1  0.50457963  0.84723899  0.94331342  1.0
  H  H20  1  0.50866929  0.84720112  0.05542766  1.0
  H  H21  1  0.51358227  0.27392122  0.83646604  1.0
  H  H22  1  0.51622347  0.36035962  0.76348541  1.0
  H  H23  1  0.48619766  0.23778636  0.61618430  1.0
  H  H24  1  0.48178048  0.15100709  0.68849481  1.0
  H  H25  1  0.49567117  0.63986879  0.76392891  1.0
  H  H26  1  0.49681921  0.72595147  0.83729808  1.0
  H  H27  1  0.50061456  0.85180810  0.68832759  1.0
  H  H28  1  0.49920527  0.76520978  0.61579192  1.0
  H  H29  1  0.78975624  0.50389080  0.00076846  1.0
  H  H30  1  0.94167365  0.48878828  0.84718451  1.0
  H  H31  1  0.05392778  0.48854868  0.84660561  1.0
  H  H32  1  0.83626277  0.50127737  0.27394990  1.0
  H  H33  1  0.76349438  0.49982068  0.36044416  1.0
  H  H34  1  0.61523313  0.52197656  0.23712623  1.0
  H  H35  1  0.68724587  0.52437115  0.15008995  1.0
  H  H36  1  0.76425776  0.48974512  0.63991037  1.0
  H  H37  1  0.83642382  0.48843129  0.72707017  1.0
  H  H38  1  0.68589313  0.49648315  0.85078369  1.0
  H  H39  1  0.61455696  0.49725312  0.76314846  1.0
  H  H40  1  0.20756947  0.49940760  0.99896246  1.0
  H  H41  1  0.05560706  0.50766022  0.15302872  1.0
  H  H42  1  0.94338617  0.50966044  0.15349437  1.0
  H  H43  1  0.16228874  0.49070044  0.72500590  1.0
  H  H44  1  0.23606057  0.49469848  0.63936732  1.0
  H  H45  1  0.38295726  0.50904922  0.76538991  1.0
  H  H46  1  0.30996902  0.50575638  0.85155765  1.0
  H  H47  1  0.23321042  0.50606647  0.36026500  1.0
  H  H48  1  0.16115860  0.50945917  0.27315627  1.0
  H  H49  1  0.31083084  0.48915937  0.14975742  1.0
  H  H50  1  0.38209529  0.48668754  0.23738337  1.0
  H  H51  1  0.99670776  0.79197018  0.49694159  1.0
  H  H52  1  0.15184406  0.94275760  0.50582645  1.0
  H  H53  1  0.15300724  0.05492804  0.50884529  1.0
  H  H54  1  0.72236086  0.83926937  0.49241203  1.0
  H  H55  1  0.63651884  0.76566584  0.49232572  1.0
  H  H56  1  0.76235204  0.61783578  0.49416325  1.0
  H  H57  1  0.84879238  0.69053797  0.49428625  1.0
  H  H58  1  0.35775082  0.76399844  0.49800502  1.0
  H  H59  1  0.27097263  0.83670256  0.49581734  1.0
  H  H60  1  0.14648920  0.68720359  0.50842686  1.0
  H  H61  1  0.23378916  0.61531076  0.51005892  1.0
  H  H62  1  0.00103832  0.20953337  0.50745579  1.0
  H  H63  1  0.84592272  0.05868250  0.50075006  1.0
  H  H64  1  0.84473060  0.94648995  0.49803896  1.0
  H  H65  1  0.27541793  0.16212745  0.51163206  1.0
  H  H66  1  0.36142212  0.23541442  0.50706139  1.0
  H  H67  1  0.23579847  0.38300039  0.49485167  1.0
  H  H68  1  0.14925763  0.31051345  0.49888460  1.0
  H  H69  1  0.64064512  0.23757555  0.48151781  1.0
  H  H70  1  0.72784703  0.16545450  0.48006031  1.0
  H  H71  1  0.84853901  0.31150501  0.52600322  1.0
  H  H72  1  0.76104112  0.38322937  0.52539607  1.0
  H  H73  1  0.40901181  0.58941557  0.41126880  1.0
  H  H74  1  0.58788111  0.41248601  0.40996500  1.0
  H  H75  1  0.58829031  0.58956313  0.58838524  1.0
  C  C76  1  0.49546975  0.35534616  0.35711392  1.0
  C  C77  1  0.50178501  0.64724370  0.35840819  1.0
  C  C78  1  0.50181648  0.05603363  0.12825679  1.0
  C  C79  1  0.50533606  0.00064443  0.15900521  1.0
  C  C80  1  0.50692070  0.94526375  0.12815739  1.0
  C  C81  1  0.50493509  0.94460047  0.06362333  1.0
  C  C82  1  0.50146982  0.00066647  0.03177547  1.0
  C  C83  1  0.49995635  0.05672505  0.06370290  1.0
  C  C84  1  0.49653961  0.11171932  0.03051139  1.0
  C  C85  1  0.49514241  0.11172926  0.96859193  1.0
  C  C86  1  0.50976369  0.89102352  0.16167929  1.0
  C  C87  1  0.51131472  0.84497629  0.19223711  1.0
  C  C88  1  0.51052214  0.79495705  0.23201228  1.0
  C  C89  1  0.51883077  0.73489669  0.21186918  1.0
  C  C90  1  0.51599827  0.68706180  0.25254000  1.0
  C  C91  1  0.50539402  0.69789330  0.31408321  1.0
  C  C92  1  0.49790058  0.75755317  0.33449145  1.0
  C  C93  1  0.50018682  0.80543198  0.29420709  1.0
  C  C94  1  0.50022132  0.11028614  0.16177565  1.0
  C  C95  1  0.49871759  0.15648770  0.19205902  1.0
  C  C96  1  0.49525363  0.30462350  0.31269485  1.0
  C  C97  1  0.49329379  0.31513763  0.25017725  1.0
  C  C98  1  0.49417895  0.26695492  0.20985270  1.0
  C  C99  1  0.49729423  0.20683231  0.23133425  1.0
  C  C100  1  0.49911704  0.19669840  0.29441955  1.0
  C  C101  1  0.49795244  0.24493710  0.33425629  1.0
  C  C102  1  0.49659630  0.64687324  0.64134153  1.0
  C  C103  1  0.50293824  0.35470971  0.64129428  1.0
  C  C104  1  0.49830393  0.94530870  0.87082056  1.0
  C  C105  1  0.49612704  0.00069314  0.83995684  1.0
  C  C106  1  0.49573481  0.05608617  0.87079362  1.0
  C  C107  1  0.49677775  0.05672779  0.93535107  1.0
  C  C108  1  0.49951447  0.00066840  0.96724684  1.0
  C  C109  1  0.50048871  0.94460144  0.93534710  1.0
  C  C110  1  0.50379154  0.88958683  0.96849382  1.0
  C  C111  1  0.50603964  0.88958545  0.03037583  1.0
  C  C112  1  0.49518229  0.11036340  0.83725457  1.0
  C  C113  1  0.49610845  0.15643407  0.80673078  1.0
  C  C114  1  0.49751114  0.20667166  0.76729114  1.0
  C  C115  1  0.50717709  0.26623394  0.78824453  1.0
  C  C116  1  0.50885776  0.31426190  0.74776223  1.0
  C  C117  1  0.50147647  0.30400174  0.68564366  1.0
  C  C118  1  0.49191806  0.24490187  0.66455264  1.0
  C  C119  1  0.48960443  0.19686935  0.70464322  1.0
  C  C120  1  0.49866478  0.89103454  0.83735926  1.0
  C  C121  1  0.49877281  0.84480092  0.80711935  1.0
  C  C122  1  0.49711497  0.69753803  0.68568806  1.0
  C  C123  1  0.49664789  0.68653712  0.74812769  1.0
  C  C124  1  0.49736452  0.73440657  0.78877247  1.0
  C  C125  1  0.49858635  0.79467556  0.76758856  1.0
  C  C126  1  0.49941381  0.80530436  0.70456645  1.0
  C  C127  1  0.49863620  0.75735045  0.66437992  1.0
  C  C128  1  0.64126147  0.49637420  0.64548533  1.0
  C  C129  1  0.64059752  0.50653365  0.35417344  1.0
  C  C130  1  0.86955248  0.49803199  0.94525274  1.0
  C  C131  1  0.83899863  0.50256223  0.00062322  1.0
  C  C132  1  0.87009593  0.50524040  0.05583561  1.0
  C  C133  1  0.93470314  0.50386266  0.05628861  1.0
  C  C134  1  0.96634043  0.49980889  0.00017644  1.0
  C  C135  1  0.93414097  0.49652163  0.94433159  1.0
  C  C136  1  0.96706815  0.49204848  0.88930008  1.0
  C  C137  1  0.02903969  0.49181216  0.88900769  1.0
  C  C138  1  0.83663631  0.50884738  0.11002639  1.0
  C  C139  1  0.80592420  0.51117941  0.15589976  1.0
  C  C140  1  0.76653976  0.51239847  0.20616515  1.0
  C  C141  1  0.78783853  0.50608092  0.26608017  1.0
  C  C142  1  0.74745204  0.50522540  0.31417768  1.0
  C  C143  1  0.68507574  0.51034905  0.30372788  1.0
  C  C144  1  0.66375629  0.51768914  0.24437657  1.0
  C  C145  1  0.70369659  0.51888956  0.19620489  1.0
  C  C146  1  0.83571649  0.49538479  0.89123031  1.0
  C  C147  1  0.80516179  0.49358698  0.84519984  1.0
  C  C148  1  0.68524863  0.49386540  0.69648793  1.0
  C  C149  1  0.74779798  0.49107829  0.68633632  1.0
  C  C150  1  0.78780449  0.49037195  0.73479557  1.0
  C  C151  1  0.76594894  0.49271820  0.79477592  1.0
  C  C152  1  0.70280130  0.49486024  0.80455162  1.0
  C  C153  1  0.66324403  0.49532745  0.75603000  1.0
  C  C154  1  0.35620400  0.49670809  0.35471675  1.0
  C  C155  1  0.35813112  0.50296254  0.64678239  1.0
  C  C156  1  0.12781042  0.50123847  0.05481130  1.0
  C  C157  1  0.15832888  0.49917580  0.99928049  1.0
  C  C158  1  0.12716854  0.49666895  0.94407925  1.0
  C  C159  1  0.06257575  0.49573371  0.94374080  1.0
  C  C160  1  0.03095273  0.49916641  0.99989046  1.0
  C  C161  1  0.06320197  0.50202469  0.05574513  1.0
  C  C162  1  0.03023699  0.50556623  0.11081430  1.0
  C  C163  1  0.96827357  0.50659540  0.11107362  1.0
  C  C164  1  0.16057389  0.49580935  0.88976500  1.0
  C  C165  1  0.19139761  0.49626268  0.84390742  1.0
  C  C166  1  0.23129537  0.49800577  0.79407461  1.0
  C  C167  1  0.21059937  0.49491530  0.73371085  1.0
  C  C168  1  0.25146670  0.49711564  0.68609173  1.0
  C  C169  1  0.31367834  0.50215221  0.69737188  1.0
  C  C170  1  0.33453759  0.50524216  0.75725988  1.0
  C  C171  1  0.29408502  0.50330038  0.80499024  1.0
  C  C172  1  0.16161282  0.50204866  0.10893256  1.0
  C  C173  1  0.19211603  0.50145800  0.15502926  1.0
  C  C174  1  0.31190366  0.49634341  0.30387454  1.0
  C  C175  1  0.24955539  0.50236111  0.31395266  1.0
  C  C176  1  0.20955976  0.50421062  0.26548361  1.0
  C  C177  1  0.23121214  0.49966483  0.20555027  1.0
  C  C178  1  0.29406755  0.49296056  0.19590584  1.0
  C  C179  1  0.33360609  0.49148398  0.24442724  1.0
  C  C180  1  0.35183648  0.64144072  0.50388152  1.0
  C  C181  1  0.64407720  0.64287275  0.49525698  1.0
  C  C182  1  0.05293150  0.87132664  0.50060023  1.0
  C  C183  1  0.99719907  0.84117211  0.49848231  1.0
  C  C184  1  0.94209875  0.87266830  0.49817862  1.0
  C  C185  1  0.94211151  0.93722773  0.49995260  1.0
  C  C186  1  0.99854423  0.96845393  0.50217604  1.0
  C  C187  1  0.05431829  0.93586889  0.50264349  1.0
  C  C188  1  0.10971317  0.96841236  0.50522782  1.0
  C  C189  1  0.11035052  0.03033854  0.50688830  1.0
  C  C190  1  0.88754302  0.83970180  0.49616223  1.0
  C  C191  1  0.84137485  0.80939662  0.49465527  1.0
  C  C192  1  0.79135625  0.76974109  0.49363588  1.0
  C  C193  1  0.73098315  0.79075225  0.49279428  1.0
  C  C194  1  0.68323731  0.74995497  0.49276175  1.0
  C  C195  1  0.69447453  0.68753542  0.49351750  1.0
  C  C196  1  0.75439522  0.66641752  0.49376961  1.0
  C  C197  1  0.80223430  0.70673249  0.49381112  1.0
  C  C198  1  0.10684943  0.83715720  0.50077533  1.0
  C  C199  1  0.15267905  0.80620821  0.50104044  1.0
  C  C200  1  0.30079934  0.68550942  0.50410814  1.0
  C  C201  1  0.31125207  0.74792524  0.50029091  1.0
  C  C202  1  0.26301586  0.78820347  0.49912364  1.0
  C  C203  1  0.20292590  0.76671506  0.50202131  1.0
  C  C204  1  0.19282737  0.70373423  0.50607866  1.0
  C  C205  1  0.24116935  0.66388629  0.50700392  1.0
  C  C206  1  0.64501020  0.35887064  0.50219765  1.0
  C  C207  1  0.35394172  0.35801922  0.49875629  1.0
  C  C208  1  0.94479740  0.13013587  0.50453919  1.0
  C  C209  1  0.00050403  0.16031300  0.50660285  1.0
  C  C210  1  0.05560886  0.12881187  0.50719667  1.0
  C  C211  1  0.05564805  0.06423671  0.50611595  1.0
  C  C212  1  0.99921968  0.03300817  0.50390525  1.0
  C  C213  1  0.94345668  0.06558240  0.50312908  1.0
  C  C214  1  0.88805860  0.03303494  0.50106625  1.0
  C  C215  1  0.88740089  0.97110607  0.49960369  1.0
  C  C216  1  0.11019500  0.16175968  0.50795093  1.0
  C  C217  1  0.15644528  0.19197554  0.50740591  1.0
  C  C218  1  0.20654474  0.23149825  0.50554910  1.0
  C  C219  1  0.26689012  0.21051259  0.50785708  1.0
  C  C220  1  0.31471684  0.25114500  0.50532930  1.0
  C  C221  1  0.30355652  0.31341713  0.50060962  1.0
  C  C222  1  0.24367351  0.33453208  0.49846813  1.0
  C  C223  1  0.19578977  0.29435528  0.50077910  1.0
  C  C224  1  0.89079511  0.16418181  0.50361262  1.0
  C  C225  1  0.84460356  0.19458741  0.50275521  1.0
  C  C226  1  0.69586434  0.31460912  0.50343431  1.0
  C  C227  1  0.68640110  0.25313094  0.49114484  1.0
  C  C228  1  0.73487366  0.21307486  0.49048687  1.0
  C  C229  1  0.79403333  0.23370329  0.50298007  1.0
  C  C230  1  0.80299051  0.29562004  0.51600959  1.0
  C  C231  1  0.75456313  0.33537316  0.51583540  1.0
  O  O232  1  0.54543951  0.54794716  0.45273392  1.0
  O  O233  1  0.56275389  0.56438883  0.56323895  1.0
  O  O234  1  0.49635971  0.40963965  0.33769449  1.0
  O  O235  1  0.50097817  0.59302743  0.33889361  1.0
  O  O236  1  0.49581924  0.33971387  0.41297481  1.0
  O  O237  1  0.49896682  0.66287336  0.41419883  1.0
  O  O238  1  0.49707758  0.59264301  0.66086297  1.0
  O  O239  1  0.50303481  0.40891153  0.66083645  1.0
  O  O240  1  0.49655608  0.66250416  0.58544603  1.0
  O  O241  1  0.50289711  0.33912307  0.58543046  1.0
  O  O242  1  0.43442319  0.56407231  0.43646121  1.0
  O  O243  1  0.66085492  0.49759070  0.59133702  1.0
  O  O244  1  0.66013581  0.50403048  0.40836371  1.0
  O  O245  1  0.58535691  0.49818408  0.66096235  1.0
  O  O246  1  0.58477082  0.50499588  0.33844720  1.0
  O  O247  1  0.33675225  0.49727347  0.40894392  1.0
  O  O248  1  0.33850655  0.50227895  0.59259242  1.0
  O  O249  1  0.41209592  0.49762027  0.33907382  1.0
  O  O250  1  0.41407241  0.50316501  0.66230806  1.0
  O  O251  1  0.56259081  0.43745525  0.43559192  1.0
  O  O252  1  0.40593067  0.66126116  0.50311249  1.0
  O  O253  1  0.58970226  0.66205913  0.49596716  1.0
  O  O254  1  0.33660666  0.58545675  0.50337850  1.0
  O  O255  1  0.66008251  0.58709613  0.49706089  1.0
  O  O256  1  0.59085138  0.33922704  0.50021942  1.0
  O  O257  1  0.40831848  0.33878183  0.49859341  1.0
  O  O258  1  0.66048116  0.41475239  0.50230502  1.0
  O  O259  1  0.33802170  0.41383129  0.49845273  1.0
  O  O260  1  0.43601797  0.43677168  0.56386041  1.0
  O  O261  1  0.45198169  0.45369867  0.45304296  1.0
  O  O262  1  0.45195531  0.54750098  0.54700922  1.0
  O  O263  1  0.54623683  0.45376999  0.54634173  1.0
