# generated using pymatgen
data_VH4C8O5
_symmetry_space_group_name_H-M   'P 1'
_cell_length_a   6.79845287
_cell_length_b   11.19410797
_cell_length_c   11.19472406
_cell_angle_alpha   74.34943794
_cell_angle_beta   72.70190592
_cell_angle_gamma   72.70626527
_symmetry_Int_Tables_number   1
_chemical_formula_structural   VH4C8O5
_chemical_formula_sum   'V2 H8 C16 O10'
_cell_volume   761.11522261
_cell_formula_units_Z   2
loop_
 _symmetry_equiv_pos_site_id
 _symmetry_equiv_pos_as_xyz
  1  'x, y, z'
loop_
 _atom_site_type_symbol
 _atom_site_label
 _atom_site_symmetry_multiplicity
 _atom_site_fract_x
 _atom_site_fract_y
 _atom_site_fract_z
 _atom_site_occupancy
  V  V0  1  0.53072255  0.51225083  0.98910091  1.0
  V  V1  1  0.03073320  0.48917198  0.01220230  1.0
  H  H2  1  0.33528878  0.87446996  0.05852255  1.0
  H  H3  1  0.15417039  0.44527254  0.62685235  1.0
  H  H4  1  0.27791687  0.44029246  0.39288044  1.0
  H  H5  1  0.20978474  0.10740983  0.06582908  1.0
  H  H6  1  0.65416158  0.12685872  0.94525764  1.0
  H  H7  1  0.83528757  0.55855740  0.37437591  1.0
  H  H8  1  0.70980157  0.56585944  0.60732676  1.0
  H  H9  1  0.77792459  0.89288029  0.94031915  1.0
  C  C10  1  0.18687986  0.93068438  0.03359833  1.0
  C  C11  1  0.30220652  0.47065585  0.57044202  1.0
  C  C12  1  0.37097710  0.46754603  0.44097574  1.0
  C  C13  1  0.11745022  0.05965608  0.03761035  1.0
  C  C14  1  0.80221935  0.07044458  0.97064287  1.0
  C  C15  1  0.68686600  0.53362180  0.43062423  1.0
  C  C16  1  0.61748704  0.53763116  0.55956882  1.0
  C  C17  1  0.87099915  0.94096964  0.96755662  1.0
  C  C18  1  0.06419400  0.87064295  0.99844989  1.0
  C  C19  1  0.14083707  0.73273049  0.99436896  1.0
  C  C20  1  0.42523649  0.50554573  0.63040707  1.0
  C  C21  1  0.35605402  0.50729016  0.76888204  1.0
  C  C22  1  0.56414089  0.49845932  0.37057017  1.0
  C  C23  1  0.64082676  0.49440953  0.23264349  1.0
  C  C24  1  0.92524986  0.13049254  0.00550980  1.0
  C  C25  1  0.85602968  0.26895104  0.00722276  1.0
  O  O26  1  0.33454347  0.68134148  0.99743736  1.0
  O  O27  1  0.16978920  0.49233014  0.82849773  1.0
  O  O28  1  0.50853235  0.48893866  0.17448536  1.0
  O  O29  1  0.98956957  0.31974961  0.02294310  1.0
  O  O30  1  0.66984604  0.32853620  0.99223061  1.0
  O  O31  1  0.83453884  0.49748904  0.18128462  1.0
  O  O32  1  0.48956046  0.52300550  0.81968795  1.0
  O  O33  1  0.00856445  0.67452170  0.98892306  1.0
  O  O34  1  0.75562371  0.55738053  0.94515362  1.0
  O  O35  1  0.25564164  0.44523242  0.05728960  1.0
