# generated using pymatgen
data_Al6H68C85N2O33
_symmetry_space_group_name_H-M   'P 1'
_cell_length_a   12.70730237
_cell_length_b   12.85881595
_cell_length_c   28.44074800
_cell_angle_alpha   90.58024785
_cell_angle_beta   90.42908955
_cell_angle_gamma   119.45557778
_symmetry_Int_Tables_number   1
_chemical_formula_structural   Al6H68C85N2O33
_chemical_formula_sum   'Al6 H68 C85 N2 O33'
_cell_volume   4045.90477847
_cell_formula_units_Z   1
loop_
 _symmetry_equiv_pos_site_id
 _symmetry_equiv_pos_as_xyz
  1  'x, y, z'
loop_
 _atom_site_type_symbol
 _atom_site_label
 _atom_site_symmetry_multiplicity
 _atom_site_fract_x
 _atom_site_fract_y
 _atom_site_fract_z
 _atom_site_occupancy
  Al  Al0  1  0.17666024  0.58442126  0.49984015  1.0
  Al  Al1  1  0.92234838  0.33989391  0.49883681  1.0
  Al  Al2  1  0.91664195  0.57021821  0.50016603  1.0
  Al  Al3  1  0.15340606  0.07981783  0.00282139  1.0
  Al  Al4  1  0.40802927  0.08356902  0.00108258  1.0
  Al  Al5  1  0.41117197  0.31855307  0.99884693  1.0
  H  H6  1  0.73332806  0.18559629  0.77992770  1.0
  H  H7  1  0.54908799  0.12233185  0.71005999  1.0
  H  H8  1  0.87860687  0.40235181  0.73291988  1.0
  H  H9  1  0.77591718  0.51522274  0.78751519  1.0
  H  H10  1  0.59309675  0.45171671  0.71744793  1.0
  H  H11  1  0.44771316  0.23353000  0.76403129  1.0
  H  H12  1  0.97112979  0.69257987  0.80834960  1.0
  H  H13  1  0.94094831  0.66852070  0.72643667  1.0
  H  H14  1  0.02729048  0.87910213  0.71381547  1.0
  H  H15  1  0.06077038  0.91856167  0.79480564  1.0
  H  H16  1  0.21833801  0.00649142  0.78510647  1.0
  H  H17  1  0.25227466  0.71703299  0.71654026  1.0
  H  H18  1  0.32598014  0.87133428  0.70542289  1.0
  H  H19  1  0.29427552  0.76381984  0.79692377  1.0
  H  H20  1  0.03014851  0.59837371  0.72504426  1.0
  H  H21  1  0.06666976  0.62929782  0.80622878  1.0
  H  H22  1  0.35189806  0.91733259  0.78583003  1.0
  H  H23  1  0.29605297  0.52083027  0.79181805  1.0
  H  H24  1  0.26059698  0.53026462  0.71130995  1.0
  H  H25  1  0.24019509  0.23278406  0.69538417  1.0
  H  H26  1  0.33940195  0.38771475  0.70042377  1.0
  H  H27  1  0.36074633  0.36398125  0.78090547  1.0
  H  H28  1  0.24938008  0.21170909  0.77712312  1.0
  H  H29  1  0.95783894  0.25239668  0.71679572  1.0
  H  H30  1  0.01354243  0.15193615  0.70959351  1.0
  H  H31  1  0.98505083  0.25621450  0.79863103  1.0
  H  H32  1  0.10546953  0.47587314  0.72135225  1.0
  H  H33  1  0.14316256  0.47700643  0.80234187  1.0
  H  H34  1  0.03027131  0.14756616  0.79187044  1.0
  H  H35  1  0.69738663  0.51241137  0.20704751  1.0
  H  H36  1  0.72350016  0.52294558  0.28889886  1.0
  H  H37  1  0.49189088  0.19548028  0.29500389  1.0
  H  H38  1  0.50991237  0.34075131  0.29972878  1.0
  H  H39  1  0.49535661  0.34941029  0.21762208  1.0
  H  H40  1  0.46307970  0.19854901  0.21439069  1.0
  H  H41  1  0.81816349  0.29174414  0.28009880  1.0
  H  H42  1  0.67431951  0.16643812  0.28942257  1.0
  H  H43  1  0.77846223  0.26000212  0.19946800  1.0
  H  H44  1  0.84804873  0.49802705  0.28215747  1.0
  H  H45  1  0.62650303  0.15059849  0.20902674  1.0
  H  H46  1  0.25174627  0.72821728  0.20466439  1.0
  H  H47  1  0.23055752  0.69995147  0.28679427  1.0
  H  H48  1  0.26198758  0.99797027  0.31107717  1.0
  H  H49  1  0.33826836  0.91490527  0.30697090  1.0
  H  H50  1  0.28334311  0.03850559  0.23197959  1.0
  H  H51  1  0.95583975  0.73742739  0.27879512  1.0
  H  H52  1  0.03192081  0.89045973  0.29428321  1.0
  H  H53  1  0.99518510  0.78867036  0.19913206  1.0
  H  H54  1  0.07292286  0.62108424  0.27692140  1.0
  H  H55  1  0.09534541  0.66623265  0.19729260  1.0
  H  H56  1  0.07599663  0.94118938  0.21513943  1.0
  H  H57  1  0.00314546  0.25249806  0.19585293  1.0
  H  H58  1  0.96984156  0.24878431  0.27684633  1.0
  H  H59  1  0.24740059  0.22746189  0.30200139  1.0
  H  H60  1  0.08941246  0.14357320  0.29280925  1.0
  H  H61  1  0.11621052  0.14246274  0.21135465  1.0
  H  H62  1  0.27406597  0.22021802  0.22078196  1.0
  H  H63  1  0.26813918  0.52739256  0.29214076  1.0
  H  H64  1  0.35278595  0.45517125  0.30335258  1.0
  H  H65  1  0.30611829  0.52648345  0.21159188  1.0
  H  H66  1  0.04182386  0.40646236  0.27773761  1.0
  H  H67  1  0.07861009  0.40996881  0.19747802  1.0
  H  H68  1  0.38650170  0.44981618  0.22250471  1.0
  H  H69  1  0.40231615  0.82775504  0.24019410  1.0
  H  H70  1  0.50777503  0.95428189  0.27441291  1.0
  H  H71  1  0.53510217  0.94056505  0.21354473  1.0
  H  H72  1  0.37558661  0.66609863  0.52804581  1.0
  H  H73  1  0.95281130  0.95479462  0.97837268  1.0
  C  C74  1  0.09568822  0.37506740  0.56562525  1.0
  C  C75  1  0.77765190  0.38503975  0.56387326  1.0
  C  C76  1  0.08607452  0.70004694  0.56977251  1.0
  C  C77  1  0.09581198  0.37763576  0.43244442  1.0
  C  C78  1  0.77623626  0.38120049  0.43378114  1.0
  C  C79  1  0.08565104  0.70714199  0.43473371  1.0
  C  C80  1  0.60041758  0.20931520  0.72763133  1.0
  C  C81  1  0.70210436  0.24459691  0.76573932  1.0
  C  C82  1  0.59517594  0.28398656  0.88693845  1.0
  C  C83  1  0.72830213  0.35822271  0.61022966  1.0
  C  C84  1  0.54380126  0.27206765  0.75684827  1.0
  C  C85  1  0.64511397  0.30728146  0.79660640  1.0
  C  C86  1  0.62420432  0.39270035  0.73172564  1.0
  C  C87  1  0.68124464  0.33016996  0.70079951  1.0
  C  C88  1  0.72592903  0.42812451  0.76981040  1.0
  C  C89  1  0.78264255  0.36515411  0.74052516  1.0
  C  C90  1  0.62060902  0.29500012  0.84530979  1.0
  C  C91  1  0.70480691  0.34414020  0.65201191  1.0
  C  C92  1  0.02912330  0.67923352  0.73699823  1.0
  C  C93  1  0.11675561  0.89558672  0.72521851  1.0
  C  C94  1  0.13878133  0.91864103  0.77845459  1.0
  C  C95  1  0.19876201  0.87876450  0.89258056  1.0
  C  C96  1  0.13010455  0.78592487  0.71009144  1.0
  C  C97  1  0.05040250  0.69814632  0.79077549  1.0
  C  C98  1  0.16120663  0.82221879  0.80138776  1.0
  C  C99  1  0.27460831  0.82788423  0.77913486  1.0
  C  C100  1  0.25375058  0.80082504  0.72583124  1.0
  C  C101  1  0.17966416  0.84813282  0.85145404  1.0
  C  C102  1  0.11205938  0.76356838  0.65981448  1.0
  C  C103  1  0.10082077  0.74268481  0.61780591  1.0
  C  C104  1  0.18072198  0.45867781  0.72826625  1.0
  C  C105  1  0.25635766  0.31380030  0.71462271  1.0
  C  C106  1  0.26858194  0.30227084  0.76815909  1.0
  C  C107  1  0.21165364  0.30902059  0.88646907  1.0
  C  C108  1  0.15048774  0.33788537  0.70449818  1.0
  C  C109  1  0.20269906  0.45525364  0.78166524  1.0
  C  C110  1  0.17892639  0.32936051  0.79520471  1.0
  C  C111  1  0.04846723  0.23588728  0.78001670  1.0
  C  C112  1  0.03337330  0.23739919  0.72609541  1.0
  C  C113  1  0.19650181  0.32176786  0.84516795  1.0
  C  C114  1  0.13449327  0.34401833  0.65435499  1.0
  C  C115  1  0.11955614  0.35103602  0.61252898  1.0
  C  C116  1  0.75210380  0.46254615  0.27333208  1.0
  C  C117  1  0.54340723  0.28686470  0.28182447  1.0
  C  C118  1  0.52798004  0.28792842  0.22782179  1.0
  C  C119  1  0.60818937  0.30280730  0.11013790  1.0
  C  C120  1  0.67850009  0.33662902  0.29470995  1.0
  C  C121  1  0.73470662  0.45678610  0.21954570  1.0
  C  C122  1  0.64976816  0.32557113  0.20271510  1.0
  C  C123  1  0.69694865  0.24121028  0.21886975  1.0
  C  C124  1  0.72140550  0.25372083  0.27242557  1.0
  C  C125  1  0.62957185  0.31673165  0.15215612  1.0
  C  C126  1  0.69934559  0.34594765  0.34531639  1.0
  C  C127  1  0.72381733  0.35668580  0.38715169  1.0
  C  C128  1  0.15500199  0.70673358  0.27094472  1.0
  C  C129  1  0.26512230  0.92575607  0.29128870  1.0
  C  C130  1  0.28949703  0.95758450  0.23882424  1.0
  C  C131  1  0.22481531  0.91362209  0.11745367  1.0
  C  C132  1  0.14470484  0.80773249  0.29722849  1.0
  C  C133  1  0.17326159  0.73286130  0.21781618  1.0
  C  C134  1  0.18720736  0.85696394  0.20787878  1.0
  C  C135  1  0.06787116  0.85374659  0.22224228  1.0
  C  C136  1  0.04112356  0.82138664  0.27463853  1.0
  C  C137  1  0.20984381  0.88649566  0.15862214  1.0
  C  C138  1  0.12355110  0.77979897  0.34671301  1.0
  C  C139  1  0.10713338  0.75503937  0.38810784  1.0
  C  C140  1  0.05283244  0.33004308  0.26712780  1.0
  C  C141  1  0.17153901  0.22426099  0.28193637  1.0
  C  C142  1  0.19049123  0.22219187  0.22834797  1.0
  C  C143  1  0.22932080  0.32321205  0.11349452  1.0
  C  C144  1  0.15992074  0.33498371  0.29550383  1.0
  C  C145  1  0.07568168  0.33171728  0.21380927  1.0
  C  C146  1  0.19693979  0.33413885  0.20536629  1.0
  C  C147  1  0.30041227  0.44793486  0.22894252  1.0
  C  C148  1  0.27745569  0.44959902  0.28216927  1.0
  C  C149  1  0.21603811  0.33074101  0.15540073  1.0
  C  C150  1  0.13755766  0.33766619  0.34522945  1.0
  C  C151  1  0.11862935  0.34646218  0.38648190  1.0
  C  C152  1  0.22848895  0.93754668  0.93801924  1.0
  C  C153  1  0.54519969  0.26370919  0.93323273  1.0
  C  C154  1  0.23404551  0.27881732  0.93261460  1.0
  C  C155  1  0.24222267  0.96156902  0.07093188  1.0
  C  C156  1  0.55784739  0.27422602  0.06325683  1.0
  C  C157  1  0.24793733  0.29564114  0.06632868  1.0
  C  C158  1  0.46498455  0.92433727  0.23931573  1.0
  N  N159  1  0.85428202  0.50609146  0.19461597  1.0
  N  N160  1  0.20251053  0.00411040  0.69737826  1.0
  O  O161  1  0.16413912  0.67483980  0.55496309  1.0
  O  O162  1  0.17358727  0.47113057  0.54730564  1.0
  O  O163  1  0.99318597  0.29834573  0.54699756  1.0
  O  O164  1  0.80018012  0.30899260  0.54365719  1.0
  O  O165  1  0.80116184  0.48618667  0.54705225  1.0
  O  O166  1  0.99197773  0.68685034  0.54708494  1.0
  O  O167  1  0.16568873  0.68897245  0.45305051  1.0
  O  O168  1  0.16871270  0.48163058  0.44739351  1.0
  O  O169  1  0.00065366  0.29901215  0.45362595  1.0
  O  O170  1  0.80515053  0.30660077  0.45054013  1.0
  O  O171  1  0.79598758  0.47869382  0.45380689  1.0
  O  O172  1  0.98336293  0.68229084  0.45314494  1.0
  O  O173  1  0.00307325  0.49727129  0.49990796  1.0
  O  O174  1  0.16109733  0.17583184  0.94704248  1.0
  O  O175  1  0.15285125  0.96212394  0.95607174  1.0
  O  O176  1  0.33356891  0.96524481  0.95501994  1.0
  O  O177  1  0.52344337  0.16686085  0.95341069  1.0
  O  O178  1  0.52105589  0.34240925  0.94990859  1.0
  O  O179  1  0.32998556  0.35840596  0.95448741  1.0
  O  O180  1  0.16608666  0.20005664  0.04779616  1.0
  O  O181  1  0.16734798  0.99212526  0.05653150  1.0
  O  O182  1  0.33509119  0.97296781  0.04829960  1.0
  O  O183  1  0.53034513  0.17080217  0.04686129  1.0
  O  O184  1  0.53809049  0.35093153  0.04275773  1.0
  O  O185  1  0.34987989  0.36876866  0.04761798  1.0
  O  O186  1  0.32649841  0.16143867  0.00063816  1.0
  O  O187  1  0.92633293  0.47369226  0.20858064  1.0
  O  O188  1  0.87157637  0.57322689  0.16131979  1.0
  O  O189  1  0.40928769  0.99128196  0.22391764  1.0
  O  O190  1  0.15889235  0.03096895  0.66381610  1.0
  O  O191  1  0.31079873  0.05779816  0.70945414  1.0
  O  O192  1  0.33449616  0.66782949  0.49957682  1.0
  O  O193  1  0.99559648  0.00718459  0.00469204  1.0
