# generated using pymatgen
data_ZnH14C34(NO8)2
_symmetry_space_group_name_H-M   'P 1'
_cell_length_a   14.73675369
_cell_length_b   16.12091239
_cell_length_c   28.08767094
_cell_angle_alpha   90.50659533
_cell_angle_beta   90.03918896
_cell_angle_gamma   90.56097762
_symmetry_Int_Tables_number   1
_chemical_formula_structural   ZnH14C34(NO8)2
_chemical_formula_sum   'Zn2 H28 C68 N4 O32'
_cell_volume   6672.20297679
_cell_formula_units_Z   2
loop_
 _symmetry_equiv_pos_site_id
 _symmetry_equiv_pos_as_xyz
  1  'x, y, z'
loop_
 _atom_site_type_symbol
 _atom_site_label
 _atom_site_symmetry_multiplicity
 _atom_site_fract_x
 _atom_site_fract_y
 _atom_site_fract_z
 _atom_site_occupancy
  Zn  Zn0  1  0.59416146  0.50005289  0.49994284  1.0
  Zn  Zn1  1  0.40345674  0.49749387  0.49977198  1.0
  H  H2  1  0.35558360  0.04700695  0.46776251  1.0
  H  H3  1  0.47686078  0.29071332  0.12198973  1.0
  H  H4  1  0.60831799  0.68433872  0.96534522  1.0
  H  H5  1  0.46109662  0.29016889  0.03421959  1.0
  H  H6  1  0.37707516  0.94816901  0.55082506  1.0
  H  H7  1  0.62280661  0.04996261  0.44934587  1.0
  H  H8  1  0.31048859  0.58219288  0.32644520  1.0
  H  H9  1  0.30381958  0.56398960  0.67285745  1.0
  H  H10  1  0.53266113  0.14457129  0.63818898  1.0
  H  H11  1  0.47130015  0.85429005  0.36143904  1.0
  H  H12  1  0.01844260  0.56820864  0.60827103  1.0
  H  H13  1  0.64429147  0.95126629  0.53234546  1.0
  H  H14  1  0.97505342  0.42599673  0.39267574  1.0
  H  H15  1  0.97667338  0.36520719  0.58459624  1.0
  H  H16  1  0.01946664  0.63565353  0.41653806  1.0
  H  H17  1  0.24117453  0.60975002  0.24595318  1.0
  H  H18  1  0.22694262  0.57530099  0.75278530  1.0
  H  H19  1  0.72785172  0.38846814  0.79176296  1.0
  H  H20  1  0.74989305  0.44391525  0.20696642  1.0
  H  H21  1  0.55045098  0.76399529  0.05389101  1.0
  H  H22  1  0.36163857  0.25851246  0.94566060  1.0
  H  H23  1  0.93746490  0.63950616  0.51641999  1.0
  H  H24  1  0.06021521  0.36031100  0.48382811  1.0
  H  H25  1  0.54168058  0.70300966  0.12262424  1.0
  H  H26  1  0.39541674  0.31199764  0.87694082  1.0
  H  H27  1  0.63687098  0.45513347  0.64885994  1.0
  H  H28  1  0.63613703  0.45810772  0.35073915  1.0
  H  H29  1  0.62141756  0.67496564  0.87763333  1.0
  C  C30  1  0.50060111  0.66039152  0.50099117  1.0
  C  C31  1  0.55058154  0.55895642  0.87281339  1.0
  C  C32  1  0.50040298  0.50206209  0.35337160  1.0
  C  C33  1  0.50170610  0.50047892  0.64634956  1.0
  C  C34  1  0.53955897  0.56680650  0.97369395  1.0
  C  C35  1  0.48513699  0.42130142  0.02589263  1.0
  C  C36  1  0.47345013  0.42332676  0.97430570  1.0
  C  C37  1  0.52885927  0.57162825  0.02527853  1.0
  C  C38  1  0.50725132  0.49398885  0.94899716  1.0
  C  C39  1  0.50829362  0.49692980  0.05059659  1.0
  C  C40  1  0.58104580  0.63012022  0.94708262  1.0
  C  C41  1  0.49107819  0.33741289  0.49887362  1.0
  C  C42  1  0.47560947  0.34826667  0.05250798  1.0
  C  C43  1  0.58824444  0.62563549  0.89762785  1.0
  C  C44  1  0.48382238  0.34805417  0.10199103  1.0
  C  C45  1  0.50066899  0.49993634  0.40710468  1.0
  C  C46  1  0.50304574  0.50038149  0.59258878  1.0
  C  C47  1  0.53792887  0.64567889  0.05235826  1.0
  C  C48  1  0.43104121  0.35953852  0.94717498  1.0
  C  C49  1  0.51132296  0.02900149  0.54532371  1.0
  C  C50  1  0.48836907  0.96917866  0.45480600  1.0
  C  C51  1  0.43129548  0.97112036  0.52780055  1.0
  C  C52  1  0.50993532  0.49661513  0.10151965  1.0
  C  C53  1  0.56851803  0.02706171  0.47235199  1.0
  C  C54  1  0.50032737  0.75005099  0.50199876  1.0
  C  C55  1  0.49469933  0.24787040  0.49794019  1.0
  C  C56  1  0.58025320  0.97280553  0.51750277  1.0
  C  C57  1  0.41952582  0.02527448  0.48262239  1.0
  C  C58  1  0.50050005  0.91321045  0.50074913  1.0
  C  C59  1  0.49919144  0.08487236  0.49938812  1.0
  C  C60  1  0.50052479  0.82553767  0.50160649  1.0
  C  C61  1  0.49773253  0.17248389  0.49848058  1.0
  C  C62  1  0.96577236  0.57824424  0.50926411  1.0
  C  C63  1  0.50906622  0.49328651  0.89807019  1.0
  C  C64  1  0.03171935  0.42149331  0.49098547  1.0
  C  C65  1  0.02835430  0.52757098  0.54357650  1.0
  C  C66  1  0.96898288  0.47207600  0.45668130  1.0
  C  C67  1  0.02850744  0.55383591  0.46617177  1.0
  C  C68  1  0.96892256  0.44590819  0.53407674  1.0
  C  C69  1  0.52269556  0.57502386  0.17925105  1.0
  C  C70  1  0.46634652  0.42448776  0.82021481  1.0
  C  C71  1  0.09118067  0.50209402  0.50037418  1.0
  C  C72  1  0.90633257  0.49773458  0.49993407  1.0
  C  C73  1  0.18690794  0.50349433  0.50056246  1.0
  C  C74  1  0.52304022  0.57213684  0.12675094  1.0
  C  C75  1  0.81064060  0.49571267  0.49962150  1.0
  C  C76  1  0.50077767  0.42098546  0.17926878  1.0
  C  C77  1  0.55442262  0.55775544  0.82042168  1.0
  C  C78  1  0.58579460  0.47655120  0.27980385  1.0
  C  C79  1  0.58288938  0.46627133  0.71970984  1.0
  C  C80  1  0.57803551  0.47717636  0.32965826  1.0
  C  C81  1  0.57813570  0.47306460  0.66993375  1.0
  C  C82  1  0.42545133  0.52975562  0.32628969  1.0
  C  C83  1  0.42526115  0.52521635  0.67347260  1.0
  C  C84  1  0.42954840  0.52607455  0.27544981  1.0
  C  C85  1  0.46866728  0.42624045  0.87275951  1.0
  C  C86  1  0.42910155  0.52204880  0.72433782  1.0
  C  C87  1  0.51009851  0.49962036  0.25306407  1.0
  C  C88  1  0.50813347  0.49201918  0.74653098  1.0
  C  C89  1  0.52412924  0.05274189  0.59611442  1.0
  C  C90  1  0.47563134  0.94569144  0.40398187  1.0
  C  C91  1  0.35067609  0.54771909  0.24544631  1.0
  C  C92  1  0.35329538  0.55154334  0.75445508  1.0
  C  C93  1  0.66919315  0.43293060  0.73869759  1.0
  C  C94  1  0.67566202  0.45137926  0.26085875  1.0
  C  C95  1  0.53427400  0.64533373  0.10217602  1.0
  C  C96  1  0.42836904  0.36189598  0.89734561  1.0
  C  C97  1  0.49825572  0.42179081  0.12683088  1.0
  N  N98  1  0.51310817  0.49862769  0.20199070  1.0
  N  N99  1  0.51109267  0.49002335  0.79760051  1.0
  N  N100  1  0.26560586  0.50309719  0.50060304  1.0
  N  N101  1  0.73192984  0.49512441  0.49934800  1.0
  O  O102  1  0.57826060  0.62640340  0.49978666  1.0
  O  O103  1  0.42750480  0.36950136  0.79689448  1.0
  O  O104  1  0.59220300  0.61180375  0.79669619  1.0
  O  O105  1  0.49243086  0.35770544  0.20307183  1.0
  O  O106  1  0.35304715  0.55873640  0.34974104  1.0
  O  O107  1  0.35330769  0.55403911  0.64995075  1.0
  O  O108  1  0.53382755  0.00203174  0.62779537  1.0
  O  O109  1  0.52394166  0.13609489  0.60385309  1.0
  O  O110  1  0.46262267  0.99635559  0.37262468  1.0
  O  O111  1  0.48013998  0.86256293  0.39578078  1.0
  O  O112  1  0.06632178  0.55288783  0.58596065  1.0
  O  O113  1  0.41258506  0.36948374  0.49836822  1.0
  O  O114  1  0.92946717  0.44680954  0.41480196  1.0
  O  O115  1  0.92995878  0.39514877  0.56733853  1.0
  O  O116  1  0.06689737  0.60501346  0.43282699  1.0
  O  O117  1  0.33290931  0.52362008  0.20523793  1.0
  O  O118  1  0.29158784  0.60205166  0.26819633  1.0
  O  O119  1  0.35535293  0.57387961  0.79601132  1.0
  O  O120  1  0.27091247  0.55261782  0.73011859  1.0
  O  O121  1  0.73801351  0.42462873  0.71475765  1.0
  O  O122  1  0.66689757  0.40942153  0.78534225  1.0
  O  O123  1  0.73640308  0.42351322  0.28562769  1.0
  O  O124  1  0.42338040  0.62433948  0.50120040  1.0
  O  O125  1  0.68815390  0.46327604  0.21315205  1.0
  O  O126  1  0.54983577  0.72009777  0.02981192  1.0
  O  O127  1  0.39056155  0.29379607  0.96971293  1.0
  O  O128  1  0.56741262  0.37531299  0.50034216  1.0
  O  O129  1  0.57849048  0.50140502  0.42674603  1.0
  O  O130  1  0.42747920  0.49344053  0.57125591  1.0
  O  O131  1  0.42455043  0.49540816  0.42798829  1.0
  O  O132  1  0.58104075  0.50504774  0.57336072  1.0
  O  O133  1  0.52981568  0.64014530  0.20244405  1.0
