# generated using pymatgen
data_CuH10C14O5
_symmetry_space_group_name_H-M   'P 1'
_cell_length_a   14.35716836
_cell_length_b   18.68824187
_cell_length_c   18.69046677
_cell_angle_alpha   113.64079978
_cell_angle_beta   104.82280273
_cell_angle_gamma   104.89351139
_symmetry_Int_Tables_number   1
_chemical_formula_structural   CuH10C14O5
_chemical_formula_sum   'Cu6 H60 C84 O30'
_cell_volume   4058.46900958
_cell_formula_units_Z   6
loop_
 _symmetry_equiv_pos_site_id
 _symmetry_equiv_pos_as_xyz
  1  'x, y, z'
loop_
 _atom_site_type_symbol
 _atom_site_label
 _atom_site_symmetry_multiplicity
 _atom_site_fract_x
 _atom_site_fract_y
 _atom_site_fract_z
 _atom_site_occupancy
  Cu  Cu0  1  0.47363723  0.02631633  0.45015430  1.0
  Cu  Cu1  1  0.02358513  0.55015498  0.57663300  1.0
  Cu  Cu2  1  0.44677503  0.42333020  0.97353016  1.0
  Cu  Cu3  1  0.52633965  0.97366842  0.54979525  1.0
  Cu  Cu4  1  0.97641108  0.44982784  0.42334145  1.0
  Cu  Cu5  1  0.55318759  0.57663981  0.02647169  1.0
  H  H6  1  0.13750688  0.39092470  0.84504631  1.0
  H  H7  1  0.29205807  0.15486487  0.54555277  1.0
  H  H8  1  0.74693193  0.45412004  0.60926901  1.0
  H  H9  1  0.86247526  0.60906003  0.15494758  1.0
  H  H10  1  0.70795131  0.84513265  0.45444031  1.0
  H  H11  1  0.25305374  0.54589024  0.39075619  1.0
  H  H12  1  0.97874991  0.52768640  0.76078151  1.0
  H  H13  1  0.21794673  0.23946417  0.76672967  1.0
  H  H14  1  0.45086720  0.23335698  0.47263849  1.0
  H  H15  1  0.02125074  0.47231240  0.23921093  1.0
  H  H16  1  0.78208192  0.76053144  0.23327493  1.0
  H  H17  1  0.54913464  0.76662841  0.52734342  1.0
  H  H18  1  0.14513769  0.65692006  0.84219284  1.0
  H  H19  1  0.30284800  0.15814193  0.81462862  1.0
  H  H20  1  0.48778816  0.18545376  0.34341903  1.0
  H  H21  1  0.85487047  0.34306915  0.15780790  1.0
  H  H22  1  0.69715500  0.84183131  0.18535451  1.0
  H  H23  1  0.51225308  0.81454697  0.65658152  1.0
  H  H24  1  0.31021348  0.65329959  0.92472042  1.0
  H  H25  1  0.38493641  0.07526209  0.72819897  1.0
  H  H26  1  0.65663938  0.27161443  0.34697320  1.0
  H  H27  1  0.68978660  0.34668067  0.07527621  1.0
  H  H28  1  0.61506423  0.92471370  0.27177939  1.0
  H  H29  1  0.34341428  0.72840803  0.65305829  1.0
  H  H30  1  0.97218228  0.33085538  0.84132767  1.0
  H  H31  1  0.13124339  0.15896199  0.48948898  1.0
  H  H32  1  0.64144962  0.51051939  0.66919831  1.0
  H  H33  1  0.02777540  0.66909229  0.15861713  1.0
  H  H34  1  0.86877307  0.84107260  0.51053003  1.0
  H  H35  1  0.35848391  0.48946595  0.33080033  1.0
  H  H36  1  0.80982718  0.19602505  0.75270424  1.0
  H  H37  1  0.05793658  0.24764270  0.44330656  1.0
  H  H38  1  0.61383117  0.55668503  0.80378143  1.0
  H  H39  1  0.19011974  0.80393158  0.24722229  1.0
  H  H40  1  0.94208034  0.75241552  0.55675470  1.0
  H  H41  1  0.38612361  0.44328945  0.19622176  1.0
  H  H42  1  0.73666818  0.25896072  0.55376035  1.0
  H  H43  1  0.18284292  0.44632742  0.70510489  1.0
  H  H44  1  0.47756053  0.29485811  0.74125919  1.0
  H  H45  1  0.26333784  0.74105343  0.44620936  1.0
  H  H46  1  0.81722676  0.55372251  0.29496003  1.0
  H  H47  1  0.52242490  0.70511574  0.25874701  1.0
  H  H48  1  0.90050629  0.39316487  0.64082853  1.0
  H  H49  1  0.25917492  0.35915869  0.75215458  1.0
  H  H50  1  0.50722505  0.24780710  0.60723614  1.0
  H  H51  1  0.09949991  0.60684799  0.35916156  1.0
  H  H52  1  0.74087678  0.64086568  0.24786981  1.0
  H  H53  1  0.49274577  0.75216931  0.39276023  1.0
  H  H54  1  0.34599109  0.97993327  0.30088454  1.0
  H  H55  1  0.04479082  0.69936445  0.67908262  1.0
  H  H56  1  0.36549054  0.32049469  0.02035602  1.0
  H  H57  1  0.65400608  0.02005596  0.69907661  1.0
  H  H58  1  0.95523440  0.30069313  0.32097357  1.0
  H  H59  1  0.63450242  0.67949004  0.97964157  1.0
  H  H60  1  0.45865251  0.00888869  0.30509542  1.0
  H  H61  1  0.15337526  0.69564558  0.70443049  1.0
  H  H62  1  0.44905300  0.29572043  0.99133899  1.0
  H  H63  1  0.54134612  0.99108903  0.69486620  1.0
  H  H64  1  0.84665822  0.30441840  0.29563416  1.0
  H  H65  1  0.55093568  0.70425728  0.00864531  1.0
  C  C66  1  0.33151460  0.51566088  0.93282842  1.0
  C  C67  1  0.39798441  0.06709683  0.58254972  1.0
  C  C68  1  0.81598040  0.41712610  0.48450859  1.0
  C  C69  1  0.66847121  0.48433534  0.06718526  1.0
  C  C70  1  0.60199640  0.93288408  0.41741509  1.0
  C  C71  1  0.18403488  0.58290017  0.51552717  1.0
  C  C72  1  0.23295730  0.52171128  0.88992147  1.0
  C  C73  1  0.34242868  0.10997752  0.63142117  1.0
  C  C74  1  0.71126230  0.36829664  0.47851522  1.0
  C  C75  1  0.76703094  0.47827984  0.11007992  1.0
  C  C76  1  0.65756380  0.89000786  0.36855947  1.0
  C  C77  1  0.28875024  0.63172132  0.52151185  1.0
  C  C78  1  0.13770488  0.44942954  0.84556364  1.0
  C  C79  1  0.29167426  0.15436799  0.60353949  1.0
  C  C80  1  0.68842755  0.39621061  0.55080666  1.0
  C  C81  1  0.86228344  0.55055455  0.15443386  1.0
  C  C82  1  0.70834079  0.84563656  0.39645645  1.0
  C  C83  1  0.31155978  0.60379584  0.44921250  1.0
  C  C84  1  0.04529784  0.45025755  0.79830718  1.0
  C  C85  1  0.24677318  0.20176035  0.65170679  1.0
  C  C86  1  0.59511120  0.34817658  0.54999694  1.0
  C  C87  1  0.95469110  0.54972782  0.20168722  1.0
  C  C88  1  0.75326775  0.79825700  0.34830146  1.0
  C  C89  1  0.40487465  0.65181837  0.45000714  1.0
  C  C90  1  0.04970875  0.52599903  0.79770267  1.0
  C  C91  1  0.25188203  0.20247071  0.72810162  1.0
  C  C92  1  0.52361361  0.27188378  0.47429913  1.0
  C  C93  1  0.95028379  0.47398634  0.20229028  1.0
  C  C94  1  0.74813532  0.79752106  0.27189711  1.0
  C  C95  1  0.47639368  0.72810672  0.52568858  1.0
  C  C96  1  0.14391566  0.59903108  0.84375259  1.0
  C  C97  1  0.29986433  0.15636322  0.75504016  1.0
  C  C98  1  0.54459303  0.24491802  0.40125091  1.0
  C  C99  1  0.85608265  0.40096004  0.15624594  1.0
  C  C100  1  0.70014737  0.84362025  0.24494503  1.0
  C  C101  1  0.45543673  0.75508270  0.59875650  1.0
  C  C102  1  0.23577264  0.59721088  0.88965112  1.0
  C  C103  1  0.34555537  0.11030574  0.70718416  1.0
  C  C104  1  0.63834980  0.29263783  0.40304285  1.0
  C  C105  1  0.76421559  0.40277449  0.11034581  1.0
  C  C106  1  0.65445432  0.88968092  0.29280247  1.0
  C  C107  1  0.36168417  0.70737694  0.59698121  1.0
  C  C108  1  0.94742233  0.37149893  0.74729347  1.0
  C  C109  1  0.20011854  0.25287587  0.62407097  1.0
  C  C110  1  0.57594118  0.37586293  0.62869526  1.0
  C  C111  1  0.05256285  0.62848773  0.25268627  1.0
  C  C112  1  0.79992665  0.74715425  0.37595074  1.0
  C  C113  1  0.42402011  0.62411604  0.37130137  1.0
  C  C114  1  0.92124326  0.31482582  0.77787574  1.0
  C  C115  1  0.14372328  0.22238903  0.53688715  1.0
  C  C116  1  0.60647038  0.46306690  0.68522207  1.0
  C  C117  1  0.07871746  0.68513080  0.22207432  1.0
  C  C118  1  0.85631554  0.77765132  0.46314600  1.0
  C  C119  1  0.39348331  0.53690695  0.31477049  1.0
  C  C120  1  0.83032685  0.23967660  0.72884122  1.0
  C  C121  1  0.10207598  0.27146424  0.51077605  1.0
  C  C122  1  0.59061809  0.48917916  0.76028396  1.0
  C  C123  1  0.16963947  0.76028706  0.27109564  1.0
  C  C124  1  0.89796635  0.72859016  0.48927682  1.0
  C  C125  1  0.40933201  0.51079468  0.23971112  1.0
  C  C126  1  0.76327640  0.21965641  0.64802249  1.0
  C  C127  1  0.11571471  0.35223667  0.57154106  1.0
  C  C128  1  0.54354848  0.42845314  0.78045269  1.0
  C  C129  1  0.23670025  0.78033666  0.35191698  1.0
  C  C130  1  0.88435092  0.64782540  0.42851995  1.0
  C  C131  1  0.45642102  0.57152774  0.21955540  1.0
  C  C132  1  0.78879974  0.27563913  0.61695707  1.0
  C  C133  1  0.17190423  0.38320549  0.65856191  1.0
  C  C134  1  0.51308103  0.34141948  0.72460354  1.0
  C  C135  1  0.21119885  0.72436735  0.38301132  1.0
  C  C136  1  0.82816617  0.61684317  0.34148819  1.0
  C  C137  1  0.48689349  0.65855565  0.27539732  1.0
  C  C138  1  0.87987190  0.35072319  0.66605541  1.0
  C  C139  1  0.21368974  0.33405819  0.68451878  1.0
  C  C140  1  0.52912157  0.31544918  0.64959086  1.0
  C  C141  1  0.12013174  0.64929032  0.33393497  1.0
  C  C142  1  0.78636926  0.66597065  0.31551151  1.0
  C  C143  1  0.47084312  0.68452211  0.35040868  1.0
  C  C144  1  0.66573614  0.13965608  0.59493829  1.0
  C  C145  1  0.07124444  0.40534656  0.54451886  1.0
  C  C146  1  0.52621689  0.45547914  0.86064218  1.0
  C  C147  1  0.33423287  0.86033762  0.40499354  1.0
  C  C148  1  0.92880648  0.59470911  0.45554208  1.0
  C  C149  1  0.47375927  0.54450494  0.13937008  1.0
  O  O150  1  0.40846017  0.03116215  0.32167272  1.0
  O  O151  1  0.08637041  0.67875514  0.70978673  1.0
  O  O152  1  0.37655310  0.29002120  0.96909601  1.0
  O  O153  1  0.59153988  0.96882133  0.67828561  1.0
  O  O154  1  0.91366754  0.32132354  0.29028470  1.0
  O  O155  1  0.62344270  0.70997504  0.03090034  1.0
  O  O156  1  0.32260668  0.44278195  0.92515428  1.0
  O  O157  1  0.39717962  0.07481022  0.51740688  1.0
  O  O158  1  0.88006338  0.48226914  0.55734655  1.0
  O  O159  1  0.67736142  0.55721043  0.07486673  1.0
  O  O160  1  0.60280399  0.92517772  0.48256184  1.0
  O  O161  1  0.11992638  0.51775521  0.44267226  1.0
  O  O162  1  0.41757645  0.58272637  0.97251398  1.0
  O  O163  1  0.44416334  0.02715311  0.60967017  1.0
  O  O164  1  0.83488071  0.38971115  0.41744717  1.0
  O  O165  1  0.58242145  0.41726091  0.02749790  1.0
  O  O166  1  0.55581760  0.97282524  0.39028936  1.0
  O  O167  1  0.16514246  0.61030937  0.58258085  1.0
  O  O168  1  0.65183650  0.08484130  0.62027572  1.0
  O  O169  1  0.03204379  0.37970423  0.46441459  1.0
  O  O170  1  0.56728094  0.53561146  0.91511386  1.0
  O  O171  1  0.34812079  0.91514921  0.37964828  1.0
  O  O172  1  0.96801217  0.62034570  0.53564126  1.0
  O  O173  1  0.43269081  0.46436366  0.08490732  1.0
  O  O174  1  0.60201125  0.13099867  0.52710594  1.0
  O  O175  1  0.07556329  0.47312155  0.60375495  1.0
  O  O176  1  0.47135822  0.39616436  0.86925419  1.0
  O  O177  1  0.39796686  0.86900462  0.47282670  1.0
  O  O178  1  0.92446897  0.52691559  0.39629062  1.0
  O  O179  1  0.52860765  0.60381077  0.13074446  1.0
