# generated using pymatgen
data_Zn2H4C47N2(O3F5)4
_symmetry_space_group_name_H-M   'P 1'
_cell_length_a   16.70285363
_cell_length_b   17.89847862
_cell_length_c   33.06498863
_cell_angle_alpha   90.27143014
_cell_angle_beta   89.92923813
_cell_angle_gamma   89.94839618
_symmetry_Int_Tables_number   1
_chemical_formula_structural   Zn2H4C47N2(O3F5)4
_chemical_formula_sum   'Zn4 H8 C94 N4 O24 F40'
_cell_volume   9884.84326120
_cell_formula_units_Z   2
loop_
 _symmetry_equiv_pos_site_id
 _symmetry_equiv_pos_as_xyz
  1  'x, y, z'
loop_
 _atom_site_type_symbol
 _atom_site_label
 _atom_site_symmetry_multiplicity
 _atom_site_fract_x
 _atom_site_fract_y
 _atom_site_fract_z
 _atom_site_occupancy
  Zn  Zn0  1  0.58213290  0.50018739  0.50198369  1.0
  Zn  Zn1  1  0.41477130  0.49778918  0.50162120  1.0
  Zn  Zn2  1  0.41797571  0.50287122  0.96085332  1.0
  Zn  Zn3  1  0.58537520  0.50087066  0.96117182  1.0
  H  H4  1  0.37322721  0.50332175  0.62802801  1.0
  H  H5  1  0.62890735  0.49543755  0.62842128  1.0
  H  H6  1  0.62700233  0.50444729  0.83470510  1.0
  H  H7  1  0.37130924  0.49688086  0.83431828  1.0
  H  H8  1  0.27901331  0.60359875  0.78016446  1.0
  H  H9  1  0.27129158  0.39675256  0.69080373  1.0
  H  H10  1  0.72883038  0.39677807  0.77162074  1.0
  H  H11  1  0.72058680  0.60262592  0.68239698  1.0
  C  C12  1  0.49398698  0.64244643  0.50096443  1.0
  C  C13  1  0.50119030  0.49752614  0.57945935  1.0
  C  C14  1  0.49779179  0.35540318  0.50093511  1.0
  C  C15  1  0.50239083  0.50192276  0.42442124  1.0
  C  C16  1  0.50553780  0.64527930  0.96163572  1.0
  C  C17  1  0.49899462  0.49955977  0.88328182  1.0
  C  C18  1  0.50270730  0.35832692  0.96120913  1.0
  C  C19  1  0.49769105  0.50523049  0.03842037  1.0
  C  C20  1  0.24687701  0.54726265  0.52518731  1.0
  C  C21  1  0.16362712  0.55013305  0.52646456  1.0
  C  C22  1  0.11887644  0.50062482  0.50220003  1.0
  C  C23  1  0.16232354  0.45053485  0.47758860  1.0
  C  C24  1  0.24560522  0.45169929  0.47848961  1.0
  C  C25  1  0.03477748  0.50111288  0.50256663  1.0
  C  C26  1  0.96197894  0.50120342  0.50294522  1.0
  C  C27  1  0.87787490  0.50094986  0.50300793  1.0
  C  C28  1  0.83331364  0.54308411  0.53122444  1.0
  C  C29  1  0.75009464  0.54087903  0.52987210  1.0
  C  C30  1  0.75093282  0.46000112  0.47570380  1.0
  C  C31  1  0.83420169  0.45839977  0.47473015  1.0
  C  C32  1  0.49584190  0.72637154  0.49854228  1.0
  C  C33  1  0.56813864  0.76514252  0.49250227  1.0
  C  C34  1  0.57081886  0.84274159  0.49137731  1.0
  C  C35  1  0.50121784  0.88628287  0.49612685  1.0
  C  C36  1  0.42868090  0.84757855  0.50155601  1.0
  C  C37  1  0.42616126  0.76993538  0.50277086  1.0
  C  C38  1  0.50383012  0.96475087  0.49598237  1.0
  C  C39  1  0.50506602  0.03276118  0.49671178  1.0
  C  C40  1  0.50404716  0.11125039  0.49767512  1.0
  C  C41  1  0.57395737  0.15364482  0.50382517  1.0
  C  C42  1  0.57187674  0.23133308  0.50500410  1.0
  C  C43  1  0.49999793  0.27131277  0.49997078  1.0
  C  C44  1  0.43020751  0.22881493  0.49377168  1.0
  C  C45  1  0.43210858  0.15117089  0.49268767  1.0
  C  C46  1  0.42834576  0.50139662  0.64559490  1.0
  C  C47  1  0.42657711  0.50125213  0.68796787  1.0
  C  C48  1  0.35238176  0.50094644  0.71027499  1.0
  C  C49  1  0.57351541  0.49799572  0.64583453  1.0
  C  C50  1  0.57455690  0.50014058  0.68823185  1.0
  C  C51  1  0.64827496  0.50015820  0.71091648  1.0
  C  C52  1  0.57187286  0.50240668  0.81714760  1.0
  C  C53  1  0.57362790  0.50167120  0.77476984  1.0
  C  C54  1  0.64780441  0.50090807  0.75245598  1.0
  C  C55  1  0.42669758  0.49917735  0.81690864  1.0
  C  C56  1  0.42565760  0.50081440  0.77450907  1.0
  C  C57  1  0.35196119  0.50066995  0.75180869  1.0
  C  C58  1  0.50107528  0.49902001  0.62481580  1.0
  C  C59  1  0.50033646  0.50102841  0.70988704  1.0
  C  C60  1  0.49914777  0.50037003  0.83793018  1.0
  C  C61  1  0.49987443  0.50133118  0.75285810  1.0
  C  C62  1  0.49768452  0.50608250  0.08393126  1.0
  C  C63  1  0.42688243  0.49651092  0.10640488  1.0
  C  C64  1  0.42728901  0.49579556  0.14846333  1.0
  C  C65  1  0.49862482  0.50475853  0.17054430  1.0
  C  C66  1  0.56943917  0.51473743  0.14810128  1.0
  C  C67  1  0.56891704  0.51545672  0.10605534  1.0
  C  C68  1  0.49926777  0.50402054  0.21302983  1.0
  C  C69  1  0.50010489  0.50358145  0.24984554  1.0
  C  C70  1  0.50086467  0.50345413  0.29233422  1.0
  C  C71  1  0.43005368  0.51263079  0.31494711  1.0
  C  C72  1  0.43075062  0.51259758  0.35699240  1.0
  C  C73  1  0.50215720  0.50326876  0.37893058  1.0
  C  C74  1  0.57293552  0.49445246  0.35629529  1.0
  C  C75  1  0.57238407  0.49446497  0.31423893  1.0
  C  C76  1  0.75314781  0.54985371  0.93714528  1.0
  C  C77  1  0.83640421  0.55223333  0.93557043  1.0
  C  C78  1  0.88128821  0.50271854  0.95954521  1.0
  C  C79  1  0.83798499  0.45303591  0.98416301  1.0
  C  C80  1  0.75471499  0.45472729  0.98360656  1.0
  C  C81  1  0.96537613  0.50296728  0.95896564  1.0
  C  C82  1  0.03817029  0.50308569  0.95857605  1.0
  C  C83  1  0.12228269  0.50291980  0.95871830  1.0
  C  C84  1  0.16705696  0.54498591  0.93081306  1.0
  C  C85  1  0.25025952  0.54313163  0.93253115  1.0
  C  C86  1  0.24901486  0.46249406  0.98640315  1.0
  C  C87  1  0.16574917  0.46069598  0.98704637  1.0
  C  C88  1  0.50381842  0.72930297  0.96311178  1.0
  C  C89  1  0.43158711  0.76860223  0.96871197  1.0
  C  C90  1  0.42890710  0.84623606  0.96866374  1.0
  C  C91  1  0.49849399  0.88927789  0.96315191  1.0
  C  C92  1  0.57097970  0.85007455  0.95813783  1.0
  C  C93  1  0.57349803  0.77238928  0.95811411  1.0
  C  C94  1  0.49600373  0.96773269  0.96262367  1.0
  C  C95  1  0.49472428  0.03574570  0.96205942  1.0
  C  C96  1  0.49603407  0.11422815  0.96163942  1.0
  C  C97  1  0.42625527  0.15697777  0.95583470  1.0
  C  C98  1  0.42845799  0.23466576  0.95557261  1.0
  C  C99  1  0.50038052  0.27424822  0.96122184  1.0
  C  C100  1  0.57007438  0.23141704  0.96702373  1.0
  C  C101  1  0.56805292  0.15376192  0.96717292  1.0
  C  C102  1  0.27384985  0.49661093  0.77454325  1.0
  C  C103  1  0.27524332  0.50386507  0.68662260  1.0
  C  C104  1  0.72487911  0.50390848  0.77615507  1.0
  C  C105  1  0.72631629  0.49576609  0.68809911  1.0
  N  N106  1  0.28670230  0.49899470  0.50179227  1.0
  N  N107  1  0.71006086  0.50045524  0.50267091  1.0
  N  N108  1  0.71346026  0.50204330  0.96059172  1.0
  N  N109  1  0.29007394  0.50296402  0.95975380  1.0
  O  O110  1  0.55735714  0.61116743  0.51359350  1.0
  O  O111  1  0.42964073  0.61010410  0.49034167  1.0
  O  O112  1  0.43550107  0.51353919  0.56208043  1.0
  O  O113  1  0.56695789  0.48049424  0.56222334  1.0
  O  O114  1  0.43249647  0.38559742  0.51200309  1.0
  O  O115  1  0.56147960  0.38880880  0.49041081  1.0
  O  O116  1  0.56605335  0.52350348  0.44190443  1.0
  O  O117  1  0.43887155  0.47900020  0.44139146  1.0
  O  O118  1  0.44203042  0.61359173  0.94941205  1.0
  O  O119  1  0.56993932  0.61332123  0.97242375  1.0
  O  O120  1  0.56458157  0.51598726  0.90070361  1.0
  O  O121  1  0.43329593  0.48262921  0.90048893  1.0
  O  O122  1  0.56802248  0.38855930  0.95044904  1.0
  O  O123  1  0.43906503  0.39170274  0.97209987  1.0
  O  O124  1  0.43394891  0.52661537  0.02102215  1.0
  O  O125  1  0.56150276  0.48280118  0.02136481  1.0
  O  O126  1  0.24510768  0.56249091  0.78932513  1.0
  O  O127  1  0.23806207  0.43856521  0.78025595  1.0
  O  O128  1  0.24188439  0.43667827  0.67721790  1.0
  O  O129  1  0.24485618  0.56175952  0.67535865  1.0
  O  O130  1  0.75819134  0.43672431  0.78537720  1.0
  O  O131  1  0.75520272  0.56182460  0.78763829  1.0
  O  O132  1  0.75465587  0.56142816  0.67321740  1.0
  O  O133  1  0.76232196  0.43769294  0.68237405  1.0
  F  F134  1  0.28917283  0.59387716  0.54808140  1.0
  F  F135  1  0.28675447  0.40428013  0.45543714  1.0
  F  F136  1  0.12394192  0.40193130  0.45356787  1.0
  F  F137  1  0.12660817  0.59962531  0.55049568  1.0
  F  F138  1  0.87050245  0.58495121  0.55908183  1.0
  F  F139  1  0.87235147  0.41682402  0.44696894  1.0
  F  F140  1  0.70974910  0.41999122  0.44898913  1.0
  F  F141  1  0.70788977  0.58053078  0.55657328  1.0
  F  F142  1  0.63787326  0.72853638  0.48674223  1.0
  F  F143  1  0.35420868  0.73811175  0.50930331  1.0
  F  F144  1  0.36027738  0.88674886  0.50621884  1.0
  F  F145  1  0.64168218  0.87714206  0.48558140  1.0
  F  F146  1  0.64436638  0.11808428  0.50909104  1.0
  F  F147  1  0.36349428  0.11321416  0.48650520  1.0
  F  F148  1  0.35863544  0.26168984  0.48767124  1.0
  F  F149  1  0.64169943  0.26676664  0.51212100  1.0
  F  F150  1  0.35579469  0.48573859  0.08805296  1.0
  F  F151  1  0.63954168  0.52726576  0.08735762  1.0
  F  F152  1  0.63927217  0.52433140  0.16785695  1.0
  F  F153  1  0.35784974  0.48578306  0.16853970  1.0
  F  F154  1  0.36003907  0.52215162  0.29536863  1.0
  F  F155  1  0.64183028  0.48518223  0.29399660  1.0
  F  F156  1  0.64419247  0.48381704  0.37446853  1.0
  F  F157  1  0.36008727  0.52360760  0.37587593  1.0
  F  F158  1  0.71077449  0.59651974  0.91451189  1.0
  F  F159  1  0.71369319  0.40775578  0.00671628  1.0
  F  F160  1  0.87648481  0.40438573  0.00790549  1.0
  F  F161  1  0.87333901  0.60133089  0.91156306  1.0
  F  F162  1  0.13008985  0.58654512  0.90294029  1.0
  F  F163  1  0.12740234  0.41928477  0.01457481  1.0
  F  F164  1  0.29000560  0.42275437  0.01314675  1.0
  F  F165  1  0.29263370  0.58286361  0.90617435  1.0
  F  F166  1  0.36190716  0.73251420  0.97512282  1.0
  F  F167  1  0.64542886  0.74002223  0.95204243  1.0
  F  F168  1  0.63938397  0.88876707  0.95285088  1.0
  F  F169  1  0.35810676  0.88112741  0.97412703  1.0
  F  F170  1  0.35581729  0.12172850  0.95012663  1.0
  F  F171  1  0.63649299  0.11538557  0.97312467  1.0
  F  F172  1  0.64163943  0.26397774  0.97363506  1.0
  F  F173  1  0.35876546  0.27051624  0.94873170  1.0
