# generated using pymatgen
data_Zn2H12C41N5(O7F3)2
_symmetry_space_group_name_H-M   'P 1'
_cell_length_a   13.24631082
_cell_length_b   13.87751292
_cell_length_c   28.53187581
_cell_angle_alpha   89.83951160
_cell_angle_beta   89.77879022
_cell_angle_gamma   89.84068292
_symmetry_Int_Tables_number   1
_chemical_formula_structural   Zn2H12C41N5(O7F3)2
_chemical_formula_sum   'Zn4 H24 C82 N10 O28 F12'
_cell_volume   5244.81652531
_cell_formula_units_Z   2
loop_
 _symmetry_equiv_pos_site_id
 _symmetry_equiv_pos_as_xyz
  1  'x, y, z'
loop_
 _atom_site_type_symbol
 _atom_site_label
 _atom_site_symmetry_multiplicity
 _atom_site_fract_x
 _atom_site_fract_y
 _atom_site_fract_z
 _atom_site_occupancy
  Zn  Zn0  1  0.50947237  0.40291498  0.49661143  1.0
  Zn  Zn1  1  0.48760071  0.60550491  0.50150631  1.0
  Zn  Zn2  1  0.50962919  0.59771730  0.03726838  1.0
  Zn  Zn3  1  0.48898571  0.39525573  0.03243882  1.0
  H  H4  1  0.39949032  0.25814617  0.54729956  1.0
  H  H5  1  0.62209874  0.24457819  0.44487910  1.0
  H  H6  1  0.59975911  0.74977190  0.45055982  1.0
  H  H7  1  0.37663959  0.76364586  0.55268766  1.0
  H  H8  1  0.50690016  0.62455865  0.18961498  1.0
  H  H9  1  0.49754510  0.31703066  0.17719275  1.0
  H  H10  1  0.50712024  0.37482747  0.34425508  1.0
  H  H11  1  0.49763889  0.68238637  0.35669103  1.0
  H  H12  1  0.49876021  0.65378774  0.64752438  1.0
  H  H13  1  0.49991079  0.34421940  0.64809971  1.0
  H  H14  1  0.49731478  0.34570385  0.88638088  1.0
  H  H15  1  0.50403533  0.65519766  0.88579425  1.0
  H  H16  1  0.83432035  0.37354215  0.49984305  1.0
  H  H17  1  0.80257082  0.68088178  0.49878307  1.0
  H  H18  1  0.16334700  0.62606215  0.50178473  1.0
  H  H19  1  0.19550397  0.31886629  0.49792836  1.0
  H  H20  1  0.39979119  0.74328673  0.98685703  1.0
  H  H21  1  0.62232064  0.75527656  0.08854178  1.0
  H  H22  1  0.60090923  0.25023796  0.08297831  1.0
  H  H23  1  0.37879187  0.23801432  0.98116257  1.0
  H  H24  1  0.83440315  0.62812438  0.03445510  1.0
  H  H25  1  0.80444369  0.32079555  0.03562461  1.0
  H  H26  1  0.16503338  0.37569028  0.03311910  1.0
  H  H27  1  0.19515981  0.68291495  0.03683373  1.0
  C  C28  1  0.49809984  0.50036875  0.59064596  1.0
  C  C29  1  0.30209346  0.48637856  0.49927791  1.0
  C  C30  1  0.50013815  0.51739213  0.40760835  1.0
  C  C31  1  0.69582744  0.51442457  0.49801121  1.0
  C  C32  1  0.49935794  0.49921264  0.94324947  1.0
  C  C33  1  0.30286547  0.51543134  0.03516683  1.0
  C  C34  1  0.50020812  0.48200714  0.12627621  1.0
  C  C35  1  0.69670101  0.48726001  0.03576362  1.0
  C  C36  1  0.44600284  0.21125017  0.52556326  1.0
  C  C37  1  0.43836018  0.11075102  0.52789985  1.0
  C  C38  1  0.37024164  0.06155216  0.55863073  1.0
  C  C39  1  0.57172811  0.20380952  0.46771495  1.0
  C  C40  1  0.57013072  0.10272849  0.46737616  1.0
  C  C41  1  0.63340001  0.04519651  0.43781128  1.0
  C  C42  1  0.55313146  0.79681677  0.47218304  1.0
  C  C43  1  0.56059290  0.89734406  0.46964907  1.0
  C  C44  1  0.62873490  0.94651842  0.43891572  1.0
  C  C45  1  0.42714605  0.80443085  0.52991360  1.0
  C  C46  1  0.42871646  0.90544818  0.53013296  1.0
  C  C47  1  0.36559749  0.96293957  0.55975367  1.0
  C  C48  1  0.50178056  0.05489432  0.49815406  1.0
  C  C49  1  0.49695878  0.95324226  0.49929077  1.0
  C  C50  1  0.50569833  0.55437041  0.20653210  1.0
  C  C51  1  0.50130061  0.38061866  0.19929268  1.0
  C  C52  1  0.50543391  0.37130170  0.24721138  1.0
  C  C53  1  0.50784532  0.45258717  0.27785303  1.0
  C  C54  1  0.50586629  0.44501125  0.32733140  1.0
  C  C55  1  0.50144860  0.61878517  0.33457470  1.0
  C  C56  1  0.50554188  0.62807581  0.28664160  1.0
  C  C57  1  0.50782998  0.54676909  0.25599873  1.0
  C  C58  1  0.50242122  0.47309068  0.17874422  1.0
  C  C59  1  0.50259957  0.52631909  0.35513039  1.0
  C  C60  1  0.49914005  0.58677073  0.66736402  1.0
  C  C61  1  0.50017225  0.58810074  0.71641517  1.0
  C  C62  1  0.50128181  0.67579134  0.74261274  1.0
  C  C63  1  0.49950559  0.41149853  0.66759989  1.0
  C  C64  1  0.49939576  0.41076617  0.71673330  1.0
  C  C65  1  0.49865158  0.32337018  0.74339555  1.0
  C  C66  1  0.49864487  0.41271615  0.86654174  1.0
  C  C67  1  0.49913691  0.41137644  0.81748547  1.0
  C  C68  1  0.49835423  0.32368940  0.79127786  1.0
  C  C69  1  0.50218921  0.58795799  0.86628502  1.0
  C  C70  1  0.50163695  0.58869481  0.81715382  1.0
  C  C71  1  0.50217354  0.67608437  0.79049124  1.0
  C  C72  1  0.49896016  0.49908891  0.64326283  1.0
  C  C73  1  0.49995148  0.49954591  0.74207926  1.0
  C  C74  1  0.50019042  0.50040635  0.89063213  1.0
  C  C75  1  0.50024174  0.49991884  0.79181459  1.0
  C  C76  1  0.86978017  0.44400365  0.49986362  1.0
  C  C77  1  0.85131782  0.61770619  0.49943104  1.0
  C  C78  1  0.95441367  0.62779807  0.50130787  1.0
  C  C79  1  0.02161398  0.54700668  0.50193933  1.0
  C  C80  1  0.12797566  0.55558846  0.50114225  1.0
  C  C81  1  0.14679438  0.38203110  0.49926654  1.0
  C  C82  1  0.04358975  0.37173582  0.50064040  1.0
  C  C83  1  0.97616531  0.45239668  0.50144640  1.0
  C  C84  1  0.80864312  0.52484280  0.49889544  1.0
  C  C85  1  0.18935264  0.47496071  0.49982824  1.0
  C  C86  1  0.44653830  0.78985104  0.00837511  1.0
  C  C87  1  0.43947851  0.89041383  0.00590617  1.0
  C  C88  1  0.37177388  0.94011159  0.97527770  1.0
  C  C89  1  0.57210607  0.79641280  0.06585256  1.0
  C  C90  1  0.57094943  0.89751137  0.06609628  1.0
  C  C91  1  0.63424208  0.95457988  0.09548589  1.0
  C  C92  1  0.55460605  0.20352999  0.06133165  1.0
  C  C93  1  0.56200637  0.10294776  0.06377372  1.0
  C  C94  1  0.62981546  0.05328816  0.09437774  1.0
  C  C95  1  0.42909750  0.19684444  0.00380579  1.0
  C  C96  1  0.43059897  0.09581584  0.00352007  1.0
  C  C97  1  0.36750373  0.03875317  0.97407258  1.0
  C  C98  1  0.50299895  0.94584320  0.03542413  1.0
  C  C99  1  0.49852063  0.04753288  0.03423185  1.0
  C  C100  1  0.87027461  0.55766719  0.03452158  1.0
  C  C101  1  0.85282406  0.38396620  0.03499851  1.0
  C  C102  1  0.95605347  0.37386824  0.03355014  1.0
  C  C103  1  0.02279194  0.45466433  0.03293643  1.0
  C  C104  1  0.12919427  0.44614138  0.03373707  1.0
  C  C105  1  0.14688404  0.61971885  0.03552251  1.0
  C  C106  1  0.04363891  0.62995801  0.03418939  1.0
  C  C107  1  0.97674494  0.54926618  0.03327906  1.0
  C  C108  1  0.80958601  0.47681639  0.03523780  1.0
  C  C109  1  0.19004684  0.52680663  0.03490452  1.0
  N  N110  1  0.51098956  0.25480846  0.49616417  1.0
  N  N111  1  0.48801371  0.75341933  0.50154723  1.0
  N  N112  1  0.51120796  0.74583560  0.03764782  1.0
  N  N113  1  0.48973679  0.24737230  0.03211966  1.0
  N  N114  1  0.50730040  0.72804905  0.26848729  1.0
  N  N115  1  0.50708542  0.27132698  0.26536111  1.0
  N  N116  1  0.00601758  0.27142822  0.50131267  1.0
  N  N117  1  0.99204461  0.72798922  0.50294561  1.0
  N  N118  1  0.00540229  0.73025394  0.03355745  1.0
  N  N119  1  0.99430154  0.27365365  0.03241312  1.0
  O  O120  1  0.50558436  0.42032381  0.56924372  1.0
  O  O121  1  0.48991735  0.58312014  0.57143552  1.0
  O  O122  1  0.33624802  0.57183258  0.50001761  1.0
  O  O123  1  0.35373005  0.40895325  0.49814758  1.0
  O  O124  1  0.49296517  0.59632879  0.42999266  1.0
  O  O125  1  0.50534013  0.43334945  0.42521138  1.0
  O  O126  1  0.66096602  0.42915505  0.49591242  1.0
  O  O127  1  0.64481470  0.59199048  0.49967732  1.0
  O  O128  1  0.50776366  0.57910412  0.96463831  1.0
  O  O129  1  0.49009737  0.41659414  0.96247919  1.0
  O  O130  1  0.33758476  0.42999941  0.03493415  1.0
  O  O131  1  0.35402804  0.59291165  0.03552783  1.0
  O  O132  1  0.49473927  0.40296807  0.10391690  1.0
  O  O133  1  0.50401696  0.56607241  0.10863634  1.0
  O  O134  1  0.66138086  0.57250131  0.03833624  1.0
  O  O135  1  0.64610266  0.40980828  0.03343994  1.0
  O  O136  1  0.55781750  0.74501807  0.23265113  1.0
  O  O137  1  0.45958968  0.78941552  0.29102867  1.0
  O  O138  1  0.55775884  0.25405036  0.30096474  1.0
  O  O139  1  0.45912945  0.21027400  0.24306537  1.0
  O  O140  1  0.92787091  0.25371387  0.52389822  1.0
  O  O141  1  0.05670070  0.21046628  0.47990321  1.0
  O  O142  1  0.06835713  0.74490543  0.52666740  1.0
  O  O143  1  0.94308965  0.78964661  0.48114521  1.0
  O  O144  1  0.92800000  0.74807195  0.01064533  1.0
  O  O145  1  0.05483940  0.79107358  0.05532147  1.0
  O  O146  1  0.07164003  0.25635492  0.00913247  1.0
  O  O147  1  0.94485316  0.21233150  0.05419547  1.0
  F  F148  1  0.30117005  0.91829010  0.58917476  1.0
  F  F149  1  0.31010701  0.11428030  0.58690312  1.0
  F  F150  1  0.68893077  0.89375020  0.41076416  1.0
  F  F151  1  0.69831762  0.08974477  0.40865084  1.0
  F  F152  1  0.50327432  0.76102966  0.81385865  1.0
  F  F153  1  0.50151630  0.76047358  0.71877803  1.0
  F  F154  1  0.49734211  0.23902315  0.81512550  1.0
  F  F155  1  0.49794191  0.23840676  0.72003552  1.0
  F  F156  1  0.30332575  0.08382275  0.94478971  1.0
  F  F157  1  0.31148962  0.88778472  0.94725362  1.0
  F  F158  1  0.68988219  0.10565611  0.12241199  1.0
  F  F159  1  0.69881869  0.90951688  0.12451746  1.0
