# generated using pymatgen
data_ZnH17C24NClO4
_symmetry_space_group_name_H-M   'P 1'
_cell_length_a   16.55842721
_cell_length_b   17.94709071
_cell_length_c   17.95102733
_cell_angle_alpha   90.52774565
_cell_angle_beta   95.26251679
_cell_angle_gamma   92.30533655
_symmetry_Int_Tables_number   1
_chemical_formula_structural   ZnH17C24NClO4
_chemical_formula_sum   'Zn2 H34 C48 N2 Cl2 O8'
_cell_volume   5307.37591875
_cell_formula_units_Z   2
loop_
 _symmetry_equiv_pos_site_id
 _symmetry_equiv_pos_as_xyz
  1  'x, y, z'
loop_
 _atom_site_type_symbol
 _atom_site_label
 _atom_site_symmetry_multiplicity
 _atom_site_fract_x
 _atom_site_fract_y
 _atom_site_fract_z
 _atom_site_occupancy
  Zn  Zn0  1  0.58508529  0.50309860  0.50326652  1.0
  Zn  Zn1  1  0.41490272  0.49691899  0.49670888  1.0
  H  H2  1  0.28855981  0.57392031  0.57345046  1.0
  H  H3  1  0.14347016  0.57348359  0.57260745  1.0
  H  H4  1  0.13237739  0.39985747  0.40125758  1.0
  H  H5  1  0.27846673  0.40919130  0.41042293  1.0
  H  H6  1  0.86761254  0.60013292  0.59875125  1.0
  H  H7  1  0.85652372  0.42642571  0.42748815  1.0
  H  H8  1  0.71142945  0.42603896  0.42658766  1.0
  H  H9  1  0.72152022  0.59081521  0.58957126  1.0
  H  H10  1  0.38424431  0.49588412  0.73506764  1.0
  H  H11  1  0.38903419  0.49559995  0.86835991  1.0
  H  H12  1  0.65182763  0.50541530  0.87963953  1.0
  H  H13  1  0.64343728  0.50551778  0.74585771  1.0
  H  H14  1  0.34815692  0.49453369  0.12033575  1.0
  H  H15  1  0.61095160  0.50448067  0.13162401  1.0
  H  H16  1  0.61573645  0.50414852  0.26491336  1.0
  H  H17  1  0.35654789  0.49446077  0.25411891  1.0
  H  H18  1  0.62989126  0.26560014  0.50513772  1.0
  H  H19  1  0.62851055  0.12562397  0.50522311  1.0
  H  H20  1  0.36990661  0.25820074  0.49563789  1.0
  H  H21  1  0.63010199  0.74179962  0.50449513  1.0
  H  H22  1  0.37013146  0.73446044  0.49514278  1.0
  H  H23  1  0.37154662  0.87443306  0.49512990  1.0
  H  H24  1  0.95318366  0.37817940  0.44917026  1.0
  H  H25  1  0.03346450  0.39292803  0.39383684  1.0
  H  H26  1  0.94892915  0.44762863  0.37865425  1.0
  H  H27  1  0.05092399  0.55245521  0.62138204  1.0
  H  H28  1  0.96650949  0.60727952  0.60594125  1.0
  H  H29  1  0.04693500  0.62177247  0.55073666  1.0
  H  H30  1  0.63136733  0.55451001  0.04559567  1.0
  H  H31  1  0.66278127  0.50580121  0.96943151  1.0
  H  H32  1  0.63117185  0.45528709  0.04495175  1.0
  H  H33  1  0.36869865  0.54463030  0.95514912  1.0
  H  H34  1  0.33720385  0.49382660  0.03054256  1.0
  H  H35  1  0.36872694  0.44541039  0.95426111  1.0
  C  C36  1  0.50884088  0.50155266  0.64646787  1.0
  C  C37  1  0.49969106  0.64651570  0.50073065  1.0
  C  C38  1  0.49114086  0.49843091  0.35351071  1.0
  C  C39  1  0.50029853  0.35350944  0.49932571  1.0
  C  C40  1  0.25082333  0.53596820  0.53583429  1.0
  C  C41  1  0.16675699  0.53482674  0.53452173  1.0
  C  C42  1  0.11610536  0.48598733  0.48621878  1.0
  C  C43  1  0.16111496  0.44047797  0.44131127  1.0
  C  C44  1  0.24524255  0.44468295  0.44554309  1.0
  C  C45  1  0.02504944  0.47927629  0.47948393  1.0
  C  C46  1  0.97493647  0.52074908  0.52048577  1.0
  C  C47  1  0.83887233  0.55952187  0.55868904  1.0
  C  C48  1  0.88388492  0.51401141  0.51378400  1.0
  C  C49  1  0.83323108  0.46513310  0.46552020  1.0
  C  C50  1  0.74916540  0.46400775  0.46419107  1.0
  C  C51  1  0.75474541  0.55531855  0.55445338  1.0
  C  C52  1  0.51319484  0.50125558  0.73001949  1.0
  C  C53  1  0.44313029  0.49830167  0.76774560  1.0
  C  C54  1  0.44690103  0.49809834  0.84548016  1.0
  C  C55  1  0.52128735  0.50079987  0.89228534  1.0
  C  C56  1  0.59109025  0.50344023  0.85126040  1.0
  C  C57  1  0.58759594  0.50363865  0.77368166  1.0
  C  C58  1  0.53115541  0.50109804  0.97637349  1.0
  C  C59  1  0.46883190  0.49881528  0.02360294  1.0
  C  C60  1  0.40889412  0.49650431  0.14871595  1.0
  C  C61  1  0.47869974  0.49915193  0.10769239  1.0
  C  C62  1  0.55308342  0.50192092  0.15449829  1.0
  C  C63  1  0.55685362  0.50170477  0.23223384  1.0
  C  C64  1  0.48678938  0.49872911  0.26995819  1.0
  C  C65  1  0.41238854  0.49633767  0.22629488  1.0
  C  C66  1  0.50004904  0.26985013  0.49984933  1.0
  C  C67  1  0.57306943  0.23254625  0.50281466  1.0
  C  C68  1  0.57219537  0.15525595  0.50297747  1.0
  C  C69  1  0.49833089  0.11245088  0.50017378  1.0
  C  C70  1  0.42534060  0.15127383  0.49753655  1.0
  C  C71  1  0.42621266  0.22871933  0.49742682  1.0
  C  C72  1  0.49864357  0.03393819  0.50012149  1.0
  C  C73  1  0.50141729  0.96609226  0.50012361  1.0
  C  C74  1  0.50171838  0.88757784  0.50006699  1.0
  C  C75  1  0.57469930  0.84873417  0.50268438  1.0
  C  C76  1  0.57380863  0.77129354  0.50276472  1.0
  C  C77  1  0.49996505  0.73017939  0.50032721  1.0
  C  C78  1  0.42695687  0.76749865  0.49744265  1.0
  C  C79  1  0.42785093  0.84478808  0.49733445  1.0
  C  C80  1  0.98864929  0.42176951  0.42257865  1.0
  C  C81  1  0.01133530  0.57829751  0.57734327  1.0
  C  C82  1  0.61833429  0.50432954  0.01036934  1.0
  C  C83  1  0.38165048  0.49552298  0.98960485  1.0
  N  N84  1  0.29048969  0.49183014  0.49225744  1.0
  N  N85  1  0.70949405  0.50817191  0.50773979  1.0
  Cl  Cl86  1  0.33329077  0.10158217  0.49428646  1.0
  Cl  Cl87  1  0.66676475  0.89840794  0.50591061  1.0
  O  O88  1  0.57595292  0.50404735  0.61673872  1.0
  O  O89  1  0.43828070  0.49919797  0.61124069  1.0
  O  O90  1  0.43072086  0.61211106  0.49834738  1.0
  O  O91  1  0.56843039  0.61678486  0.50337126  1.0
  O  O92  1  0.42403661  0.49612306  0.38324380  1.0
  O  O93  1  0.56170254  0.50063227  0.38873826  1.0
  O  O94  1  0.56927745  0.38791837  0.50181334  1.0
  O  O95  1  0.43154511  0.38322503  0.49648772  1.0
