# generated using pymatgen
data_Hf3H41C69O16
_symmetry_space_group_name_H-M   'P 1'
_cell_length_a   19.94487825
_cell_length_b   19.96378035
_cell_length_c   20.09253524
_cell_angle_alpha   92.74571860
_cell_angle_beta   91.96267196
_cell_angle_gamma   92.87260861
_symmetry_Int_Tables_number   1
_chemical_formula_structural   Hf3H41C69O16
_chemical_formula_sum   'Hf6 H82 C138 O32'
_cell_volume   7975.73487812
_cell_formula_units_Z   2
loop_
 _symmetry_equiv_pos_site_id
 _symmetry_equiv_pos_as_xyz
  1  'x, y, z'
loop_
 _atom_site_type_symbol
 _atom_site_label
 _atom_site_symmetry_multiplicity
 _atom_site_fract_x
 _atom_site_fract_y
 _atom_site_fract_z
 _atom_site_occupancy
  Hf  Hf0  1  0.18712322  0.13277835  0.04108161  1.0
  Hf  Hf1  1  0.22563552  0.99638143  0.13538404  1.0
  Hf  Hf2  1  0.02212974  0.06734098  0.01593517  1.0
  Hf  Hf3  1  0.09130368  0.09407175  0.17827212  1.0
  Hf  Hf4  1  0.15573677  0.96891145  0.97369112  1.0
  Hf  Hf5  1  0.06013998  0.93066398  0.11073691  1.0
  H  H6  1  0.08481558  0.40988794  0.71363879  1.0
  H  H7  1  0.09168255  0.62535213  0.73256590  1.0
  H  H8  1  0.05707840  0.50869128  0.90424531  1.0
  H  H9  1  0.19115199  0.55937843  0.25009123  1.0
  H  H10  1  0.13953825  0.43755243  0.41417743  1.0
  H  H11  1  0.14423838  0.65260031  0.43868029  1.0
  H  H12  1  0.95636376  0.96609438  0.55920549  1.0
  H  H13  1  0.77698530  0.98394060  0.67022105  1.0
  H  H14  1  0.76519591  0.97737327  0.45569756  1.0
  H  H15  1  0.29647819  0.08910774  0.59645205  1.0
  H  H16  1  0.46386194  0.03484112  0.47891984  1.0
  H  H17  1  0.48472935  0.04890227  0.69264343  1.0
  H  H18  1  0.50080374  0.66816882  0.04319078  1.0
  H  H19  1  0.71649390  0.69324090  0.04865274  1.0
  H  H20  1  0.59608486  0.86017630  0.00639231  1.0
  H  H21  1  0.74609868  0.39846260  0.10889594  1.0
  H  H22  1  0.53068969  0.36942774  0.10227053  1.0
  H  H23  1  0.65417659  0.20320031  0.13849119  1.0
  H  H24  1  0.22933663  0.13343031  0.17618215  1.0
  H  H25  1  0.11879247  0.08981772  0.92004692  1.0
  H  H26  1  0.96720996  0.02958683  0.13688864  1.0
  H  H27  1  0.17864084  0.87352856  0.07047992  1.0
  H  H28  1  0.76320316  0.23144274  0.22929781  1.0
  H  H29  1  0.80066299  0.30286900  0.03452924  1.0
  H  H30  1  0.90621529  0.24109728  0.03191547  1.0
  H  H31  1  0.87298890  0.17609958  0.22956724  1.0
  H  H32  1  0.48019377  0.28971157  0.03462639  1.0
  H  H33  1  0.55187808  0.17088120  0.19310617  1.0
  H  H34  1  0.44519548  0.09971052  0.18276403  1.0
  H  H35  1  0.37277561  0.22114300  0.02778974  1.0
  H  H36  1  0.69856924  0.88780603  0.94960107  1.0
  H  H37  1  0.76793110  0.77490518  0.11357359  1.0
  H  H38  1  0.87598637  0.84232682  0.11845691  1.0
  H  H39  1  0.80581930  0.95821894  0.95801688  1.0
  H  H40  1  0.44879702  0.76491657  0.11431879  1.0
  H  H41  1  0.48753965  0.83533285  0.91944609  1.0
  H  H42  1  0.37964662  0.89413959  0.91973757  1.0
  H  H43  1  0.34556523  0.83027496  0.11760835  1.0
  H  H44  1  0.70141763  0.62040479  0.13112729  1.0
  H  H45  1  0.53149367  0.56337043  0.99884919  1.0
  H  H46  1  0.54405449  0.44466137  0.02274264  1.0
  H  H47  1  0.71395599  0.50167497  0.15512480  1.0
  H  H48  1  0.26950919  0.00869161  0.67738555  1.0
  H  H49  1  0.42876270  0.13907311  0.76885311  1.0
  H  H50  1  0.36688143  0.14423217  0.87483777  1.0
  H  H51  1  0.21078129  0.00999918  0.78452198  1.0
  H  H52  1  0.41803842  0.07960433  0.40324528  1.0
  H  H53  1  0.23713474  0.05873567  0.51406479  1.0
  H  H54  1  0.16897426  0.06229051  0.40928685  1.0
  H  H55  1  0.34932231  0.07311967  0.29847262  1.0
  H  H56  1  0.98537238  0.90780749  0.65274429  1.0
  H  H57  1  0.84802678  0.04777089  0.73342284  1.0
  H  H58  1  0.91489702  0.05618229  0.84024437  1.0
  H  H59  1  0.05368159  0.91913255  0.75951540  1.0
  H  H60  1  0.83524566  0.89394227  0.38386483  1.0
  H  H61  1  0.97205028  0.04781311  0.47570412  1.0
  H  H62  1  0.03166618  0.05529446  0.36899665  1.0
  H  H63  1  0.89847554  0.89841976  0.27869241  1.0
  H  H64  1  0.68912637  0.05848746  0.48390521  1.0
  H  H65  1  0.67287927  0.93235092  0.65122149  1.0
  H  H66  1  0.55434421  0.95981329  0.66155652  1.0
  H  H67  1  0.57063163  0.08574997  0.49421074  1.0
  H  H68  1  0.27124771  0.66972937  0.27416271  1.0
  H  H69  1  0.07206715  0.70311231  0.34034416  1.0
  H  H70  1  0.07072476  0.80772668  0.27738347  1.0
  H  H71  1  0.27233112  0.77835828  0.21726032  1.0
  H  H72  1  0.19017785  0.36426723  0.36649545  1.0
  H  H73  1  0.15401074  0.47435245  0.19022866  1.0
  H  H74  1  0.15488755  0.36861404  0.12082898  1.0
  H  H75  1  0.18061711  0.25839640  0.29772522  1.0
  H  H76  1  0.07921507  0.59211921  0.96081553  1.0
  H  H77  1  0.05490525  0.70275690  0.78277731  1.0
  H  H78  1  0.06291297  0.80853283  0.85185132  1.0
  H  H79  1  0.07725835  0.69780883  0.02946386  1.0
  H  H80  1  0.99456228  0.33508165  0.78480284  1.0
  H  H81  1  0.14899258  0.42908464  0.91794548  1.0
  H  H82  1  0.15335514  0.32384593  0.97977092  1.0
  H  H83  1  0.99554999  0.23166060  0.85031938  1.0
  H  H84  1  0.16703424  0.44211053  0.63770969  1.0
  H  H85  1  0.03674585  0.60739125  0.63026067  1.0
  H  H86  1  0.06064081  0.61921836  0.51172623  1.0
  H  H87  1  0.19089829  0.45392207  0.51915107  1.0
  C  C88  1  0.07179302  0.45310751  0.81271793  1.0
  C  C89  1  0.08097547  0.45620119  0.74410065  1.0
  C  C90  1  0.08703841  0.51865053  0.71483966  1.0
  C  C91  1  0.08302440  0.57741142  0.75533200  1.0
  C  C92  1  0.07174487  0.57584666  0.82387352  1.0
  C  C93  1  0.06634232  0.51270892  0.85143858  1.0
  C  C94  1  0.16719341  0.61255020  0.34094131  1.0
  C  C95  1  0.17732702  0.55421531  0.30170197  1.0
  C  C96  1  0.16748894  0.49016024  0.32689262  1.0
  C  C97  1  0.15025509  0.48640233  0.39386222  1.0
  C  C98  1  0.14276863  0.54395260  0.43518162  1.0
  C  C99  1  0.14995066  0.60706229  0.40758437  1.0
  C  C100  1  0.86420998  0.96991877  0.50057068  1.0
  C  C101  1  0.90194717  0.96881010  0.56065740  1.0
  C  C102  1  0.87119753  0.97332687  0.62222341  1.0
  C  C103  1  0.80142961  0.97908453  0.62264831  1.0
  C  C104  1  0.76246682  0.98104252  0.56343973  1.0
  C  C105  1  0.79449103  0.97545537  0.50237584  1.0
  C  C106  1  0.38669643  0.06852840  0.65116513  1.0
  C  C107  1  0.34824780  0.07487178  0.59225813  1.0
  C  C108  1  0.37494533  0.06420756  0.52923335  1.0
  C  C109  1  0.44235584  0.04736525  0.52675930  1.0
  C  C110  1  0.48273790  0.04267124  0.58465462  1.0
  C  C111  1  0.45435031  0.05346474  0.64702661  1.0
  C  C112  1  0.54164056  0.76633293  0.02118837  1.0
  C  C113  1  0.54662468  0.69922097  0.03732996  1.0
  C  C114  1  0.60955009  0.67203265  0.04722233  1.0
  C  C115  1  0.66733513  0.71409784  0.04233682  1.0
  C  C116  1  0.66370666  0.78191435  0.02780836  1.0
  C  C117  1  0.60033605  0.80711045  0.01558989  1.0
  C  C118  1  0.70705496  0.29871379  0.12735735  1.0
  C  C119  1  0.70078854  0.36631194  0.11358533  1.0
  C  C120  1  0.63731550  0.39262976  0.10457238  1.0
  C  C121  1  0.58025446  0.34922490  0.10782736  1.0
  C  C122  1  0.58507058  0.28087791  0.11964750  1.0
  C  C123  1  0.64900305  0.25650716  0.13110284  1.0
  C  C124  1  0.08092143  0.20988729  0.95691030  1.0
  C  C125  1  0.33470154  0.12012944  0.10105991  1.0
  C  C126  1  0.15776709  0.24040994  0.16687319  1.0
  C  C127  1  0.24783628  0.07265849  0.89911303  1.0
  C  C128  1  0.16549080  0.85834357  0.20112697  1.0
  C  C129  1  0.91470006  0.94127166  0.04381150  1.0
  C  C130  1  0.21663923  0.06029868  0.28191939  1.0
  C  C131  1  0.29783156  0.90878520  0.02666392  1.0
  C  C132  1  0.02702244  0.99687838  0.87140414  1.0
  C  C133  1  0.95419398  0.16151550  0.12297276  1.0
  C  C134  1  0.00478861  0.98611198  0.25465542  1.0
  C  C135  1  0.08221449  0.82535181  0.98340945  1.0
  C  C136  1  0.79528670  0.23464494  0.18654907  1.0
  C  C137  1  0.77414680  0.27008089  0.13156798  1.0
  C  C138  1  0.81648665  0.27512172  0.07732800  1.0
  C  C139  1  0.87562012  0.24124083  0.07587427  1.0
  C  C140  1  0.89569336  0.20469997  0.13042456  1.0
  C  C141  1  0.85646077  0.20357317  0.18683821  1.0
  C  C142  1  0.47231087  0.24908182  0.06833032  1.0
  C  C143  1  0.52335634  0.23636898  0.11548910  1.0
  C  C144  1  0.51312123  0.18146393  0.15600038  1.0
  C  C145  1  0.45336147  0.14175182  0.15075102  1.0
  C  C146  1  0.40201785  0.15664546  0.10528246  1.0
  C  C147  1  0.41254213  0.21042488  0.06362082  1.0
  C  C148  1  0.73699905  0.87840356  0.98747978  1.0
  C  C149  1  0.72596242  0.82546421  0.03022912  1.0
  C  C150  1  0.77653804  0.81393465  0.07823476  1.0
  C  C151  1  0.83657039  0.85205701  0.08188819  1.0
  C  C152  1  0.84774609  0.90419040  0.03840686  1.0
  C  C153  1  0.79703979  0.91769358  0.99168744  1.0
  C  C154  1  0.43352378  0.79300435  0.07156721  1.0
  C  C155  1  0.47550493  0.79667068  0.01698179  1.0
  C  C156  1  0.45543524  0.83298682  0.96223514  1.0
  C  C157  1  0.39539221  0.86601914  0.96228509  1.0
  C  C158  1  0.35644655  0.86590193  0.01888185  1.0
  C  C159  1  0.37570262  0.82882973  0.07334151  1.0
  C  C160  1  0.66727570  0.58185443  0.10638477  1.0
  C  C161  1  0.61570296  0.60096768  0.06284661  1.0
  C  C162  1  0.57103392  0.55019729  0.03400719  1.0
  C  C163  1  0.57815912  0.48317911  0.04756895  1.0
  C  C164  1  0.63004611  0.46399345  0.09070373  1.0
  C  C165  1  0.67437965  0.51483274  0.11998846  1.0
  C  C166  1  0.29067250  0.03889830  0.72045984  1.0
  C  C167  1  0.35312772  0.07396277  0.71560413  1.0
  C  C168  1  0.38047307  0.11142010  0.77195886  1.0
  C  C169  1  0.34597602  0.11452150  0.83134029  1.0
  C  C170  1  0.28481654  0.07777082  0.83598237  1.0
  C  C171  1  0.25765533  0.03963470  0.78001136  1.0
  C  C172  1  0.36354841  0.07408197  0.40538536  1.0
  C  C173  1  0.33323257  0.06824101  0.46724283  1.0
  C  C174  1  0.26250362  0.06450186  0.46734455  1.0
  C  C175  1  0.22369613  0.06569919  0.40842277  1.0
  C  C176  1  0.25485649  0.06756134  0.34717054  1.0
  C  C177  1  0.32525804  0.07188777  0.34633302  1.0
  C  C178  1  0.97017671  0.94106822  0.69355667  1.0
  C  C179  1  0.91156238  0.97674913  0.68545732  1.0
  C  C180  1  0.89220469  0.01825196  0.73922350  1.0
  C  C181  1  0.92971903  0.02376797  0.79875666  1.0
  C  C182  1  0.98828500  0.98825533  0.80643991  1.0
  C  C183  1  0.00828019  0.94681442  0.75324349  1.0
  C  C184  1  0.87881051  0.92884863  0.38091408  1.0
  C  C185  1  0.89962632  0.97032125  0.43707363  1.0
  C  C186  1  0.95614893  0.01471834  0.43267669  1.0
  C  C187  1  0.98960871  0.01899053  0.37354092  1.0
  C  C188  1  0.96898513  0.97702106  0.31780345  1.0
  C  C189  1  0.91398158  0.93116512  0.32210550  1.0
  C  C190  1  0.65940591  0.03550593  0.52216470  1.0
  C  C191  1  0.69012161  0.99337353  0.56684175  1.0
  C  C192  1  0.65084318  0.96672168  0.61702464  1.0
  C  C193  1  0.58400135  0.98232873  0.62298616  1.0
  C  C194  1  0.55355981  0.02518088  0.57884666  1.0
  C  C195  1  0.59258195  0.05105121  0.52810150  1.0
  C  C196  1  0.22771069  0.70065399  0.27586049  1.0
  C  C197  1  0.17142455  0.67881498  0.31065667  1.0
  C  C198  1  0.11605411  0.71962613  0.31344961  1.0
  C  C199  1  0.11522704  0.77817839  0.27880302  1.0
  C  C200  1  0.17134291  0.79927906  0.24344305  1.0
  C  C201  1  0.22841516  0.76120163  0.24386456  1.0
  C  C202  1  0.18076034  0.36597981  0.31288226  1.0
  C  C203  1  0.17140319  0.42794993  0.28411945  1.0
  C  C204  1  0.16280525  0.42759807  0.21422281  1.0
  C  C205  1  0.16236171  0.36806496  0.17483461  1.0
  C  C206  1  0.16738980  0.30659258  0.20480283  1.0
  C  C207  1  0.17688761  0.30629410  0.27433284  1.0
  C  C208  1  0.07318260  0.63890162  0.93604073  1.0
  C  C209  1  0.06819369  0.63858905  0.86589679  1.0
  C  C210  1  0.06147845  0.70074648  0.83666438  1.0
  C  C211  1  0.06461849  0.76042762  0.87518082  1.0
  C  C212  1  0.07075225  0.75989953  0.94490166  1.0
  C  C213  1  0.07285853  0.69838593  0.97522844  1.0
  C  C214  1  0.02894126  0.33292562  0.82796929  1.0
  C  C215  1  0.07132978  0.38928613  0.84736016  1.0
  C  C216  1  0.11521338  0.38583506  0.90327876  1.0
  C  C217  1  0.11764219  0.32760026  0.93799209  1.0
  C  C218  1  0.07419568  0.27190672  0.91922656  1.0
  C  C219  1  0.02927662  0.27511202  0.86446174  1.0
  C  C220  1  0.14245658  0.48028529  0.60997986  1.0
  C  C221  1  0.10000045  0.52386461  0.64314692  1.0
  C  C222  1  0.07135989  0.57405147  0.60625494  1.0
  C  C223  1  0.08484614  0.58072267  0.53931281  1.0
  C  C224  1  0.12751694  0.53732616  0.50618257  1.0
  C  C225  1  0.15594638  0.48698611  0.54302930  1.0
  O  O226  1  0.03154408  0.16763489  0.96059978  1.0
  O  O227  1  0.32418289  0.06533695  0.12962666  1.0
  O  O228  1  0.18230971  0.23083651  0.10991942  1.0
  O  O229  1  0.24687115  0.12148915  0.94179428  1.0
  O  O230  1  0.21720004  0.01475423  0.90341120  1.0
  O  O231  1  0.12385804  0.19634154  0.19855369  1.0
  O  O232  1  0.29000974  0.15057199  0.06785399  1.0
  O  O233  1  0.14011731  0.20446862  0.98307707  1.0
  O  O234  1  0.20614580  0.03290600  0.04363829  1.0
  O  O235  1  0.09433037  0.11502741  0.07923900  1.0
  O  O236  1  0.19884836  0.10449878  0.14776515  1.0
  O  O237  1  0.12069475  0.07336910  0.96463080  1.0
  O  O238  1  0.21609093  0.89778755  0.19228986  1.0
  O  O239  1  0.92511214  0.99678305  0.01639648  1.0
  O  O240  1  0.16048471  0.08670300  0.27383308  1.0
  O  O241  1  0.25639357  0.91586945  0.97844088  1.0
  O  O242  1  0.08230933  0.96882204  0.87986071  1.0
  O  O243  1  0.99424479  0.15274900  0.17196888  1.0
  O  O244  1  0.00562760  0.93813312  0.21076348  1.0
  O  O245  1  0.05862361  0.83475390  0.04087925  1.0
  O  O246  1  0.03226487  0.04526165  0.25002197  1.0
  O  O247  1  0.11874392  0.86816983  0.95291211  1.0
  O  O248  1  0.24699557  0.02637426  0.23710987  1.0
  O  O249  1  0.95726298  0.13425361  0.06386198  1.0
  O  O250  1  0.99981183  0.03490646  0.91519142  1.0
  O  O251  1  0.29471211  0.93553746  0.08598279  1.0
  O  O252  1  0.10625082  0.86281417  0.17489094  1.0
  O  O253  1  0.95856189  0.91178820  0.07884982  1.0
  O  O254  1  0.06797786  0.97822344  0.02277893  1.0
  O  O255  1  0.12632789  0.00074332  0.15828920  1.0
  O  O256  1  0.01183734  0.03042081  0.11924052  1.0
  O  O257  1  0.16340714  0.91888427  0.07162556  1.0
