# generated using pymatgen
data_Al4H11C32NO27
_symmetry_space_group_name_H-M   'P 1'
_cell_length_a   6.67489256
_cell_length_b   16.73487599
_cell_length_c   18.53339290
_cell_angle_alpha   74.16651635
_cell_angle_beta   89.83449934
_cell_angle_gamma   89.92841696
_symmetry_Int_Tables_number   1
_chemical_formula_structural   Al4H11C32NO27
_chemical_formula_sum   'Al4 H11 C32 N1 O27'
_cell_volume   1991.68853922
_cell_formula_units_Z   1
loop_
 _symmetry_equiv_pos_site_id
 _symmetry_equiv_pos_as_xyz
  1  'x, y, z'
loop_
 _atom_site_type_symbol
 _atom_site_label
 _atom_site_symmetry_multiplicity
 _atom_site_fract_x
 _atom_site_fract_y
 _atom_site_fract_z
 _atom_site_occupancy
  Al  Al0  1  0.12589623  0.50254906  0.49823612  1.0
  Al  Al1  1  0.62710328  0.50069539  0.50082783  1.0
  Al  Al2  1  0.61627602  0.00254322  0.99946148  1.0
  Al  Al3  1  0.11590271  0.99923689  0.00104205  1.0
  H  H4  1  0.17103352  0.78879207  0.16967694  1.0
  H  H5  1  0.18380549  0.67059381  0.28639380  1.0
  H  H6  1  0.54142390  0.65716103  0.37117406  1.0
  H  H7  1  0.41526439  0.80781887  0.24865806  1.0
  H  H8  1  0.05711916  0.10967389  0.83453555  1.0
  H  H9  1  0.77512566  0.28148229  0.81835177  1.0
  H  H10  1  0.69211312  0.38927087  0.67039706  1.0
  H  H11  1  0.37512738  0.59609669  0.51923175  1.0
  H  H12  1  0.88096851  0.39281821  0.51105676  1.0
  H  H13  1  0.37269180  0.89847815  0.04876553  1.0
  H  H14  1  0.86939774  0.10459500  0.00478980  1.0
  C  C15  1  0.37989403  0.41492053  0.41547616  1.0
  C  C16  1  0.36875677  0.38708614  0.61347398  1.0
  C  C17  1  0.87357517  0.59013707  0.58407414  1.0
  C  C18  1  0.88070241  0.61385364  0.38326619  1.0
  C  C19  1  0.69249679  0.72463408  0.29036481  1.0
  C  C20  1  0.68602178  0.79276760  0.22504955  1.0
  C  C21  1  0.86046924  0.81588356  0.18197715  1.0
  C  C22  1  0.03888154  0.77043596  0.20481232  1.0
  C  C23  1  0.04582931  0.70489268  0.26877590  1.0
  C  C24  1  0.87227718  0.68135666  0.31306622  1.0
  C  C25  1  0.86291519  0.87060598  0.85821892  1.0
  C  C26  1  0.86615190  0.82691902  0.81480646  1.0
  C  C27  1  0.86906464  0.77866794  0.76775954  1.0
  C  C28  1  0.87141517  0.73382286  0.72482937  1.0
  C  C29  1  0.87344110  0.68530424  0.67802824  1.0
  C  C30  1  0.87518144  0.64103978  0.63504375  1.0
  C  C31  1  0.37932048  0.36408040  0.36436672  1.0
  C  C32  1  0.37550567  0.32061735  0.32074337  1.0
  C  C33  1  0.37149347  0.27306287  0.27310445  1.0
  C  C34  1  0.36799133  0.22921886  0.22933282  1.0
  C  C35  1  0.36592600  0.18158573  0.18172050  1.0
  C  C36  1  0.36522384  0.13802459  0.13813659  1.0
  C  C37  1  0.20733968  0.25750592  0.69783632  1.0
  C  C38  1  0.19584805  0.19652727  0.76697730  1.0
  C  C39  1  0.36127348  0.18684327  0.81819506  1.0
  C  C40  1  0.52348107  0.24234705  0.80011263  1.0
  C  C41  1  0.52383539  0.30723199  0.73229709  1.0
  C  C42  1  0.36877693  0.31446274  0.68084276  1.0
  C  C43  1  0.36334759  0.11643826  0.88677914  1.0
  C  C44  1  0.36933892  0.08820438  0.08586711  1.0
  C  C45  1  0.86573749  0.88588377  0.11245613  1.0
  C  C46  1  0.86013732  0.91970375  0.91114502  1.0
  N  N47  1  0.06264656  0.25643828  0.63936674  1.0
  O  O48  1  0.54268987  0.41300859  0.58684668  1.0
  O  O49  1  0.20989502  0.43292251  0.43796595  1.0
  O  O50  1  0.04928734  0.58365421  0.40783739  1.0
  O  O51  1  0.20321989  0.42014050  0.58903588  1.0
  O  O52  1  0.04213951  0.57526823  0.55785652  1.0
  O  O53  1  0.55019492  0.43760524  0.43383821  1.0
  O  O54  1  0.37758670  0.55332892  0.49273917  1.0
  O  O55  1  0.70255121  0.56469503  0.56907629  1.0
  O  O56  1  0.71163116  0.59066003  0.41713402  1.0
  O  O57  1  0.87688893  0.45148694  0.50900353  1.0
  O  O58  1  0.20070045  0.07406606  0.05950343  1.0
  O  O59  1  0.52677789  0.09402261  0.92035028  1.0
  O  O60  1  0.69013565  0.94583196  0.92575624  1.0
  O  O61  1  0.54165815  0.06437324  0.07061369  1.0
  O  O62  1  0.70063675  0.91042223  0.07950954  1.0
  O  O63  1  0.19350442  0.08065108  0.90871450  1.0
  O  O64  1  0.36700715  0.95080661  0.00982076  1.0
  O  O65  1  0.03828080  0.91553946  0.08942384  1.0
  O  O66  1  0.02876709  0.93112673  0.93860615  1.0
  O  O67  1  0.86805084  0.05156874  0.99306708  1.0
  O  O68  1  0.51617794  0.70723708  0.32780084  1.0
  O  O69  1  0.50914904  0.83355306  0.20807233  1.0
  O  O70  1  0.88271286  0.24665663  0.65641366  1.0
  O  O71  1  0.12945497  0.26506146  0.57473199  1.0
  O  O72  1  0.03801553  0.14538001  0.78182679  1.0
  O  O73  1  0.68089840  0.23874336  0.84602928  1.0
  O  O74  1  0.68112915  0.36048714  0.72461767  1.0
