# generated using pymatgen
data_AlH12C24S3(NO5)3
_symmetry_space_group_name_H-M   'P 1'
_cell_length_a   4.27434657
_cell_length_b   15.66124396
_cell_length_c   15.68352359
_cell_angle_alpha   119.94323186
_cell_angle_beta   90.57223902
_cell_angle_gamma   93.10566380
_symmetry_Int_Tables_number   1
_chemical_formula_structural   AlH12C24S3(NO5)3
_chemical_formula_sum   'Al1 H12 C24 S3 N3 O15'
_cell_volume   907.57394707
_cell_formula_units_Z   1
loop_
 _symmetry_equiv_pos_site_id
 _symmetry_equiv_pos_as_xyz
  1  'x, y, z'
loop_
 _atom_site_type_symbol
 _atom_site_label
 _atom_site_symmetry_multiplicity
 _atom_site_fract_x
 _atom_site_fract_y
 _atom_site_fract_z
 _atom_site_occupancy
  Al  Al0  1  0.01643436  0.99907214  0.50013994  1.0
  H  H1  1  0.46669382  0.08425062  0.95822617  1.0
  H  H2  1  0.48370883  0.37106269  0.41182049  1.0
  H  H3  1  0.40853244  0.53795802  0.12520990  1.0
  H  H4  1  0.39014072  0.73717873  0.49023855  1.0
  H  H5  1  0.32502719  0.55330412  0.40562692  1.0
  H  H6  1  0.44561812  0.00434627  0.24712476  1.0
  H  H7  1  0.37280006  0.08688093  0.14782187  1.0
  H  H8  1  0.46283804  0.25099506  0.75881962  1.0
  H  H9  1  0.38512167  0.34717213  0.93964383  1.0
  H  H10  1  0.02466769  0.90625573  0.69464378  1.0
  H  H11  1  0.98607748  0.80779797  0.21484460  1.0
  H  H12  1  0.06842167  0.28778722  0.59300865  1.0
  C  C13  1  0.53024929  0.05774221  0.64677302  1.0
  C  C14  1  0.48160639  0.85162929  0.41081044  1.0
  C  C15  1  0.52788595  0.08753715  0.44163686  1.0
  C  C16  1  0.49901742  0.11299252  0.75622052  1.0
  C  C17  1  0.49641442  0.14105491  0.38546995  1.0
  C  C18  1  0.42963989  0.74122896  0.35542256  1.0
  C  C19  1  0.49708730  0.06659357  0.81322257  1.0
  C  C20  1  0.45619282  0.12006441  0.91414033  1.0
  C  C21  1  0.50652150  0.24457010  0.43131340  1.0
  C  C22  1  0.46414404  0.29084191  0.37630891  1.0
  C  C23  1  0.42815741  0.68421461  0.25215116  1.0
  C  C24  1  0.39292587  0.58158649  0.20474660  1.0
  C  C25  1  0.38734672  0.69316390  0.41005699  1.0
  C  C26  1  0.35054366  0.59060150  0.36294488  1.0
  C  C27  1  0.44803181  0.08464976  0.28295709  1.0
  C  C28  1  0.40621612  0.13054618  0.22762145  1.0
  C  C29  1  0.45844040  0.21450797  0.80264204  1.0
  C  C30  1  0.41439494  0.26816012  0.90341432  1.0
  C  C31  1  0.41332659  0.22132462  0.95989885  1.0
  C  C32  1  0.38652138  0.27818241  0.06791802  1.0
  C  C33  1  0.41230883  0.23395111  0.27398447  1.0
  C  C34  1  0.38626020  0.28401360  0.21570747  1.0
  C  C35  1  0.35703653  0.53399777  0.25990976  1.0
  C  C36  1  0.35603256  0.42510681  0.20917966  1.0
  S  S37  1  0.58012772  0.94037065  0.76454350  1.0
  S  S38  1  0.52298435  0.73571428  0.17556782  1.0
  S  S39  1  0.62318683  0.32377952  0.55822389  1.0
  N  N40  1  0.39872588  0.22864973  0.11739631  1.0
  N  N41  1  0.36340417  0.38241562  0.26513402  1.0
  N  N42  1  0.36305884  0.37611194  0.11029772  1.0
  O  O43  1  0.76202782  0.03556221  0.42364934  1.0
  O  O44  1  0.77909723  0.07651560  0.61405308  1.0
  O  O45  1  0.73344047  0.88617843  0.46381963  1.0
  O  O46  1  0.30785617  0.09682232  0.49939193  1.0
  O  O47  1  0.26478364  0.89961447  0.40187081  1.0
  O  O48  1  0.29533473  0.99925058  0.59728011  1.0
  O  O49  1  0.29818540  0.87529864  0.71584279  1.0
  O  O50  1  0.72941508  0.93119905  0.84160082  1.0
  O  O51  1  0.80011319  0.92344946  0.68069498  1.0
  O  O52  1  0.25602132  0.78187475  0.16057136  1.0
  O  O53  1  0.65732883  0.66088543  0.08869254  1.0
  O  O54  1  0.76019659  0.82293026  0.24293125  1.0
  O  O55  1  0.35741756  0.34087210  0.62159793  1.0
  O  O56  1  0.79076508  0.40987476  0.56712206  1.0
  O  O57  1  0.83329777  0.25782583  0.57837973  1.0
