# generated using pymatgen
data_CdH18C22(NO)4
_symmetry_space_group_name_H-M   'P 1'
_cell_length_a   8.27485253
_cell_length_b   18.44539646
_cell_length_c   18.44629769
_cell_angle_alpha   89.99873259
_cell_angle_beta   90.00063723
_cell_angle_gamma   89.99971562
_symmetry_Int_Tables_number   1
_chemical_formula_structural   CdH18C22(NO)4
_chemical_formula_sum   'Cd4 H72 C88 N16 O16'
_cell_volume   2815.51256581
_cell_formula_units_Z   4
loop_
 _symmetry_equiv_pos_site_id
 _symmetry_equiv_pos_as_xyz
  1  'x, y, z'
loop_
 _atom_site_type_symbol
 _atom_site_label
 _atom_site_symmetry_multiplicity
 _atom_site_fract_x
 _atom_site_fract_y
 _atom_site_fract_z
 _atom_site_occupancy
  Cd  Cd0  1  0.50002234  0.21097308  0.21096928  1.0
  Cd  Cd1  1  0.50002669  0.78902419  0.78903064  1.0
  Cd  Cd2  1  0.50000989  0.71097285  0.28902873  1.0
  Cd  Cd3  1  0.49998233  0.28902496  0.71097173  1.0
  H  H4  1  0.68400999  0.80161228  0.16977282  1.0
  H  H5  1  0.68401175  0.19837479  0.83024264  1.0
  H  H6  1  0.68404031  0.66976541  0.69839471  1.0
  H  H7  1  0.68404791  0.33023196  0.30160773  1.0
  H  H8  1  0.31597523  0.69839933  0.66976445  1.0
  H  H9  1  0.31596451  0.30159567  0.33022373  1.0
  H  H10  1  0.31592510  0.83023472  0.19840715  1.0
  H  H11  1  0.31595060  0.16976353  0.80160759  1.0
  H  H12  1  0.87206589  0.79837064  0.21474765  1.0
  H  H13  1  0.87207011  0.20161923  0.78526602  1.0
  H  H14  1  0.87209906  0.71473789  0.70163435  1.0
  H  H15  1  0.87210462  0.28525036  0.29836089  1.0
  H  H16  1  0.12792047  0.70163780  0.71474371  1.0
  H  H17  1  0.12790260  0.29835710  0.28525060  1.0
  H  H18  1  0.12787489  0.78524700  0.20164524  1.0
  H  H19  1  0.12790226  0.21474412  0.79836424  1.0
  H  H20  1  0.81568925  0.87844109  0.16649195  1.0
  H  H21  1  0.81569188  0.12154404  0.83351331  1.0
  H  H22  1  0.81571300  0.66648615  0.62156665  1.0
  H  H23  1  0.81573701  0.33349844  0.37843428  1.0
  H  H24  1  0.18429952  0.62156572  0.66649115  1.0
  H  H25  1  0.18427722  0.37842309  0.33351319  1.0
  H  H26  1  0.18424442  0.83350918  0.12157729  1.0
  H  H27  1  0.18427552  0.16648885  0.87843518  1.0
  H  H28  1  0.41934189  0.86605712  0.39172006  1.0
  H  H29  1  0.41932541  0.13395498  0.60829085  1.0
  H  H30  1  0.41934361  0.89171667  0.63395809  1.0
  H  H31  1  0.41932973  0.10829435  0.36605283  1.0
  H  H32  1  0.58065257  0.63394579  0.89171766  1.0
  H  H33  1  0.58065371  0.36605942  0.10829133  1.0
  H  H34  1  0.58067213  0.60829682  0.13395179  1.0
  H  H35  1  0.58067040  0.39170622  0.86605340  1.0
  H  H36  1  0.62744647  0.98589221  0.38988798  1.0
  H  H37  1  0.62743247  0.01412319  0.61010660  1.0
  H  H38  1  0.62743403  0.88989615  0.51412481  1.0
  H  H39  1  0.62740745  0.11011382  0.48588712  1.0
  H  H40  1  0.37255882  0.51410694  0.88988179  1.0
  H  H41  1  0.37254548  0.48589660  0.11012021  1.0
  H  H42  1  0.37257506  0.61013191  0.01411800  1.0
  H  H43  1  0.37256912  0.38987868  0.98588292  1.0
  H  H44  1  0.70741353  0.06441645  0.26199845  1.0
  H  H45  1  0.70739696  0.93558303  0.73799490  1.0
  H  H46  1  0.70738074  0.76201082  0.43560009  1.0
  H  H47  1  0.70739713  0.23799517  0.56439488  1.0
  H  H48  1  0.29261902  0.43559835  0.76198851  1.0
  H  H49  1  0.29259845  0.56441189  0.23800552  1.0
  H  H50  1  0.29262813  0.73799979  0.93561242  1.0
  H  H51  1  0.29261592  0.26199147  0.06439408  1.0
  H  H52  1  0.03950182  0.88831293  0.29951285  1.0
  H  H53  1  0.03949635  0.11168002  0.70048374  1.0
  H  H54  1  0.03951709  0.79950791  0.61168270  1.0
  H  H55  1  0.03954271  0.20047799  0.38832093  1.0
  H  H56  1  0.96049394  0.61168009  0.79949816  1.0
  H  H57  1  0.96046334  0.38832421  0.20048612  1.0
  H  H58  1  0.96046787  0.70050444  0.11168165  1.0
  H  H59  1  0.96047369  0.29950040  0.88831619  1.0
  H  H60  1  0.93919330  0.14599404  0.23218454  1.0
  H  H61  1  0.93916986  0.85400380  0.76781482  1.0
  H  H62  1  0.93913867  0.73218557  0.35401823  1.0
  H  H63  1  0.93915561  0.26782257  0.64597463  1.0
  H  H64  1  0.06086145  0.35400841  0.73217202  1.0
  H  H65  1  0.06083234  0.64599263  0.26783226  1.0
  H  H66  1  0.06088263  0.76782413  0.85401737  1.0
  H  H67  1  0.06086192  0.23217853  0.14598420  1.0
  H  H68  1  0.27175889  0.96965039  0.26602937  1.0
  H  H69  1  0.27174423  0.03033821  0.73396997  1.0
  H  H70  1  0.27174998  0.76602701  0.53033507  1.0
  H  H71  1  0.27176523  0.23395563  0.46966862  1.0
  H  H72  1  0.72825535  0.53033958  0.76600776  1.0
  H  H73  1  0.72822839  0.46967721  0.23396237  1.0
  H  H74  1  0.72824501  0.73398497  0.03032455  1.0
  H  H75  1  0.72823873  0.26602205  0.96966565  1.0
  C  C76  1  0.77078518  0.83417660  0.20072359  1.0
  C  C77  1  0.77078407  0.16581406  0.79928524  1.0
  C  C78  1  0.77080624  0.70072082  0.66583304  1.0
  C  C79  1  0.77082344  0.29926984  0.33416658  1.0
  C  C80  1  0.22920808  0.66583432  0.70072148  1.0
  C  C81  1  0.22918779  0.33416088  0.29927603  1.0
  C  C82  1  0.22915834  0.79927570  0.16584303  1.0
  C  C83  1  0.22918918  0.20072005  0.83416533  1.0
  C  C84  1  0.68978019  0.86284274  0.26657586  1.0
  C  C85  1  0.68978376  0.13715570  0.73342987  1.0
  C  C86  1  0.68981074  0.76657560  0.63716890  1.0
  C  C87  1  0.68981967  0.23341308  0.36282707  1.0
  C  C88  1  0.31021715  0.63716781  0.76657424  1.0
  C  C89  1  0.31018765  0.36283371  0.23342638  1.0
  C  C90  1  0.31018454  0.73342697  0.13718129  1.0
  C  C91  1  0.31019247  0.26657617  0.86283071  1.0
  C  C92  1  0.51865794  0.87909534  0.35573949  1.0
  C  C93  1  0.51865096  0.12091598  0.64426431  1.0
  C  C94  1  0.51866625  0.85574024  0.62091980  1.0
  C  C95  1  0.51865595  0.14426187  0.37908184  1.0
  C  C96  1  0.48133923  0.62091270  0.85573907  1.0
  C  C97  1  0.48130973  0.37909871  0.14426835  1.0
  C  C98  1  0.48134312  0.64426866  0.12091710  1.0
  C  C99  1  0.48133363  0.35573625  0.87908923  1.0
  C  C100  1  0.62046732  0.93769357  0.35648071  1.0
  C  C101  1  0.62044038  0.06231805  0.64352306  1.0
  C  C102  1  0.62045221  0.85648296  0.56232183  1.0
  C  C103  1  0.62044582  0.14351348  0.43768465  1.0
  C  C104  1  0.37954317  0.56230957  0.85647349  1.0
  C  C105  1  0.37953721  0.43768636  0.14353235  1.0
  C  C106  1  0.37954601  0.64353645  0.06232407  1.0
  C  C107  1  0.37954283  0.35647141  0.93768447  1.0
  C  C108  1  0.86191462  0.97256079  0.28256201  1.0
  C  C109  1  0.86190078  0.02743290  0.71743588  1.0
  C  C110  1  0.86190781  0.78256000  0.52744523  1.0
  C  C111  1  0.86192209  0.21742719  0.47255646  1.0
  C  C112  1  0.13809883  0.52744019  0.78254788  1.0
  C  C113  1  0.13807506  0.47256391  0.21744159  1.0
  C  C114  1  0.13808470  0.71744663  0.02744900  1.0
  C  C115  1  0.13809161  0.28255368  0.97255620  1.0
  C  C116  1  0.83165515  0.04474687  0.26429428  1.0
  C  C117  1  0.83165403  0.95524689  0.73570130  1.0
  C  C118  1  0.83164301  0.76430154  0.45526340  1.0
  C  C119  1  0.83166497  0.23570145  0.54473544  1.0
  C  C120  1  0.16836416  0.45525703  0.76428222  1.0
  C  C121  1  0.16833890  0.54474971  0.23571229  1.0
  C  C122  1  0.16836998  0.73571352  0.95526920  1.0
  C  C123  1  0.16836451  0.26428672  0.04473831  1.0
  C  C124  1  0.01914568  0.94461932  0.28384507  1.0
  C  C125  1  0.01912185  0.05537640  0.71615195  1.0
  C  C126  1  0.01913060  0.78384395  0.55537993  1.0
  C  C127  1  0.01914419  0.21614743  0.44461981  1.0
  C  C128  1  0.98087264  0.55537947  0.78383119  1.0
  C  C129  1  0.98085516  0.44462695  0.21615319  1.0
  C  C130  1  0.98085657  0.71616911  0.05538188  1.0
  C  C131  1  0.98086276  0.28383948  0.94461660  1.0
  C  C132  1  0.96138633  0.08986873  0.24768155  1.0
  C  C133  1  0.96138247  0.91012744  0.75231846  1.0
  C  C134  1  0.96135118  0.74768039  0.41013885  1.0
  C  C135  1  0.96137532  0.25232228  0.58985736  1.0
  C  C136  1  0.03864465  0.41013500  0.74766443  1.0
  C  C137  1  0.03861451  0.58987313  0.25233052  1.0
  C  C138  1  0.03866067  0.75233078  0.91014040  1.0
  C  C139  1  0.03863355  0.24767464  0.08985943  1.0
  C  C140  1  0.14787622  0.98980570  0.26583694  1.0
  C  C141  1  0.14786539  0.01019295  0.73415855  1.0
  C  C142  1  0.14786957  0.76583763  0.51019685  1.0
  C  C143  1  0.14789258  0.23414910  0.48980460  1.0
  C  C144  1  0.85214286  0.51019619  0.76581855  1.0
  C  C145  1  0.85210966  0.48980999  0.23415978  1.0
  C  C146  1  0.85213700  0.73417859  0.01019073  1.0
  C  C147  1  0.85213848  0.26583030  0.98980441  1.0
  C  C148  1  0.11975697  0.06266294  0.24814384  1.0
  C  C149  1  0.11975161  0.93733361  0.75185368  1.0
  C  C150  1  0.11973410  0.74814463  0.43734171  1.0
  C  C151  1  0.11975756  0.25185084  0.56265961  1.0
  C  C152  1  0.88027281  0.43733915  0.74812753  1.0
  C  C153  1  0.88022481  0.56267239  0.25186016  1.0
  C  C154  1  0.88027722  0.75186432  0.93733383  1.0
  C  C155  1  0.88026149  0.24814017  0.06266090  1.0
  C  C156  1  0.25867982  0.11181561  0.23069515  1.0
  C  C157  1  0.25867420  0.88817736  0.76929600  1.0
  C  C158  1  0.25864118  0.73070705  0.38818495  1.0
  C  C159  1  0.25865483  0.26929676  0.61182138  1.0
  C  C160  1  0.74136160  0.38817602  0.73069442  1.0
  C  C161  1  0.74131838  0.61182934  0.26930343  1.0
  C  C162  1  0.74137373  0.76929648  0.88817276  1.0
  C  C163  1  0.74135822  0.23070347  0.11181967  1.0
  N  N164  1  0.56264979  0.83325249  0.29985518  1.0
  N  N165  1  0.56264255  0.16675168  0.70015806  1.0
  N  N166  1  0.56266427  0.79985094  0.66676224  1.0
  N  N167  1  0.56266312  0.20014564  0.33323636  1.0
  N  N168  1  0.43735322  0.66675895  0.79985136  1.0
  N  N169  1  0.43732922  0.33324606  0.20015097  1.0
  N  N170  1  0.43733055  0.70015098  0.16676731  1.0
  N  N171  1  0.43734585  0.29984969  0.83324098  1.0
  N  N172  1  0.72947163  0.92640994  0.30041836  1.0
  N  N173  1  0.72946774  0.07359166  0.69957835  1.0
  N  N174  1  0.72948056  0.80042373  0.57360194  1.0
  N  N175  1  0.72948661  0.19957028  0.42639748  1.0
  N  N176  1  0.27053019  0.57359769  0.80041524  1.0
  N  N177  1  0.27050522  0.42640609  0.19958356  1.0
  N  N178  1  0.27050827  0.69958784  0.07360729  1.0
  N  N179  1  0.27052109  0.30041703  0.92639205  1.0
  O  O180  1  0.22896045  0.17995303  0.22582397  1.0
  O  O181  1  0.22896048  0.82004326  0.77417137  1.0
  O  O182  1  0.22891535  0.72584321  0.32004985  1.0
  O  O183  1  0.22895121  0.27416176  0.67995308  1.0
  O  O184  1  0.77108810  0.32003817  0.72581297  1.0
  O  O185  1  0.77103342  0.67996821  0.27418069  1.0
  O  O186  1  0.77108697  0.77417158  0.82003227  1.0
  O  O187  1  0.77107323  0.22581799  0.17995596  1.0
  O  O188  1  0.39985820  0.08561116  0.22309697  1.0
  O  O189  1  0.39984163  0.91438906  0.77689216  1.0
  O  O190  1  0.39982232  0.72310523  0.41438468  1.0
  O  O191  1  0.39983280  0.27690366  0.58562451  1.0
  O  O192  1  0.60017094  0.41437577  0.72310256  1.0
  O  O193  1  0.60014630  0.58561909  0.27690436  1.0
  O  O194  1  0.60017997  0.77689446  0.91436891  1.0
  O  O195  1  0.60016991  0.22311884  0.08562012  1.0
