# generated using pymatgen
data_Zn2H18C27O11
_symmetry_space_group_name_H-M   'P 1'
_cell_length_a   7.37097931
_cell_length_b   22.12883555
_cell_length_c   28.27656349
_cell_angle_alpha   90.00069741
_cell_angle_beta   90.00084095
_cell_angle_gamma   80.63445506
_symmetry_Int_Tables_number   1
_chemical_formula_structural   Zn2H18C27O11
_chemical_formula_sum   'Zn8 H72 C108 O44'
_cell_volume   4550.74386865
_cell_formula_units_Z   4
loop_
 _symmetry_equiv_pos_site_id
 _symmetry_equiv_pos_as_xyz
  1  'x, y, z'
loop_
 _atom_site_type_symbol
 _atom_site_label
 _atom_site_symmetry_multiplicity
 _atom_site_fract_x
 _atom_site_fract_y
 _atom_site_fract_z
 _atom_site_occupancy
  Zn  Zn0  1  0.13069091  0.82458934  0.04069936  1.0
  Zn  Zn1  1  0.86929299  0.67540403  0.54069893  1.0
  Zn  Zn2  1  0.86931686  0.17541214  0.95929798  1.0
  Zn  Zn3  1  0.13070344  0.32459286  0.45930123  1.0
  Zn  Zn4  1  0.54702487  0.75736551  0.04677766  1.0
  Zn  Zn5  1  0.45295325  0.74263206  0.54677558  1.0
  Zn  Zn6  1  0.45298606  0.24263505  0.95321897  1.0
  Zn  Zn7  1  0.54704003  0.25736850  0.45322282  1.0
  H  H8  1  0.87204878  0.68394495  0.16233688  1.0
  H  H9  1  0.12793353  0.81605181  0.66233603  1.0
  H  H10  1  0.12794842  0.31606431  0.83766399  1.0
  H  H11  1  0.87206287  0.18394235  0.33766661  1.0
  H  H12  1  0.44487826  0.64301467  0.20005756  1.0
  H  H13  1  0.55510616  0.85698212  0.70005308  1.0
  H  H14  1  0.55512297  0.35698910  0.79994260  1.0
  H  H15  1  0.44488412  0.14301066  0.29994638  1.0
  H  H16  1  0.52685208  0.69108999  0.12688322  1.0
  H  H17  1  0.47313297  0.80890540  0.62687831  1.0
  H  H18  1  0.47315862  0.30891102  0.87311659  1.0
  H  H19  1  0.52685936  0.19108876  0.37312079  1.0
  H  H20  1  0.84802328  0.69404661  0.24352178  1.0
  H  H21  1  0.15197604  0.80595805  0.74351880  1.0
  H  H22  1  0.15198117  0.30596448  0.75648050  1.0
  H  H23  1  0.84802828  0.19403655  0.25648242  1.0
  H  H24  1  0.01857550  0.57095392  0.35880908  1.0
  H  H25  1  0.98141827  0.92905038  0.85880762  1.0
  H  H26  1  0.98142054  0.42905214  0.64119003  1.0
  H  H27  1  0.01858792  0.07095155  0.14118972  1.0
  H  H28  1  0.35639774  0.56731698  0.23481798  1.0
  H  H29  1  0.64357822  0.93267613  0.73481773  1.0
  H  H30  1  0.64360285  0.43269091  0.76518183  1.0
  H  H31  1  0.35641022  0.06731207  0.26518384  1.0
  H  H32  1  0.56032817  0.67135145  0.26928168  1.0
  H  H33  1  0.43966262  0.82864026  0.76928391  1.0
  H  H34  1  0.43966805  0.32864865  0.73071919  1.0
  H  H35  1  0.56033423  0.17135298  0.23071590  1.0
  H  H36  1  0.27581852  0.70208610  0.31574379  1.0
  H  H37  1  0.72417066  0.79789476  0.81574575  1.0
  H  H38  1  0.72417669  0.29789935  0.68425885  1.0
  H  H39  1  0.27583275  0.20209893  0.18425052  1.0
  H  H40  1  0.87726446  0.65291374  0.39802663  1.0
  H  H41  1  0.12272995  0.84709382  0.89802640  1.0
  H  H42  1  0.12273250  0.34709324  0.60197389  1.0
  H  H43  1  0.87728031  0.15290811  0.10197482  1.0
  H  H44  1  0.16505872  0.46649394  0.35696917  1.0
  H  H45  1  0.83493408  0.03351114  0.85696478  1.0
  H  H46  1  0.83492854  0.53351624  0.64303418  1.0
  H  H47  1  0.16507096  0.96648759  0.14303255  1.0
  H  H48  1  0.81929915  0.48943303  0.33341215  1.0
  H  H49  1  0.18069897  0.01056396  0.83341530  1.0
  H  H50  1  0.18069957  0.51056754  0.66658943  1.0
  H  H51  1  0.81930493  0.98943431  0.16658557  1.0
  H  H52  1  0.57305234  0.56032429  0.29375232  1.0
  H  H53  1  0.42693698  0.93967049  0.79375592  1.0
  H  H54  1  0.42695111  0.43967490  0.70624572  1.0
  H  H55  1  0.57306081  0.06032641  0.20624460  1.0
  H  H56  1  0.28839592  0.71139475  0.44067311  1.0
  H  H57  1  0.71158803  0.78859458  0.94067847  1.0
  H  H58  1  0.71159434  0.28859528  0.55932705  1.0
  H  H59  1  0.28842467  0.21140232  0.05931851  1.0
  H  H60  1  0.70479185  0.36702482  0.40426755  1.0
  H  H61  1  0.29520331  0.13298086  0.90426418  1.0
  H  H62  1  0.29519221  0.63298078  0.59573509  1.0
  H  H63  1  0.70479631  0.86702062  0.09573033  1.0
  H  H64  1  0.64569674  0.66885442  0.97650709  1.0
  H  H65  1  0.35429251  0.83114773  0.47650702  1.0
  H  H66  1  0.35431261  0.33114660  0.02349166  1.0
  H  H67  1  0.64570263  0.16885741  0.52349138  1.0
  H  H68  1  0.71149294  0.64345958  0.02597999  1.0
  H  H69  1  0.28849931  0.85654001  0.52598191  1.0
  H  H70  1  0.28851434  0.35653732  0.97401734  1.0
  H  H71  1  0.71150821  0.14345917  0.47401967  1.0
  H  H72  1  0.02761492  0.93974716  0.02817308  1.0
  H  H73  1  0.97239097  0.56024696  0.52817266  1.0
  H  H74  1  0.97239194  0.06025340  0.97182567  1.0
  H  H75  1  0.02761112  0.43975223  0.47182892  1.0
  H  H76  1  0.87304011  0.91593726  0.05656913  1.0
  H  H77  1  0.12694983  0.58406226  0.55657383  1.0
  H  H78  1  0.12695681  0.08406422  0.94342715  1.0
  H  H79  1  0.87304481  0.41593830  0.44342952  1.0
  C  C80  1  0.90772037  0.73913507  0.08143523  1.0
  C  C81  1  0.09226309  0.76086112  0.58143265  1.0
  C  C82  1  0.09229102  0.26086732  0.91856246  1.0
  C  C83  1  0.90773289  0.23913670  0.41856680  1.0
  C  C84  1  0.06012366  0.71420693  0.11345577  1.0
  C  C85  1  0.93986549  0.78578966  0.61345490  1.0
  C  C86  1  0.93988912  0.28579821  0.88654333  1.0
  C  C87  1  0.06013116  0.21420678  0.38654738  1.0
  C  C88  1  0.01666955  0.68571204  0.15553633  1.0
  C  C89  1  0.98331830  0.81428371  0.65553308  1.0
  C  C90  1  0.98333669  0.31429538  0.84446454  1.0
  C  C91  1  0.01667268  0.18571044  0.34446885  1.0
  C  C92  1  0.15080715  0.66022257  0.18781939  1.0
  C  C93  1  0.84917711  0.83977314  0.68781622  1.0
  C  C94  1  0.84919546  0.33978394  0.81218184  1.0
  C  C95  1  0.15081927  0.16021827  0.31218536  1.0
  C  C96  1  0.33550991  0.66227422  0.17582254  1.0
  C  C97  1  0.66447737  0.83772225  0.67581899  1.0
  C  C98  1  0.66449200  0.33773092  0.82417833  1.0
  C  C99  1  0.33551563  0.16227053  0.32418294  1.0
  C  C100  1  0.38277624  0.68959930  0.13464661  1.0
  C  C101  1  0.61721372  0.81039527  0.63464191  1.0
  C  C102  1  0.61722928  0.31040401  0.86535320  1.0
  C  C103  1  0.38278471  0.18959751  0.36535790  1.0
  C  C104  1  0.24724255  0.71731431  0.10273525  1.0
  C  C105  1  0.75273520  0.78268214  0.60273187  1.0
  C  C106  1  0.75276524  0.28268991  0.89726456  1.0
  C  C107  1  0.24725580  0.21731476  0.39726936  1.0
  C  C108  1  0.10636911  0.63349885  0.23343893  1.0
  C  C109  1  0.89361385  0.86650203  0.73343725  1.0
  C  C110  1  0.89363103  0.36650996  0.76656264  1.0
  C  C111  1  0.10637305  0.13349213  0.26656468  1.0
  C  C112  1  0.94415847  0.65597029  0.25824670  1.0
  C  C113  1  0.05583863  0.84403227  0.75824513  1.0
  C  C114  1  0.05584621  0.34404034  0.74175453  1.0
  C  C115  1  0.94416162  0.15596234  0.24175645  1.0
  C  C116  1  0.90968546  0.63325277  0.30317278  1.0
  C  C117  1  0.09031027  0.86674945  0.80317014  1.0
  C  C118  1  0.09031513  0.36675512  0.69682774  1.0
  C  C119  1  0.90969318  0.13324973  0.19683073  1.0
  C  C120  1  0.04181273  0.58762376  0.32339542  1.0
  C  C121  1  0.95817656  0.91238010  0.82339336  1.0
  C  C122  1  0.95818289  0.41238597  0.67660474  1.0
  C  C123  1  0.04182734  0.08761817  0.17660610  1.0
  C  C124  1  0.20512264  0.56451045  0.29959994  1.0
  C  C125  1  0.79486589  0.93548944  0.79959819  1.0
  C  C126  1  0.79487454  0.43549607  0.70040022  1.0
  C  C127  1  0.20513347  0.06450700  0.20040092  1.0
  C  C128  1  0.23325692  0.58696063  0.25433011  1.0
  C  C129  1  0.76672615  0.91303684  0.75432909  1.0
  C  C130  1  0.76674389  0.41304680  0.74567076  1.0
  C  C131  1  0.23326751  0.08695456  0.24567284  1.0
  C  C132  1  0.74138274  0.65739431  0.33008425  1.0
  C  C133  1  0.25861431  0.84260551  0.83008416  1.0
  C  C134  1  0.25862098  0.34260992  0.66991662  1.0
  C  C135  1  0.74139343  0.15739322  0.16991424  1.0
  C  C136  1  0.56917957  0.67416165  0.30773829  1.0
  C  C137  1  0.43080998  0.82583147  0.80773940  1.0
  C  C138  1  0.43081371  0.32583891  0.69226293  1.0
  C  C139  1  0.56919254  0.17416406  0.19225900  1.0
  C  C140  1  0.40877716  0.69172390  0.33333333  1.0
  C  C141  1  0.59120865  0.80826314  0.83334775  1.0
  C  C142  1  0.59121515  0.30826750  0.66666667  1.0
  C  C143  1  0.40879636  0.19173284  0.16664923  1.0
  C  C144  1  0.41456052  0.69468119  0.38291519  1.0
  C  C145  1  0.58542508  0.80530923  0.88291705  1.0
  C  C146  1  0.58542705  0.30531159  0.61708639  1.0
  C  C147  1  0.41458491  0.19468766  0.11708170  1.0
  C  C148  1  0.58742703  0.68090168  0.40612514  1.0
  C  C149  1  0.41256138  0.81909682  0.90612752  1.0
  C  C150  1  0.41256443  0.31909705  0.59387503  1.0
  C  C151  1  0.58745068  0.18090419  0.09387193  1.0
  C  C152  1  0.74665672  0.66217616  0.37921791  1.0
  C  C153  1  0.25333852  0.83782749  0.87921845  1.0
  C  C154  1  0.25334248  0.33782898  0.62078225  1.0
  C  C155  1  0.74667083  0.16217353  0.12078065  1.0
  C  C156  1  0.60550338  0.68782921  0.45776727  1.0
  C  C157  1  0.39447718  0.81216629  0.95776775  1.0
  C  C158  1  0.39448715  0.31216586  0.54223396  1.0
  C  C159  1  0.60553939  0.18783381  0.04223029  1.0
  C  C160  1  0.34916512  0.51956202  0.32237081  1.0
  C  C161  1  0.65082906  0.98043724  0.82236857  1.0
  C  C162  1  0.65083613  0.48044449  0.67763148  1.0
  C  C163  1  0.34916668  0.01955829  0.17763088  1.0
  C  C164  1  0.30714159  0.47291860  0.35159895  1.0
  C  C165  1  0.69285227  0.02708366  0.85159502  1.0
  C  C166  1  0.69285176  0.52709021  0.64840475  1.0
  C  C167  1  0.30714936  0.97291370  0.14840338  1.0
  C  C168  1  0.44532238  0.43161575  0.37391644  1.0
  C  C169  1  0.55467464  0.06838817  0.87391273  1.0
  C  C170  1  0.55466419  0.56839306  0.62608797  1.0
  C  C171  1  0.44532745  0.93161102  0.12608461  1.0
  C  C172  1  0.63186404  0.43822334  0.36763919  1.0
  C  C173  1  0.36813492  0.06177866  0.86763682  1.0
  C  C174  1  0.36812431  0.56178180  0.63236663  1.0
  C  C175  1  0.63186832  0.93822098  0.13236263  1.0
  C  C176  1  0.67565062  0.48472564  0.33840645  1.0
  C  C177  1  0.32434098  0.01527416  0.83840701  1.0
  C  C178  1  0.32433931  0.51527904  0.66159690  1.0
  C  C179  1  0.67565863  0.98472457  0.16159351  1.0
  C  C180  1  0.53634791  0.52399010  0.31592875  1.0
  C  C181  1  0.46364368  0.97600816  0.81593000  1.0
  C  C182  1  0.46365288  0.47601458  0.68407212  1.0
  C  C183  1  0.53635590  0.02398782  0.18407052  1.0
  C  C184  1  0.39672550  0.38130397  0.40330263  1.0
  C  C185  1  0.60328001  0.11869986  0.90330029  1.0
  C  C186  1  0.60326421  0.61870117  0.59669789  1.0
  C  C187  1  0.39672685  0.88130070  0.09669527  1.0
  O  O188  1  0.29484345  0.74441720  0.06337566  1.0
  O  O189  1  0.70513933  0.75557829  0.56337114  1.0
  O  O190  1  0.70516681  0.25558473  0.93662379  1.0
  O  O191  1  0.29485687  0.24441907  0.43662761  1.0
  O  O192  1  0.91674805  0.78222165  0.05164081  1.0
  O  O193  1  0.08323617  0.71777232  0.55163920  1.0
  O  O194  1  0.08326783  0.21777708  0.94835334  1.0
  O  O195  1  0.91675688  0.28222595  0.44836096  1.0
  O  O196  1  0.75864499  0.71601341  0.08453068  1.0
  O  O197  1  0.24133547  0.78398373  0.58452819  1.0
  O  O198  1  0.24136302  0.28399035  0.91546736  1.0
  O  O199  1  0.75865984  0.21601546  0.41547162  1.0
  O  O200  1  0.25438728  0.71065477  0.40649315  1.0
  O  O201  1  0.74559924  0.78933091  0.90649617  1.0
  O  O202  1  0.74560477  0.28933160  0.59350914  1.0
  O  O203  1  0.25441325  0.21066644  0.09350046  1.0
  O  O204  1  0.45731442  0.71001655  0.48091665  1.0
  O  O205  1  0.54267386  0.78997970  0.98091890  1.0
  O  O206  1  0.54267771  0.28998081  0.51908387  1.0
  O  O207  1  0.45734203  0.21001902  0.01907985  1.0
  O  O208  1  0.76285568  0.67266868  0.47654099  1.0
  O  O209  1  0.23713074  0.82731974  0.97653960  1.0
  O  O210  1  0.23713594  0.32732135  0.52346129  1.0
  O  O211  1  0.76288653  0.17268174  0.02345879  1.0
  O  O212  1  0.22848526  0.37997954  0.41221887  1.0
  O  O213  1  0.77152180  0.12002212  0.91221578  1.0
  O  O214  1  0.77149922  0.62002240  0.58778235  1.0
  O  O215  1  0.22848641  0.87997844  0.08778014  1.0
  O  O216  1  0.53146408  0.34128023  0.41855950  1.0
  O  O217  1  0.46854673  0.15872563  0.91855597  1.0
  O  O218  1  0.46851384  0.65872126  0.58143748  1.0
  O  O219  1  0.53146740  0.84127950  0.08143677  1.0
  O  O220  1  0.77009319  0.39990073  0.38949907  1.0
  O  O221  1  0.22990913  0.10010247  0.88949619  1.0
  O  O222  1  0.22989629  0.60010487  0.61050675  1.0
  O  O223  1  0.77009908  0.89989809  0.11050115  1.0
  O  O224  1  0.60279084  0.66189835  0.00832037  1.0
  O  O225  1  0.39719870  0.83809918  0.50832253  1.0
  O  O226  1  0.39721737  0.33810221  0.99167802  1.0
  O  O227  1  0.60280090  0.16189954  0.49167764  1.0
  O  O228  1  0.94145067  0.91078875  0.02607366  1.0
  O  O229  1  0.05854880  0.58920717  0.52607744  1.0
  O  O230  1  0.05855483  0.08921180  0.97392297  1.0
  O  O231  1  0.94145194  0.41079202  0.47392626  1.0
