# generated using pymatgen
data_MgH7C13(NO)3
_symmetry_space_group_name_H-M   'P 1'
_cell_length_a   6.84227903
_cell_length_b   41.32999230
_cell_length_c   41.33055728
_cell_angle_alpha   119.69590627
_cell_angle_beta   93.16464825
_cell_angle_gamma   93.16304644
_symmetry_Int_Tables_number   1
_chemical_formula_structural   MgH7C13(NO)3
_chemical_formula_sum   'Mg6 H42 C78 N18 O18'
_cell_volume   10091.43712197
_cell_formula_units_Z   6
loop_
 _symmetry_equiv_pos_site_id
 _symmetry_equiv_pos_as_xyz
  1  'x, y, z'
loop_
 _atom_site_type_symbol
 _atom_site_label
 _atom_site_symmetry_multiplicity
 _atom_site_fract_x
 _atom_site_fract_y
 _atom_site_fract_z
 _atom_site_occupancy
  Mg  Mg0  1  0.11276163  0.68701368  0.32525200  1.0
  Mg  Mg1  1  0.42567790  0.63822365  0.31298346  1.0
  Mg  Mg2  1  0.78744053  0.67474029  0.36174972  1.0
  Mg  Mg3  1  0.28957810  0.30960333  0.66981598  1.0
  Mg  Mg4  1  0.97995749  0.36021479  0.69040219  1.0
  Mg  Mg5  1  0.61981256  0.33016988  0.63977855  1.0
  H  H6  1  0.65677706  0.57090900  0.20841970  1.0
  H  H7  1  0.08583077  0.63753187  0.42910556  1.0
  H  H8  1  0.44840037  0.79159095  0.36250097  1.0
  H  H9  1  0.83850919  0.54093482  0.15111968  1.0
  H  H10  1  0.29754370  0.61019765  0.45908102  1.0
  H  H11  1  0.68749940  0.84888436  0.38982092  1.0
  H  H12  1  0.36802508  0.60772108  0.21762050  1.0
  H  H13  1  0.76023665  0.60989252  0.39228200  1.0
  H  H14  1  0.15052387  0.78236624  0.39009463  1.0
  H  H15  1  0.54490167  0.55518531  0.12587857  1.0
  H  H16  1  0.98972499  0.57068467  0.44481661  1.0
  H  H17  1  0.41909140  0.87413909  0.42931065  1.0
  H  H18  1  0.75748046  0.52738825  0.07265457  1.0
  H  H19  1  0.23006142  0.54524476  0.47261087  1.0
  H  H20  1  0.68486144  0.92736694  0.45473649  1.0
  H  H21  1  0.24847555  0.46249271  0.99680511  1.0
  H  H22  1  0.78596564  0.53429189  0.53750678  1.0
  H  H23  1  0.25154826  0.00319798  0.46568175  1.0
  H  H24  1  0.03601423  0.49040937  0.05003202  1.0
  H  H25  1  0.54560073  0.55960640  0.50957380  1.0
  H  H26  1  0.98588270  0.94995193  0.44037653  1.0
  H  H27  1  0.47243520  0.40212317  0.90551649  1.0
  H  H28  1  0.07023891  0.50340535  0.59789643  1.0
  H  H29  1  0.56681625  0.09446992  0.49658638  1.0
  H  H30  1  0.67763280  0.37867828  0.85047704  1.0
  H  H31  1  0.29895602  0.47181007  0.62136032  1.0
  H  H32  1  0.82705579  0.14953653  0.52819702  1.0
  H  H33  1  0.14826569  0.46248043  0.92012124  1.0
  H  H34  1  0.68567460  0.45761839  0.53751846  1.0
  H  H35  1  0.22807864  0.07988559  0.54234992  1.0
  H  H36  1  0.94635633  0.48519004  0.97510991  1.0
  H  H37  1  0.46104966  0.48991233  0.51482520  1.0
  H  H38  1  0.97121138  0.02488733  0.51007216  1.0
  H  H39  1  0.53796688  0.44477289  0.85114095  1.0
  H  H40  1  0.09316587  0.40639194  0.55523418  1.0
  H  H41  1  0.68681960  0.14883121  0.59361811  1.0
  H  H42  1  0.73120020  0.41987078  0.79493106  1.0
  H  H43  1  0.31139879  0.37506664  0.58012339  1.0
  H  H44  1  0.93639840  0.20504196  0.62492829  1.0
  H  H45  1  0.02850935  0.37362587  0.78051871  1.0
  H  H46  1  0.65481472  0.40687835  0.62637254  1.0
  H  H47  1  0.24807330  0.21948095  0.59310605  1.0
  C  C48  1  0.78703668  0.62223056  0.27702288  1.0
  C  C49  1  0.16481439  0.65479646  0.37776662  1.0
  C  C50  1  0.51008480  0.72296916  0.34519325  1.0
  C  C51  1  0.90645993  0.60661162  0.24494453  1.0
  C  C52  1  0.29986582  0.63836106  0.39341018  1.0
  C  C53  1  0.66160105  0.75505005  0.36163727  1.0
  C  C54  1  0.81264367  0.57894210  0.20973910  1.0
  C  C55  1  0.23373136  0.63083969  0.42109638  1.0
  C  C56  1  0.60297947  0.79026320  0.36918821  1.0
  C  C57  1  0.91157561  0.56230015  0.17804078  1.0
  C  C58  1  0.34930609  0.61578539  0.43774126  1.0
  C  C59  1  0.73367419  0.82195517  0.38424090  1.0
  C  C60  1  0.11421440  0.57324206  0.18131235  1.0
  C  C61  1  0.54095718  0.60809186  0.42677943  1.0
  C  C62  1  0.93304557  0.81867548  0.39190138  1.0
  C  C63  1  0.21121819  0.60008225  0.21581787  1.0
  C  C64  1  0.61110385  0.61573914  0.39992804  1.0
  C  C65  1  0.99554702  0.78416998  0.38423925  1.0
  C  C66  1  0.11196274  0.61778381  0.24825691  1.0
  C  C67  1  0.49415852  0.63048231  0.38222564  1.0
  C  C68  1  0.86376826  0.75173538  0.36949881  1.0
  C  C69  1  0.27922502  0.52396855  0.09103969  1.0
  C  C70  1  0.75527080  0.56704293  0.47602021  1.0
  C  C71  1  0.18820709  0.90896580  0.43293416  1.0
  C  C72  1  0.48303254  0.53474507  0.09761341  1.0
  C  C73  1  0.94831117  0.56285149  0.46525295  1.0
  C  C74  1  0.38550612  0.90240264  0.43712643  1.0
  C  C75  1  0.59945050  0.51946155  0.06821984  1.0
  C  C76  1  0.07994882  0.54872446  0.48052805  1.0
  C  C77  1  0.53127376  0.93180413  0.45124161  1.0
  C  C78  1  0.51525212  0.49329380  0.03179596  1.0
  C  C79  1  0.02188199  0.53846212  0.50669317  1.0
  C  C80  1  0.48336803  0.96821956  0.46150829  1.0
  C  C81  1  0.31108914  0.48265242  0.02513206  1.0
  C  C82  1  0.82838868  0.54243090  0.51732723  1.0
  C  C83  1  0.28584587  0.97487506  0.45752933  1.0
  C  C84  1  0.19439900  0.49805905  0.05458414  1.0
  C  C85  1  0.69632184  0.55648009  0.50191395  1.0
  C  C86  1  0.13974217  0.94541620  0.44348792  1.0
  C  C87  1  0.69833245  0.44459766  0.94322610  1.0
  C  C88  1  0.25368296  0.49862283  0.55543118  1.0
  C  C89  1  0.75508196  0.05678194  0.50135891  1.0
  C  C90  1  0.62145634  0.41453970  0.90821983  1.0
  C  C91  1  0.20690048  0.49369775  0.58550368  1.0
  C  C92  1  0.71317688  0.09178642  0.50629819  1.0
  C  C93  1  0.73384256  0.40170872  0.87802793  1.0
  C  C94  1  0.33208987  0.47632450  0.59832374  1.0
  C  C95  1  0.85569023  0.12198249  0.52366449  1.0
  C  C96  1  0.92227399  0.41944050  0.88219222  1.0
  C  C97  1  0.50271753  0.46273946  0.58057518  1.0
  C  C98  1  0.03993883  0.11781085  0.53723325  1.0
  C  C99  1  0.00100242  0.44944887  0.91751470  1.0
  C  C100  1  0.55142706  0.46803501  0.55055043  1.0
  C  C101  1  0.08341026  0.08248768  0.53192271  1.0
  C  C102  1  0.89037585  0.46183641  0.94772183  1.0
  C  C103  1  0.42840722  0.48586546  0.53817363  1.0
  C  C104  1  0.94261959  0.05227209  0.51409539  1.0
  C  C105  1  0.27429151  0.40973807  0.81905304  1.0
  C  C106  1  0.86461086  0.40935030  0.59029745  1.0
  C  C107  1  0.45526936  0.18092827  0.59066507  1.0
  C  C108  1  0.47140760  0.42404779  0.82335671  1.0
  C  C109  1  0.04745025  0.39936404  0.57598975  1.0
  C  C110  1  0.64811082  0.17661686  0.60066546  1.0
  C  C111  1  0.57655758  0.41037180  0.79232780  1.0
  C  C112  1  0.16632851  0.38200614  0.58965330  1.0
  C  C113  1  0.78436646  0.20763809  0.61801489  1.0
  C  C114  1  0.48928453  0.38376893  0.75634887  1.0
  C  C115  1  0.10566513  0.37262519  0.61625651  1.0
  C  C116  1  0.73310931  0.24362151  0.62738948  1.0
  C  C117  1  0.61492260  0.37112993  0.72516652  1.0
  C  C118  1  0.24379049  0.35405353  0.62888195  1.0
  C  C119  1  0.88982914  0.27481173  0.64595391  1.0
  C  C120  1  0.28451365  0.37077209  0.75157173  1.0
  C  C121  1  0.91385992  0.38082490  0.62925511  1.0
  C  C122  1  0.53313803  0.24841554  0.61917783  1.0
  C  C123  1  0.18244703  0.38378462  0.78362216  1.0
  C  C124  1  0.79868117  0.39985575  0.61623930  1.0
  C  C125  1  0.39893485  0.21636773  0.60013898  1.0
  N  N126  1  0.23659176  0.55864184  0.15192847  1.0
  N  N127  1  0.67792414  0.59328078  0.44135628  1.0
  N  N128  1  0.08477881  0.84806572  0.40670363  1.0
  N  N129  1  0.14943803  0.53800357  0.11935195  1.0
  N  N130  1  0.61145054  0.58134419  0.46199872  1.0
  N  N131  1  0.03016419  0.88064101  0.41865207  1.0
  N  N132  1  0.64757479  0.48018772  0.00409748  1.0
  N  N133  1  0.16736217  0.52388892  0.51981915  1.0
  N  N134  1  0.64340140  0.99591730  0.47609312  1.0
  N  N135  1  0.57001426  0.45623026  0.97148110  1.0
  N  N136  1  0.11375398  0.51524364  0.54378696  1.0
  N  N137  1  0.59846678  0.02853219  0.48474744  1.0
  N  N138  1  0.01800355  0.40553589  0.84925739  1.0
  N  N139  1  0.61241641  0.44371782  0.59448282  1.0
  N  N140  1  0.16866903  0.15074565  0.55627440  1.0
  N  N141  1  0.18083838  0.42364793  0.85242392  1.0
  N  N142  1  0.75714243  0.42878130  0.57636765  1.0
  N  N143  1  0.32831875  0.14756845  0.57122057  1.0
  O  O144  1  0.60867504  0.60965313  0.27380631  1.0
  O  O145  1  0.99898990  0.66414593  0.39033337  1.0
  O  O146  1  0.33490810  0.72619798  0.33585685  1.0
  O  O147  1  0.86744346  0.64951122  0.30872497  1.0
  O  O148  1  0.21793609  0.65922257  0.35048690  1.0
  O  O149  1  0.55873658  0.69125914  0.34076456  1.0
  O  O150  1  0.21483652  0.64377064  0.28022807  1.0
  O  O151  1  0.57100615  0.63644288  0.35621875  1.0
  O  O152  1  0.93453184  0.71976071  0.36353928  1.0
  O  O153  1  0.79433961  0.38402882  0.73062188  1.0
  O  O154  1  0.41033358  0.34660822  0.61599256  1.0
  O  O155  1  0.06379109  0.26936625  0.65340839  1.0
  O  O156  1  0.53931063  0.34614150  0.69193204  1.0
  O  O157  1  0.19305778  0.34578122  0.65384545  1.0
  O  O158  1  0.84741628  0.30804998  0.65421311  1.0
  O  O159  1  0.18554017  0.34700977  0.71817453  1.0
  O  O160  1  0.83866230  0.37117371  0.65300545  1.0
  O  O161  1  0.46754138  0.28181491  0.62883323  1.0
