# generated using pymatgen
data_ZnH19C26N3O4
_symmetry_space_group_name_H-M   'P 1'
_cell_length_a   17.17357736
_cell_length_b   18.25246287
_cell_length_c   19.66301259
_cell_angle_alpha   89.98173757
_cell_angle_beta   88.33648378
_cell_angle_gamma   84.81006202
_symmetry_Int_Tables_number   1
_chemical_formula_structural   ZnH19C26N3O4
_chemical_formula_sum   'Zn2 H38 C52 N6 O8'
_cell_volume   6135.69729285
_cell_formula_units_Z   2
loop_
 _symmetry_equiv_pos_site_id
 _symmetry_equiv_pos_as_xyz
  1  'x, y, z'
loop_
 _atom_site_type_symbol
 _atom_site_label
 _atom_site_symmetry_multiplicity
 _atom_site_fract_x
 _atom_site_fract_y
 _atom_site_fract_z
 _atom_site_occupancy
  Zn  Zn0  1  0.49674683  0.57560326  0.50249499  1.0
  Zn  Zn1  1  0.50118807  0.42312311  0.50243805  1.0
  H  H2  1  0.73866089  0.59944760  0.47913146  1.0
  H  H3  1  0.58707913  0.16238027  0.42167791  1.0
  H  H4  1  0.41460085  0.69987801  0.57794319  1.0
  H  H5  1  0.58293389  0.30003762  0.42550345  1.0
  H  H6  1  0.48020936  0.93360218  0.61003401  1.0
  H  H7  1  0.51906692  0.06497976  0.39225661  1.0
  H  H8  1  0.47655081  0.06898518  0.60941216  1.0
  H  H9  1  0.52281196  0.92959269  0.39288714  1.0
  H  H10  1  0.88538286  0.59596230  0.47486886  1.0
  H  H11  1  0.11670621  0.40453101  0.47282666  1.0
  H  H12  1  0.24268930  0.63466907  0.51636756  1.0
  H  H13  1  0.26147888  0.40045642  0.49089238  1.0
  H  H14  1  0.75379162  0.36438685  0.46244544  1.0
  H  H15  1  0.49585503  0.38383973  0.28587206  1.0
  H  H16  1  0.50349964  0.61552973  0.71848000  1.0
  H  H17  1  0.50178642  0.38292922  0.15901606  1.0
  H  H18  1  0.49942390  0.61712593  0.84529168  1.0
  H  H19  1  0.48602040  0.61994019  0.15932154  1.0
  H  H20  1  0.51407557  0.38019575  0.84621997  1.0
  H  H21  1  0.41362988  0.59529380  0.06427230  1.0
  H  H22  1  0.58810550  0.40524099  0.94068344  1.0
  H  H23  1  0.02891324  0.64839452  0.49153454  1.0
  H  H24  1  0.41852634  0.59395071  0.93881769  1.0
  H  H25  1  0.06459347  0.76646118  0.50938475  1.0
  H  H26  1  0.16042667  0.73820667  0.47712631  1.0
  H  H27  1  0.13635210  0.72567380  0.56497244  1.0
  H  H28  1  0.97011659  0.35141518  0.45599875  1.0
  H  H29  1  0.93208090  0.23282754  0.45077232  1.0
  H  H30  1  0.84430003  0.26722943  0.41141639  1.0
  H  H31  1  0.84878521  0.26579855  0.50193276  1.0
  H  H32  1  0.47863237  0.61936367  0.28616721  1.0
  H  H33  1  0.51932155  0.37996307  0.71939052  1.0
  H  H34  1  0.58329070  0.40666802  0.06615749  1.0
  H  H35  1  0.58839720  0.68332458  0.42768851  1.0
  H  H36  1  0.40948403  0.31424790  0.57607018  1.0
  H  H37  1  0.59372149  0.82021047  0.42376331  1.0
  H  H38  1  0.40469907  0.17734047  0.57864388  1.0
  H  H39  1  0.41096709  0.83749185  0.58037958  1.0
  C  C40  1  0.51232207  0.49744974  0.63496312  1.0
  C  C41  1  0.51531530  0.43155407  0.74768565  1.0
  C  C42  1  0.48696310  0.50159911  0.29356180  1.0
  C  C43  1  0.51162936  0.49771331  0.71122150  1.0
  C  C44  1  0.45302607  0.55415009  0.03733628  1.0
  C  C45  1  0.54871721  0.44640063  0.96761373  1.0
  C  C46  1  0.45580942  0.55338574  0.96656115  1.0
  C  C47  1  0.54596601  0.44719404  0.03839644  1.0
  C  C48  1  0.50365687  0.49945786  0.93011121  1.0
  C  C49  1  0.49795680  0.50100247  0.07483749  1.0
  C  C50  1  0.55021641  0.72025277  0.46023644  1.0
  C  C51  1  0.48530705  0.50153198  0.36976106  1.0
  C  C52  1  0.44782003  0.27785641  0.54317571  1.0
  C  C53  1  0.55233316  0.79614318  0.45829015  1.0
  C  C54  1  0.44598969  0.20193232  0.54438622  1.0
  C  C55  1  0.34573115  0.51452610  0.51413587  1.0
  C  C56  1  0.65159969  0.48420740  0.47997054  1.0
  C  C57  1  0.50232327  0.84084497  0.50199447  1.0
  C  C58  1  0.49625379  0.15780330  0.50040435  1.0
  C  C59  1  0.45209896  0.80558866  0.54626980  1.0
  C  C60  1  0.54599964  0.19373361  0.45622625  1.0
  C  C61  1  0.45323771  0.72948118  0.54508034  1.0
  C  C62  1  0.49770574  0.43502820  0.18662788  1.0
  C  C63  1  0.54460016  0.26986095  0.45815818  1.0
  C  C64  1  0.48759476  0.96237018  0.56198505  1.0
  C  C65  1  0.51172404  0.03623090  0.44030229  1.0
  C  C66  1  0.48550238  0.03867571  0.56162743  1.0
  C  C67  1  0.51384027  0.95991925  0.44066052  1.0
  C  C68  1  0.49752674  0.07694121  0.50073866  1.0
  C  C69  1  0.50163538  0.92166302  0.50152189  1.0
  C  C70  1  0.25899712  0.51763487  0.50542739  1.0
  C  C71  1  0.73890682  0.48167393  0.47147413  1.0
  C  C72  1  0.22426837  0.45197911  0.49286288  1.0
  C  C73  1  0.50294405  0.56486254  0.81793979  1.0
  C  C74  1  0.77532778  0.54783742  0.47377449  1.0
  C  C75  1  0.14484105  0.45442295  0.48264635  1.0
  C  C76  1  0.85594815  0.54577311  0.47139343  1.0
  C  C77  1  0.09758832  0.52163229  0.48465760  1.0
  C  C78  1  0.90277755  0.47847495  0.46614317  1.0
  C  C79  1  0.13275737  0.58878025  0.49664123  1.0
  C  C80  1  0.86606259  0.41119478  0.46039717  1.0
  C  C81  1  0.21385241  0.58503907  0.50723742  1.0
  C  C82  1  0.78370782  0.41441795  0.46408163  1.0
  C  C83  1  0.49389761  0.43513466  0.25735272  1.0
  C  C84  1  0.49433054  0.50138718  0.14991779  1.0
  C  C85  1  0.50566231  0.56435536  0.74718091  1.0
  C  C86  1  0.11364105  0.72396727  0.51302791  1.0
  C  C87  1  0.88251553  0.27506007  0.45448675  1.0
  C  C88  1  0.50658364  0.49873130  0.85501403  1.0
  C  C89  1  0.48702907  0.56787502  0.18675063  1.0
  C  C90  1  0.51296925  0.43206356  0.81847318  1.0
  C  C91  1  0.48347642  0.56799180  0.25751327  1.0
  N  N92  1  0.01715741  0.52964437  0.47746229  1.0
  N  N93  1  0.98381269  0.47034302  0.46892263  1.0
  N  N94  1  0.50136832  0.68761615  0.50276319  1.0
  N  N95  1  0.49659043  0.31111058  0.50107087  1.0
  N  N96  1  0.08674342  0.65361321  0.49716395  1.0
  N  N97  1  0.91188363  0.34657857  0.45281548  1.0
  O  O98  1  0.50978300  0.55973264  0.60534488  1.0
  O  O99  1  0.48935295  0.43905723  0.39907355  1.0
  O  O100  1  0.51467928  0.43511795  0.60538249  1.0
  O  O101  1  0.48086528  0.56382285  0.39954911  1.0
  O  O102  1  0.37679787  0.57524580  0.51762563  1.0
  O  O103  1  0.62086065  0.42330863  0.48461666  1.0
  O  O104  1  0.38248599  0.45062356  0.51604749  1.0
  O  O105  1  0.61446666  0.54797324  0.48307305  1.0
