# generated using pymatgen
data_CoH8(C3N)4
_symmetry_space_group_name_H-M   'P 1'
_cell_length_a   13.33618727
_cell_length_b   13.33618883
_cell_length_c   13.98188971
_cell_angle_alpha   90.00010780
_cell_angle_beta   90.00006049
_cell_angle_gamma   89.99992220
_symmetry_Int_Tables_number   1
_chemical_formula_structural   CoH8(C3N)4
_chemical_formula_sum   'Co4 H32 C48 N16'
_cell_volume   2486.73377794
_cell_formula_units_Z   4
loop_
 _symmetry_equiv_pos_site_id
 _symmetry_equiv_pos_as_xyz
  1  'x, y, z'
loop_
 _atom_site_type_symbol
 _atom_site_label
 _atom_site_symmetry_multiplicity
 _atom_site_fract_x
 _atom_site_fract_y
 _atom_site_fract_z
 _atom_site_occupancy
  Co  Co0  1  0.01067136  0.01067067  0.87500054  1.0
  Co  Co1  1  0.98932793  0.98932840  0.37500078  1.0
  Co  Co2  1  0.01067177  0.98932731  0.12500047  1.0
  Co  Co3  1  0.98932799  0.01067200  0.62500047  1.0
  H  H4  1  0.02555967  0.77600778  0.90310256  1.0
  H  H5  1  0.95753063  0.60188888  0.60119946  1.0
  H  H6  1  0.95725107  0.41868212  0.60121218  1.0
  H  H7  1  0.95167163  0.24442919  0.60192080  1.0
  H  H8  1  0.97444266  0.22398985  0.40310432  1.0
  H  H9  1  0.04247135  0.39810963  0.10120062  1.0
  H  H10  1  0.04274867  0.58131640  0.10121365  1.0
  H  H11  1  0.04832585  0.75557008  0.10191972  1.0
  H  H12  1  0.77600898  0.97444176  0.15310362  1.0
  H  H13  1  0.60188978  0.04247093  0.85120078  1.0
  H  H14  1  0.41868299  0.04274775  0.85121356  1.0
  H  H15  1  0.24442929  0.04832592  0.85192011  1.0
  H  H16  1  0.22399156  0.02555986  0.65310432  1.0
  H  H17  1  0.39810874  0.95753109  0.35119967  1.0
  H  H18  1  0.58131553  0.95725503  0.35120906  1.0
  H  H19  1  0.75557073  0.95167460  0.35191863  1.0
  H  H20  1  0.02555883  0.22398943  0.09689561  1.0
  H  H21  1  0.95753066  0.39810782  0.39879889  1.0
  H  H22  1  0.95725084  0.58131458  0.39878761  1.0
  H  H23  1  0.95167267  0.75557127  0.39808113  1.0
  H  H24  1  0.97443939  0.77600833  0.59689548  1.0
  H  H25  1  0.04246867  0.60189056  0.89879828  1.0
  H  H26  1  0.04274698  0.41868379  0.89878667  1.0
  H  H27  1  0.04832891  0.24443086  0.89808061  1.0
  H  H28  1  0.77601002  0.02555893  0.84689600  1.0
  H  H29  1  0.60189176  0.95753150  0.14880009  1.0
  H  H30  1  0.41868422  0.95724893  0.14878713  1.0
  H  H31  1  0.24442902  0.95167174  0.14808113  1.0
  H  H32  1  0.22399149  0.97444008  0.34689761  1.0
  H  H33  1  0.39811103  0.04246862  0.64879957  1.0
  H  H34  1  0.58131857  0.04274893  0.64878536  1.0
  H  H35  1  0.75556926  0.04832837  0.64807953  1.0
  C  C36  1  0.01369566  0.79240895  0.82788097  1.0
  C  C37  1  0.97639816  0.56233041  0.66707537  1.0
  C  C38  1  0.97629025  0.45820471  0.66708029  1.0
  C  C39  1  0.97517915  0.22811274  0.67463414  1.0
  C  C40  1  0.98630658  0.20758853  0.32788272  1.0
  C  C41  1  0.02360240  0.43766824  0.16707658  1.0
  C  C42  1  0.02371030  0.54179394  0.16708167  1.0
  C  C43  1  0.02481917  0.77188592  0.17463378  1.0
  C  C44  1  0.79241017  0.98630638  0.07788276  1.0
  C  C45  1  0.56233055  0.02360282  0.91707667  1.0
  C  C46  1  0.45820483  0.02370937  0.91708163  1.0
  C  C47  1  0.22811359  0.02481854  0.92463415  1.0
  C  C48  1  0.20758954  0.01369584  0.57788343  1.0
  C  C49  1  0.43766880  0.97640084  0.41707564  1.0
  C  C50  1  0.54179451  0.97629429  0.41707784  1.0
  C  C51  1  0.77188726  0.97518363  0.42463129  1.0
  C  C52  1  0.01369568  0.20758753  0.17211718  1.0
  C  C53  1  0.97639955  0.43766776  0.33292301  1.0
  C  C54  1  0.97629000  0.54179346  0.33291952  1.0
  C  C55  1  0.97517933  0.77188693  0.32536781  1.0
  C  C56  1  0.98630339  0.79240963  0.67211638  1.0
  C  C57  1  0.02359970  0.56233122  0.83292230  1.0
  C  C58  1  0.02370849  0.45820552  0.83291864  1.0
  C  C59  1  0.02481991  0.22811429  0.82536796  1.0
  C  C60  1  0.79241056  0.01369504  0.92211758  1.0
  C  C61  1  0.56233167  0.97639891  0.08292344  1.0
  C  C62  1  0.45820596  0.97628876  0.08291910  1.0
  C  C63  1  0.22811321  0.97517915  0.07536779  1.0
  C  C64  1  0.20759029  0.98630563  0.42211849  1.0
  C  C65  1  0.43767029  0.02360256  0.58292293  1.0
  C  C66  1  0.54179600  0.02371197  0.58291726  1.0
  C  C67  1  0.77188575  0.02482157  0.57536617  1.0
  C  C68  1  0.00000004  0.72687524  0.74999851  1.0
  C  C69  1  0.00000012  0.61740243  0.74999841  1.0
  C  C70  1  0.99999876  0.40316581  0.74999966  1.0
  C  C71  1  0.99999884  0.29366676  0.75000028  1.0
  C  C72  1  0.00000136  0.27312208  0.25000012  1.0
  C  C73  1  0.00000054  0.38259564  0.24999950  1.0
  C  C74  1  0.99999984  0.59683308  0.25000089  1.0
  C  C75  1  0.99999902  0.70633288  0.25000098  1.0
  C  C76  1  0.72687614  0.00000160  0.99999972  1.0
  C  C77  1  0.61740350  0.00000140  0.00000036  1.0
  C  C78  1  0.40316618  0.99999788  0.00000040  1.0
  C  C79  1  0.29366637  0.99999796  0.00000107  1.0
  C  C80  1  0.27312473  0.00000139  0.50000056  1.0
  C  C81  1  0.38259754  0.00000207  0.49999990  1.0
  C  C82  1  0.59683419  0.00000267  0.49999786  1.0
  C  C83  1  0.70633400  0.00000410  0.49999719  1.0
  N  N84  1  0.00867390  0.88846410  0.79811398  1.0
  N  N85  1  0.98457547  0.13197960  0.70341844  1.0
  N  N86  1  0.99132756  0.11153406  0.29811556  1.0
  N  N87  1  0.01542213  0.86801912  0.20341753  1.0
  N  N88  1  0.88846459  0.99132721  0.04811502  1.0
  N  N89  1  0.13198044  0.01542390  0.95341847  1.0
  N  N90  1  0.11153509  0.00867270  0.54811630  1.0
  N  N91  1  0.86802045  0.98457758  0.45341787  1.0
  N  N92  1  0.00867259  0.11153313  0.20188489  1.0
  N  N93  1  0.98457549  0.86801931  0.29658280  1.0
  N  N94  1  0.99132651  0.88846484  0.70188354  1.0
  N  N95  1  0.01542372  0.13198036  0.79658349  1.0
  N  N96  1  0.88846502  0.00867108  0.95188470  1.0
  N  N97  1  0.13198001  0.98457692  0.04658338  1.0
  N  N98  1  0.11153586  0.99132740  0.45188624  1.0
  N  N99  1  0.86801966  0.01542374  0.54658326  1.0
