# generated using pymatgen
data_Zn2H5C10O7
_symmetry_space_group_name_H-M   'P 1'
_cell_length_a   13.29940597
_cell_length_b   13.30888030
_cell_length_c   15.90870480
_cell_angle_alpha   80.90723702
_cell_angle_beta   79.88452162
_cell_angle_gamma   89.09189545
_symmetry_Int_Tables_number   1
_chemical_formula_structural   Zn2H5C10O7
_chemical_formula_sum   'Zn4 H10 C20 O14'
_cell_volume   2737.03398176
_cell_formula_units_Z   2
loop_
 _symmetry_equiv_pos_site_id
 _symmetry_equiv_pos_as_xyz
  1  'x, y, z'
loop_
 _atom_site_type_symbol
 _atom_site_label
 _atom_site_symmetry_multiplicity
 _atom_site_fract_x
 _atom_site_fract_y
 _atom_site_fract_z
 _atom_site_occupancy
  Zn  Zn0  1  0.59913013  0.57027666  0.55208113  1.0
  Zn  Zn1  1  0.58574090  0.40788851  0.43156962  1.0
  Zn  Zn2  1  0.43121241  0.60879736  0.43589956  1.0
  Zn  Zn3  1  0.39730909  0.41679346  0.58343160  1.0
  H  H4  1  0.39639125  0.44117859  0.02644465  1.0
  H  H5  1  0.91061752  0.34942236  0.47120436  1.0
  H  H6  1  0.08892510  0.62487637  0.52032183  1.0
  H  H7  1  0.58466132  0.08817030  0.45728794  1.0
  H  H8  1  0.41370298  0.92007269  0.49783203  1.0
  H  H9  1  0.36061761  0.09041093  0.55019381  1.0
  H  H10  1  0.64906465  0.90953624  0.45685213  1.0
  H  H11  1  0.91487767  0.55926858  0.52997782  1.0
  H  H12  1  0.08403320  0.39380140  0.51564480  1.0
  H  H13  1  0.64317964  0.62194111  0.00074530  1.0
  C  C14  1  0.45867794  0.22706402  0.51732757  1.0
  C  C15  1  0.05332617  0.47019649  0.51826124  1.0
  C  C16  1  0.88398371  0.42131437  0.49141494  1.0
  C  C17  1  0.55152980  0.77425282  0.47156635  1.0
  C  C18  1  0.94686620  0.48687077  0.51438286  1.0
  C  C19  1  0.77601968  0.44693056  0.48833528  1.0
  C  C20  1  0.22770945  0.53436256  0.52000590  1.0
  C  C21  1  0.51578623  0.52335174  0.27638024  1.0
  C  C22  1  0.47694208  0.49470760  0.72414917  1.0
  C  C23  1  0.51742312  0.52876174  0.18435050  1.0
  C  C24  1  0.52470198  0.53576864  0.01713357  1.0
  C  C25  1  0.46331792  0.48962862  0.89311989  1.0
  C  C26  1  0.45705756  0.48595565  0.98198355  1.0
  C  C27  1  0.51852969  0.53070154  0.10734665  1.0
  C  C28  1  0.46797547  0.49210340  0.81542141  1.0
  C  C29  1  0.56947192  0.88449185  0.46688664  1.0
  C  C30  1  0.49215354  0.94961935  0.48324847  1.0
  C  C31  1  0.43667601  0.11830844  0.51823908  1.0
  C  C32  1  0.50860847  0.05597535  0.48456504  1.0
  C  C33  1  0.11662616  0.54697045  0.52237466  1.0
  O  O34  1  0.50272431  0.50005264  0.49934748  1.0
  O  O35  1  0.57232770  0.45557333  0.30910223  1.0
  O  O36  1  0.41361801  0.43912546  0.69920722  1.0
  O  O37  1  0.45828571  0.58690112  0.31315386  1.0
  O  O38  1  0.54778031  0.55254908  0.67654542  1.0
  O  O39  1  0.60264131  0.59278214  0.96492453  1.0
  O  O40  1  0.73794325  0.51821066  0.52867690  1.0
  O  O41  1  0.25900710  0.45126000  0.55807379  1.0
  O  O42  1  0.53580686  0.26700431  0.46334224  1.0
  O  O43  1  0.47076553  0.74678186  0.44753892  1.0
  O  O44  1  0.39809533  0.27207771  0.57081104  1.0
  O  O45  1  0.61868834  0.71519740  0.50057694  1.0
  O  O46  1  0.72940599  0.39529490  0.44503816  1.0
  O  O47  1  0.28338414  0.60997773  0.47825104  1.0
