# generated using pymatgen
data_Hf3H17C60Br15N9O16
_symmetry_space_group_name_H-M   'P 1'
_cell_length_a   19.69367471
_cell_length_b   19.71097160
_cell_length_c   19.75918182
_cell_angle_alpha   91.92761592
_cell_angle_beta   92.73890425
_cell_angle_gamma   91.60508607
_symmetry_Int_Tables_number   1
_chemical_formula_structural   Hf3H17C60Br15N9O16
_chemical_formula_sum   'Hf6 H34 C120 Br30 N18 O32'
_cell_volume   7653.68009623
_cell_formula_units_Z   2
loop_
 _symmetry_equiv_pos_site_id
 _symmetry_equiv_pos_as_xyz
  1  'x, y, z'
loop_
 _atom_site_type_symbol
 _atom_site_label
 _atom_site_symmetry_multiplicity
 _atom_site_fract_x
 _atom_site_fract_y
 _atom_site_fract_z
 _atom_site_occupancy
  Hf  Hf0  1  0.80992834  0.95866324  0.86567555  1.0
  Hf  Hf1  1  0.77588508  0.85928738  0.00420709  1.0
  Hf  Hf2  1  0.97666626  0.98768141  0.93068043  1.0
  Hf  Hf3  1  0.91135172  0.82086348  0.90284711  1.0
  Hf  Hf4  1  0.83981616  0.02476478  0.03151968  1.0
  Hf  Hf5  1  0.94346495  0.88718441  0.06833804  1.0
  H  H6  1  0.77277066  0.81883591  0.86498890  1.0
  H  H7  1  0.87615147  0.08378176  0.90985119  1.0
  H  H8  1  0.03706392  0.86497432  0.96756988  1.0
  H  H9  1  0.82218539  0.92368670  0.12767565  1.0
  H  H10  1  0.26513564  0.79965283  0.79214793  1.0
  H  H11  1  0.08028101  0.95618695  0.73563075  1.0
  H  H12  1  0.42381618  0.89974254  0.84684118  1.0
  H  H13  1  0.64881213  0.85839113  0.75558740  1.0
  H  H14  1  0.32453821  0.96017883  0.09238636  1.0
  H  H15  1  0.09943468  0.00610630  0.18232116  1.0
  H  H16  1  0.53265880  0.08596862  0.21158306  1.0
  H  H17  1  0.61944697  0.86813359  0.12488672  1.0
  H  H18  1  0.46869568  0.00189960  0.42354748  1.0
  H  H19  1  0.28412073  0.86026472  0.51211764  1.0
  H  H20  1  0.55809036  0.23493220  0.95713118  1.0
  H  H21  1  0.77975526  0.20266804  0.85335307  1.0
  H  H22  1  0.72538027  0.48795880  0.86209572  1.0
  H  H23  1  0.71523671  0.67377339  0.03505633  1.0
  H  H24  1  0.08716683  0.14657351  0.06960209  1.0
  H  H25  1  0.00711609  0.36558883  0.98496473  1.0
  H  H26  1  0.01607864  0.50607381  0.01254197  1.0
  H  H27  1  0.13466459  0.73024856  0.04132723  1.0
  H  H28  1  0.43536105  0.31676137  0.93588381  1.0
  H  H29  1  0.32019571  0.52611783  0.99972398  1.0
  H  H30  1  0.73623069  0.78847647  0.22029097  1.0
  H  H31  1  0.91376319  0.63502992  0.30466651  1.0
  H  H32  1  0.74802207  0.65960295  0.61668941  1.0
  H  H33  1  0.90732328  0.86001228  0.64189310  1.0
  H  H34  1  0.92626171  0.05427371  0.41341999  1.0
  H  H35  1  0.93587053  0.14475995  0.18416518  1.0
  H  H36  1  0.86222679  0.00808623  0.67124312  1.0
  H  H37  1  0.98018966  0.23127799  0.65446672  1.0
  H  H38  1  0.81569824  0.34589759  0.54266250  1.0
  H  H39  1  0.94590076  0.50841732  0.40929609  1.0
  C  C40  1  0.92479930  0.18764670  0.53535470  1.0
  C  C41  1  0.91382331  0.28487980  0.47893158  1.0
  C  C42  1  0.93187291  0.18607141  0.42067980  1.0
  C  C43  1  0.82405181  0.65535630  0.39559915  1.0
  C  C44  1  0.82374579  0.67209756  0.50924548  1.0
  C  C45  1  0.84340077  0.56776017  0.46464891  1.0
  C  C46  1  0.14570516  0.49062169  0.02013965  1.0
  C  C47  1  0.23522842  0.42384331  0.99914075  1.0
  C  C48  1  0.13495001  0.37596773  0.02722843  1.0
  C  C49  1  0.61183001  0.35105986  0.92103055  1.0
  C  C50  1  0.52333887  0.41724509  0.94799942  1.0
  C  C51  1  0.63024675  0.46286284  0.94671936  1.0
  C  C52  1  0.44845654  0.97786190  0.23574379  1.0
  C  C53  1  0.38455447  0.95663326  0.32499697  1.0
  C  C54  1  0.33383801  0.98207618  0.22373879  1.0
  C  C55  1  0.30037594  0.88308254  0.69783633  1.0
  C  C56  1  0.41525674  0.88310894  0.71362525  1.0
  C  C57  1  0.36702816  0.90636946  0.61073939  1.0
  C  C58  1  0.91750563  0.04725655  0.78834733  1.0
  C  C59  1  0.66311971  0.89211855  0.88310705  1.0
  C  C60  1  0.84047775  0.83761499  0.75633392  1.0
  C  C61  1  0.74278154  0.09515128  0.92265268  1.0
  C  C62  1  0.84117006  0.79019676  0.14176371  1.0
  C  C63  1  0.08641342  0.96306474  0.05548249  1.0
  C  C64  1  0.79146758  0.71167826  0.93976105  1.0
  C  C65  1  0.69941180  0.96723483  0.09327309  1.0
  C  C66  1  0.96501040  0.13180711  0.00676028  1.0
  C  C67  1  0.04872333  0.87989543  0.83692754  1.0
  C  C68  1  0.00081283  0.74286141  0.01115365  1.0
  C  C69  1  0.91677371  0.01397634  0.17578232  1.0
  C  C70  1  0.22310961  0.83188048  0.77801461  1.0
  C  C71  1  0.23257735  0.87889719  0.72712295  1.0
  C  C72  1  0.17890793  0.92199357  0.71008297  1.0
  C  C73  1  0.11950621  0.91936786  0.74543626  1.0
  C  C74  1  0.11030150  0.87220652  0.79584007  1.0
  C  C75  1  0.16233476  0.82726256  0.81090228  1.0
  C  C76  1  0.47344793  0.88905253  0.82760298  1.0
  C  C77  1  0.47738120  0.87560386  0.75752539  1.0
  C  C78  1  0.54145301  0.86055153  0.73264382  1.0
  C  C79  1  0.59911865  0.86624814  0.77585453  1.0
  C  C80  1  0.59542675  0.88210720  0.84527803  1.0
  C  C81  1  0.53116544  0.89083200  0.87136857  1.0
  C  C82  1  0.27494608  0.97187856  0.11111954  1.0
  C  C83  1  0.27115824  0.98895646  0.18050931  1.0
  C  C84  1  0.20720900  0.00512263  0.20503726  1.0
  C  C85  1  0.14919386  0.99763825  0.16224278  1.0
  C  C86  1  0.15298110  0.97766388  0.09382197  1.0
  C  C87  1  0.21700505  0.96709303  0.06789261  1.0
  C  C88  1  0.55205917  0.03779358  0.19346238  1.0
  C  C89  1  0.51538609  0.97764035  0.20341771  1.0
  C  C90  1  0.54124956  0.91614716  0.17984873  1.0
  C  C91  1  0.60061739  0.91562966  0.14511793  1.0
  C  C92  1  0.63774880  0.97598725  0.13400125  1.0
  C  C93  1  0.61334146  0.03750880  0.16032185  1.0
  C  C94  1  0.42831410  0.97058225  0.44338724  1.0
  C  C95  1  0.37903751  0.94065836  0.39719975  1.0
  C  C96  1  0.32675551  0.90001991  0.42274835  1.0
  C  C97  1  0.32441747  0.89158560  0.49215837  1.0
  C  C98  1  0.37352285  0.92178625  0.53845337  1.0
  C  C99  1  0.42588270  0.96230738  0.51287970  1.0
  C  C100  1  0.60696044  0.22725898  0.93491760  1.0
  C  C101  1  0.64016098  0.28352044  0.90766391  1.0
  C  C102  1  0.70128707  0.27290138  0.87501403  1.0
  C  C103  1  0.73153985  0.20997272  0.87708283  1.0
  C  C104  1  0.70133111  0.15646035  0.91037944  1.0
  C  C105  1  0.63681198  0.16427931  0.93574492  1.0
  C  C106  1  0.72306681  0.52950639  0.89960302  1.0
  C  C107  1  0.67723525  0.52298668  0.95131011  1.0
  C  C108  1  0.67708087  0.57445871  0.00224725  1.0
  C  C109  1  0.71670577  0.63297189  0.99675064  1.0
  C  C110  1  0.75914566  0.64207115  0.94213343  1.0
  C  C111  1  0.76439231  0.58765436  0.89485459  1.0
  C  C112  1  0.06903356  0.19497656  0.05198857  1.0
  C  C113  1  0.00367007  0.19786796  0.02119272  1.0
  C  C114  1  0.98066519  0.26042622  0.99937596  1.0
  C  C115  1  0.02389015  0.31758414  0.00461535  1.0
  C  C116  1  0.09057870  0.31450793  0.03284482  1.0
  C  C117  1  0.11163863  0.25261342  0.05931351  1.0
  C  C118  1  0.04181306  0.55565497  0.01736719  1.0
  C  C119  1  0.11324262  0.55761169  0.02452137  1.0
  C  C120  1  0.14620818  0.62192124  0.03420454  1.0
  C  C121  1  0.10845243  0.68095702  0.03359627  1.0
  C  C122  1  0.03774978  0.67816177  0.02227959  1.0
  C  C123  1  0.00456976  0.61414859  0.01579476  1.0
  C  C124  1  0.40969198  0.36270423  0.95075820  1.0
  C  C125  1  0.44948151  0.42322163  0.95807809  1.0
  C  C126  1  0.41530073  0.48339060  0.97437042  1.0
  C  C127  1  0.34626017  0.47996034  0.98620025  1.0
  C  C128  1  0.30723904  0.41906555  0.98134500  1.0
  C  C129  1  0.34037163  0.35965067  0.96091382  1.0
  C  C130  1  0.77599550  0.75601909  0.23983312  1.0
  C  C131  1  0.83372682  0.74680747  0.20202680  1.0
  C  C132  1  0.88354820  0.70249226  0.22600809  1.0
  C  C133  1  0.87567711  0.67005054  0.28664854  1.0
  C  C134  1  0.82082222  0.68359955  0.32706809  1.0
  C  C135  1  0.77010452  0.72632489  0.30232753  1.0
  C  C136  1  0.78174260  0.70440711  0.62194819  1.0
  C  C137  1  0.82438931  0.71941168  0.56923978  1.0
  C  C138  1  0.86780835  0.77731018  0.57609348  1.0
  C  C139  1  0.87081358  0.81742360  0.63571631  1.0
  C  C140  1  0.82909050  0.80157954  0.68842556  1.0
  C  C141  1  0.78307215  0.74619781  0.68003487  1.0
  C  C142  1  0.93025734  0.07356709  0.36273720  1.0
  C  C143  1  0.93589991  0.14466436  0.35682587  1.0
  C  C144  1  0.94045840  0.16965061  0.29086808  1.0
  C  C145  1  0.93571885  0.12474079  0.23487750  1.0
  C  C146  1  0.92876987  0.05432751  0.24122056  1.0
  C  C147  1  0.92739370  0.02889952  0.30660808  1.0
  C  C148  1  0.89090022  0.05557773  0.66640921  1.0
  C  C149  1  0.92519189  0.08507050  0.72445991  1.0
  C  C150  1  0.95867005  0.14840475  0.71949572  1.0
  C  C151  1  0.95654412  0.18097988  0.65788739  1.0
  C  C152  1  0.92405176  0.15048826  0.59934841  1.0
  C  C153  1  0.89114262  0.08664613  0.60441864  1.0
  C  C154  1  0.84462238  0.38189992  0.51390330  1.0
  C  C155  1  0.90006914  0.35865698  0.47856971  1.0
  C  C156  1  0.93763195  0.40582739  0.44252041  1.0
  C  C157  1  0.91718918  0.47256981  0.43839503  1.0
  C  C158  1  0.86075359  0.49547434  0.47232198  1.0
  C  C159  1  0.82530172  0.44929152  0.51129906  1.0
  Br  Br160  1  0.15456254  0.76333080  0.88046020  1.0
  Br  Br161  1  0.18480228  0.99123777  0.64576179  1.0
  Br  Br162  1  0.52022713  0.91001454  0.96519576  1.0
  Br  Br163  1  0.55559381  0.82842100  0.64273949  1.0
  Br  Br164  1  0.22665389  0.93907849  0.97591736  1.0
  Br  Br165  1  0.19412738  0.04015569  0.29403122  1.0
  Br  Br166  1  0.65829159  0.12316113  0.15362560  1.0
  Br  Br167  1  0.49436739  0.83223741  0.19267376  1.0
  Br  Br168  1  0.49210679  0.01262154  0.56852218  1.0
  Br  Br169  1  0.26058788  0.84996336  0.36679609  1.0
  Br  Br170  1  0.58964458  0.08789121  0.96900164  1.0
  Br  Br171  1  0.74538892  0.33867732  0.82267193  1.0
  Br  Br172  1  0.82458525  0.58811583  0.82280737  1.0
  Br  Br173  1  0.62790162  0.56566109  0.08196649  1.0
  Br  Br174  1  0.19567092  0.24352076  0.10888712  1.0
  Br  Br175  1  0.89247115  0.26833042  0.95715085  1.0
  Br  Br176  1  0.90862508  0.60386997  0.00761253  1.0
  Br  Br177  1  0.24142752  0.63557191  0.05218587  1.0
  Br  Br178  1  0.29657212  0.27362039  0.94121412  1.0
  Br  Br179  1  0.45444341  0.57281950  0.98041964  1.0
  Br  Br180  1  0.69039032  0.74293035  0.34987172  1.0
  Br  Br181  1  0.96275775  0.68246776  0.17939632  1.0
  Br  Br182  1  0.72128811  0.72769531  0.74893132  1.0
  Br  Br183  1  0.92948349  0.80082827  0.50897979  1.0
  Br  Br184  1  0.91464824  0.93455867  0.32139796  1.0
  Br  Br185  1  0.95313878  0.26217274  0.26970044  1.0
  Br  Br186  1  0.83897022  0.04191697  0.53165255  1.0
  Br  Br187  1  0.00275285  0.19491866  0.79586552  1.0
  Br  Br188  1  0.74676337  0.47411066  0.55755456  1.0
  Br  Br189  1  0.02062777  0.38338822  0.40345349  1.0
  N  N190  1  0.91400404  0.25486815  0.53899761  1.0
  N  N191  1  0.92080848  0.25289753  0.41864805  1.0
  N  N192  1  0.93612292  0.15182474  0.47866843  1.0
  N  N193  1  0.81446571  0.69849626  0.44800265  1.0
  N  N194  1  0.83420265  0.60627179  0.52070816  1.0
  N  N195  1  0.84209315  0.59043828  0.40117115  1.0
  N  N196  1  0.20988378  0.48682942  0.00159270  1.0
  N  N197  1  0.20014295  0.36713669  0.01273216  1.0
  N  N198  1  0.10553501  0.43619908  0.03242641  1.0
  N  N199  1  0.54497192  0.35513526  0.92967497  1.0
  N  N200  1  0.56452428  0.47238021  0.95803083  1.0
  N  N201  1  0.65673227  0.40375387  0.92813163  1.0
  N  N202  1  0.44751985  0.96396496  0.30162679  1.0
  N  N203  1  0.32679623  0.96431346  0.28791417  1.0
  N  N204  1  0.39413636  0.98903187  0.19467129  1.0
  N  N205  1  0.35439356  0.87436455  0.74073193  1.0
  N  N206  1  0.42388527  0.90212335  0.64996937  1.0
  N  N207  1  0.30373276  0.89548795  0.63176385  1.0
  O  O208  1  0.96703552  0.04308739  0.83128566  1.0
  O  O209  1  0.67584293  0.86464944  0.93911773  1.0
  O  O210  1  0.81275784  0.89375719  0.76798214  1.0
  O  O211  1  0.75077558  0.05362555  0.87354857  1.0
  O  O212  1  0.76977767  0.09344416  0.98259137  1.0
  O  O213  1  0.87899578  0.80543466  0.79710948  1.0
  O  O214  1  0.70499747  0.92790577  0.85039803  1.0
  O  O215  1  0.85789833  0.02057606  0.79292198  1.0
  O  O216  1  0.79199611  0.95353559  0.96696698  1.0
  O  O217  1  0.90556117  0.92232773  0.88291648  1.0
  O  O218  1  0.80188654  0.84960704  0.89375930  1.0
  O  O219  1  0.87547151  0.03782915  0.92600400  1.0
  O  O220  1  0.78975721  0.79789280  0.10168213  1.0
  O  O221  1  0.07345928  0.98932621  0.99885366  1.0
  O  O222  1  0.84405250  0.72392608  0.90731552  1.0
  O  O223  1  0.74164741  0.01600741  0.08663390  1.0
  O  O224  1  0.90866262  0.12036967  0.03335279  1.0
  O  O225  1  0.00734104  0.83043180  0.84320001  1.0
  O  O226  1  0.00126141  0.78811864  0.05825339  1.0
  O  O227  1  0.94550466  0.95824020  0.16478321  1.0
  O  O228  1  0.97337465  0.74653994  0.95146760  1.0
  O  O229  1  0.87584798  0.04317985  0.13434139  1.0
  O  O230  1  0.75924564  0.75630462  0.97361095  1.0
  O  O231  1  0.04482397  0.93992872  0.86299213  1.0
  O  O232  1  0.99552799  0.09159617  0.96707647  1.0
  O  O233  1  0.70513204  0.90695868  0.06759956  1.0
  O  O234  1  0.89967496  0.81944469  0.13831710  1.0
  O  O235  1  0.04678264  0.92355785  0.08672515  1.0
  O  O236  1  0.93110348  0.97766815  0.02130772  1.0
  O  O237  1  0.87738976  0.83849303  0.99801155  1.0
  O  O238  1  0.99116823  0.88176203  0.96709822  1.0
  O  O239  1  0.83781586  0.92338610  0.08186557  1.0
