# generated using pymatgen
data_ZnH8C13NO4F
_symmetry_space_group_name_H-M   'P 1'
_cell_length_a   8.40144492
_cell_length_b   10.96087049
_cell_length_c   35.15122926
_cell_angle_alpha   90.08212430
_cell_angle_beta   89.88985561
_cell_angle_gamma   89.89351263
_symmetry_Int_Tables_number   1
_chemical_formula_structural   ZnH8C13NO4F
_chemical_formula_sum   'Zn4 H32 C52 N4 O16 F4'
_cell_volume   3236.96159734
_cell_formula_units_Z   4
loop_
 _symmetry_equiv_pos_site_id
 _symmetry_equiv_pos_as_xyz
  1  'x, y, z'
loop_
 _atom_site_type_symbol
 _atom_site_label
 _atom_site_symmetry_multiplicity
 _atom_site_fract_x
 _atom_site_fract_y
 _atom_site_fract_z
 _atom_site_occupancy
  Zn  Zn0  1  0.66487659  0.00156908  0.49991424  1.0
  Zn  Zn1  1  0.34943520  0.00227517  0.50005042  1.0
  Zn  Zn2  1  0.24434710  0.99651967  0.99997259  1.0
  Zn  Zn3  1  0.55965720  0.99619405  0.99982354  1.0
  H  H4  1  0.71334858  0.99195020  0.87560992  1.0
  H  H5  1  0.68822266  0.99065073  0.80565873  1.0
  H  H6  1  0.17579446  0.00608881  0.81693710  1.0
  H  H7  1  0.20476165  0.00679566  0.88698622  1.0
  H  H8  1  0.73322001  0.00406424  0.68307713  1.0
  H  H9  1  0.22066389  0.99199048  0.69412189  1.0
  H  H10  1  0.19594763  0.99490939  0.62418090  1.0
  H  H11  1  0.70466826  0.00677717  0.61299431  1.0
  H  H12  1  0.71266225  0.99607375  0.12371445  1.0
  H  H13  1  0.68897207  0.99546476  0.19374403  1.0
  H  H14  1  0.17595500  0.99316629  0.18339236  1.0
  H  H15  1  0.20365883  0.99391859  0.11330914  1.0
  H  H16  1  0.73341918  0.99070761  0.31679791  1.0
  H  H17  1  0.22076882  0.99886448  0.30597661  1.0
  H  H18  1  0.19566999  0.00077420  0.37590536  1.0
  H  H19  1  0.70445161  0.99296162  0.38688892  1.0
  H  H20  1  0.21167687  0.61960225  0.47536835  1.0
  H  H21  1  0.20651305  0.61608007  0.52616036  1.0
  H  H22  1  0.21026640  0.38574900  0.52484514  1.0
  H  H23  1  0.20730666  0.38926207  0.47404373  1.0
  H  H24  1  0.69823400  0.61247761  0.02461080  1.0
  H  H25  1  0.70370970  0.60813210  0.97380809  1.0
  H  H26  1  0.69864679  0.37774460  0.97531770  1.0
  H  H27  1  0.70157427  0.38224760  0.02611291  1.0
  H  H28  1  0.86963849  0.28794309  0.50243439  1.0
  H  H29  1  0.96003646  0.42336632  0.51467116  1.0
  H  H30  1  0.86988094  0.71432808  0.49827856  1.0
  H  H31  1  0.96049328  0.57848710  0.48627059  1.0
  H  H32  1  0.03904279  0.28390252  0.99748440  1.0
  H  H33  1  0.94916812  0.41965486  0.98519512  1.0
  H  H34  1  0.04027711  0.71032929  0.00142123  1.0
  H  H35  1  0.94909828  0.57512367  0.01347258  1.0
  C  C36  1  0.57419013  0.76867899  0.50074934  1.0
  C  C37  1  0.44133241  0.00224457  0.57180069  1.0
  C  C38  1  0.57351168  0.23489609  0.49952863  1.0
  C  C39  1  0.44090126  0.99927167  0.42822959  1.0
  C  C40  1  0.33595843  0.76327070  0.99906883  1.0
  C  C41  1  0.46827694  0.99804446  0.92808917  1.0
  C  C42  1  0.33491541  0.22947469  0.00048753  1.0
  C  C43  1  0.46687807  0.99540828  0.07170423  1.0
  C  C44  1  0.46043257  0.99909221  0.88578235  1.0
  C  C45  1  0.59595193  0.99505388  0.86248254  1.0
  C  C46  1  0.58143051  0.99445915  0.82305279  1.0
  C  C47  1  0.42942164  0.99812482  0.80575375  1.0
  C  C48  1  0.29382040  0.00288336  0.82956224  1.0
  C  C49  1  0.30952607  0.00327561  0.86875250  1.0
  C  C50  1  0.40253899  0.99730320  0.76488273  1.0
  C  C51  1  0.50610481  0.99714006  0.73500500  1.0
  C  C52  1  0.61527950  0.00219474  0.67038814  1.0
  C  C53  1  0.47947615  0.99812917  0.69412719  1.0
  C  C54  1  0.32756224  0.99555034  0.67677427  1.0
  C  C55  1  0.31330745  0.99718787  0.63734303  1.0
  C  C56  1  0.44897314  0.00131374  0.61410411  1.0
  C  C57  1  0.59980020  0.00380764  0.63120072  1.0
  C  C58  1  0.45948521  0.99483347  0.11402517  1.0
  C  C59  1  0.59545867  0.99530234  0.13708817  1.0
  C  C60  1  0.58170722  0.99492725  0.17656376  1.0
  C  C61  1  0.42990918  0.99402786  0.19416032  1.0
  C  C62  1  0.29385195  0.99361910  0.17056989  1.0
  C  C63  1  0.30879981  0.99403886  0.13134804  1.0
  C  C64  1  0.40341145  0.99376281  0.23508190  1.0
  C  C65  1  0.50686605  0.99429371  0.26489314  1.0
  C  C66  1  0.61532459  0.99288452  0.32952161  1.0
  C  C67  1  0.47968325  0.99469512  0.30580305  1.0
  C  C68  1  0.32764987  0.99734202  0.32325367  1.0
  C  C69  1  0.31314468  0.99843712  0.36270317  1.0
  C  C70  1  0.44866969  0.99704435  0.38590388  1.0
  C  C71  1  0.59964779  0.99409555  0.36872585  1.0
  C  C72  1  0.58144629  0.63456838  0.50119300  1.0
  C  C73  1  0.58103752  0.36894535  0.49941707  1.0
  C  C74  1  0.44086010  0.56494024  0.50094796  1.0
  C  C75  1  0.72572611  0.43553336  0.50033157  1.0
  C  C76  1  0.44066040  0.43923279  0.49964168  1.0
  C  C77  1  0.72591654  0.56728675  0.50048925  1.0
  C  C78  1  0.26119515  0.57484563  0.50077470  1.0
  C  C79  1  0.26100357  0.43024771  0.49952109  1.0
  C  C80  1  0.32858338  0.62916744  0.99866971  1.0
  C  C81  1  0.32785828  0.36355734  0.00061365  1.0
  C  C82  1  0.46890251  0.55876468  0.99901640  1.0
  C  C83  1  0.18344673  0.43087094  0.99960918  1.0
  C  C84  1  0.46850929  0.43307103  0.00043254  1.0
  C  C85  1  0.18381013  0.56259844  0.99936001  1.0
  C  C86  1  0.64861508  0.56766360  0.99921494  1.0
  C  C87  1  0.64808518  0.42301963  0.00059163  1.0
  N  N88  1  0.87317046  0.38043448  0.49974572  1.0
  N  N89  1  0.87339945  0.62185793  0.50114615  1.0
  N  N90  1  0.03584974  0.37646387  0.00014156  1.0
  N  N91  1  0.03646238  0.61782891  0.99860246  1.0
  O  O92  1  0.70845464  0.82912397  0.50048564  1.0
  O  O93  1  0.43853996  0.82046760  0.50044729  1.0
  O  O94  1  0.30475626  0.00236971  0.55496906  1.0
  O  O95  1  0.57413798  0.00279667  0.55442875  1.0
  O  O96  1  0.43773780  0.18356541  0.49975933  1.0
  O  O97  1  0.70774571  0.17407849  0.49947974  1.0
  O  O98  1  0.57363259  0.00051165  0.44551830  1.0
  O  O99  1  0.30431205  0.99995580  0.44518935  1.0
  O  O100  1  0.20173120  0.82409171  0.99920989  1.0
  O  O101  1  0.47165368  0.81467628  0.99946912  1.0
  O  O102  1  0.60489390  0.99764461  0.94491091  1.0
  O  O103  1  0.33552012  0.99744599  0.94548814  1.0
  O  O104  1  0.47058213  0.17760162  0.00021636  1.0
  O  O105  1  0.20058271  0.16917019  0.00048948  1.0
  O  O106  1  0.33401211  0.99572008  0.05447536  1.0
  O  O107  1  0.60344748  0.99547128  0.05473320  1.0
  F  F108  1  0.24449193  0.99757975  0.75512635  1.0
  F  F109  1  0.66418214  0.99743470  0.74477546  1.0
  F  F110  1  0.24538642  0.99283551  0.24500541  1.0
  F  F111  1  0.66496751  0.99479348  0.25502661  1.0
