# generated using pymatgen
data_H6RuC19N2O5F8
_symmetry_space_group_name_H-M   'P 1'
_cell_length_a   10.56763207
_cell_length_b   10.74820832
_cell_length_c   14.88242686
_cell_angle_alpha   89.09068999
_cell_angle_beta   71.43312126
_cell_angle_gamma   88.93279308
_symmetry_Int_Tables_number   1
_chemical_formula_structural   H6RuC19N2O5F8
_chemical_formula_sum   'H12 Ru2 C38 N4 O10 F16'
_cell_volume   1602.04581204
_cell_formula_units_Z   2
loop_
 _symmetry_equiv_pos_site_id
 _symmetry_equiv_pos_as_xyz
  1  'x, y, z'
loop_
 _atom_site_type_symbol
 _atom_site_label
 _atom_site_symmetry_multiplicity
 _atom_site_fract_x
 _atom_site_fract_y
 _atom_site_fract_z
 _atom_site_occupancy
  H  H0  1  0.90763526  0.06396414  0.66936725  1.0
  H  H1  1  0.09237812  0.93608439  0.33063630  1.0
  H  H2  1  0.47868286  0.29041316  0.18668623  1.0
  H  H3  1  0.52133187  0.70956834  0.81332143  1.0
  H  H4  1  0.83110931  0.77748957  0.90453828  1.0
  H  H5  1  0.16887060  0.22248430  0.09546240  1.0
  H  H6  1  0.86498349  0.68599227  0.34114708  1.0
  H  H7  1  0.13505486  0.31410603  0.65881338  1.0
  H  H8  1  0.03354469  0.73236801  0.32399800  1.0
  H  H9  1  0.96649238  0.26773775  0.67597326  1.0
  H  H10  1  0.91704257  0.83963081  0.29755698  1.0
  H  H11  1  0.08298014  0.16047894  0.70244084  1.0
  Ru  Ru12  1  0.56559184  0.96801393  0.92512364  1.0
  Ru  Ru13  1  0.43440253  0.03196614  0.07488518  1.0
  C  C14  1  0.50736662  0.77155554  0.06784039  1.0
  C  C15  1  0.49262868  0.22843102  0.93216427  1.0
  C  C16  1  0.28035406  0.93200051  0.96609407  1.0
  C  C17  1  0.71963032  0.06795185  0.03391364  1.0
  C  C18  1  0.72872555  0.89201366  0.70770335  1.0
  C  C19  1  0.27129882  0.10801602  0.29230149  1.0
  C  C20  1  0.50093536  0.64052190  0.10213679  1.0
  C  C21  1  0.49906065  0.35946373  0.89786291  1.0
  C  C22  1  0.15698705  0.89034997  0.94906393  1.0
  C  C23  1  0.84300498  0.10962643  0.05094417  1.0
  C  C24  1  0.60433382  0.55426657  0.06170038  1.0
  C  C25  1  0.39564999  0.44571187  0.93830150  1.0
  C  C26  1  0.38864269  0.59565892  0.17404983  1.0
  C  C27  1  0.61133699  0.40431961  0.82594896  1.0
  C  C28  1  0.14265665  0.89691098  0.85844090  1.0
  C  C29  1  0.85734139  0.10307645  0.14157251  1.0
  C  C30  1  0.05047643  0.84100435  0.02296611  1.0
  C  C31  1  0.94951136  0.15896377  0.97703377  1.0
  C  C32  1  0.89110806  0.93652591  0.56373495  1.0
  C  C33  1  0.10890362  0.06349939  0.43627362  1.0
  C  C34  1  0.59669982  0.43141468  0.09363204  1.0
  C  C35  1  0.40330872  0.56855766  0.90636415  1.0
  C  C36  1  0.38156066  0.47130480  0.20359169  1.0
  C  C37  1  0.61844238  0.52867418  0.79639648  1.0
  C  C38  1  0.02705835  0.85543242  0.84316222  1.0
  C  C39  1  0.97294616  0.14455301  0.15684551  1.0
  C  C40  1  0.93545424  0.80059636  0.00646040  1.0
  C  C41  1  0.06453873  0.19935396  0.99355104  1.0
  C  C42  1  0.94925116  0.03794890  0.59523898  1.0
  C  C43  1  0.05077723  0.96208816  0.40474792  1.0
  C  C44  1  0.94440352  0.89904237  0.46570128  1.0
  C  C45  1  0.05561347  0.10099214  0.53428800  1.0
  C  C46  1  0.48574836  0.38779376  0.16448964  1.0
  C  C47  1  0.51425485  0.61219171  0.83551417  1.0
  C  C48  1  0.92234322  0.80667979  0.91661266  1.0
  C  C49  1  0.07765027  0.19330309  0.08339496  1.0
  C  C50  1  0.92854257  0.76364796  0.34484916  1.0
  C  C51  1  0.07147798  0.23643488  0.65513095  1.0
  N  N52  1  0.66702234  0.90096944  0.78990388  1.0
  N  N53  1  0.33299311  0.09904183  0.21009659  1.0
  N  N54  1  0.78743260  0.87218571  0.62055387  1.0
  N  N55  1  0.21256766  0.12785100  0.37945600  1.0
  O  O56  1  0.57327972  0.79295640  0.98067196  1.0
  O  O57  1  0.42672878  0.20702152  0.01932848  1.0
  O  O58  1  0.39175097  0.91786910  0.90060393  1.0
  O  O59  1  0.60822621  0.08210574  0.09940803  1.0
  O  O60  1  0.55443541  0.14467099  0.87388184  1.0
  O  O61  1  0.44556910  0.85531910  0.12612059  1.0
  O  O62  1  0.73249882  0.01985062  0.95312501  1.0
  O  O63  1  0.26748834  0.98010820  0.04688612  1.0
  O  O64  1  0.88264301  0.80236030  0.44182546  1.0
  O  O65  1  0.11735651  0.19768946  0.55817351  1.0
  F  F66  1  0.71471169  0.58706746  0.99058213  1.0
  F  F67  1  0.28527779  0.41292297  0.00941273  1.0
  F  F68  1  0.28219055  0.67044432  0.21377952  1.0
  F  F69  1  0.71776731  0.32953377  0.78619554  1.0
  F  F70  1  0.23865686  0.94712300  0.78471441  1.0
  F  F71  1  0.76131693  0.05287332  0.21529784  1.0
  F  F72  1  0.05760868  0.82871213  0.11171071  1.0
  F  F73  1  0.94238631  0.17122978  0.88829021  1.0
  F  F74  1  0.70054505  0.35355332  0.05177986  1.0
  F  F75  1  0.29945666  0.64642751  0.94823398  1.0
  F  F76  1  0.26955986  0.43227417  0.27067826  1.0
  F  F77  1  0.73043463  0.56770035  0.72930195  1.0
  F  F78  1  0.01709775  0.86555269  0.75493723  1.0
  F  F79  1  0.98289575  0.13445903  0.24507343  1.0
  F  F80  1  0.83434560  0.75738119  0.08120262  1.0
  F  F81  1  0.16564245  0.24258226  0.91880439  1.0
