# generated using pymatgen
data_Al4H9C28N2ClO24
_symmetry_space_group_name_H-M   'P 1'
_cell_length_a   6.67983070
_cell_length_b   16.55969629
_cell_length_c   18.98911323
_cell_angle_alpha   104.64296597
_cell_angle_beta   89.64204963
_cell_angle_gamma   89.96231622
_symmetry_Int_Tables_number   1
_chemical_formula_structural   Al4H9C28N2ClO24
_chemical_formula_sum   'Al4 H9 C28 N2 Cl1 O24'
_cell_volume   2032.22956248
_cell_formula_units_Z   1
loop_
 _symmetry_equiv_pos_site_id
 _symmetry_equiv_pos_as_xyz
  1  'x, y, z'
loop_
 _atom_site_type_symbol
 _atom_site_label
 _atom_site_symmetry_multiplicity
 _atom_site_fract_x
 _atom_site_fract_y
 _atom_site_fract_z
 _atom_site_occupancy
  Al  Al0  1  0.89157603  0.49652927  0.49965390  1.0
  Al  Al1  1  0.39310301  0.49946907  0.50191716  1.0
  Al  Al2  1  0.38180113  0.99827586  0.00297855  1.0
  Al  Al3  1  0.88297489  0.99815245  0.00235933  1.0
  H  H4  1  0.00855334  0.82551363  0.78659123  1.0
  H  H5  1  0.42875236  0.68834539  0.69959555  1.0
  H  H6  1  0.92458402  0.19175917  0.19466891  1.0
  H  H7  1  0.93314596  0.29417562  0.31020437  1.0
  H  H8  1  0.47459721  0.31455200  0.30121990  1.0
  H  H9  1  0.64533845  0.60720000  0.50960921  1.0
  H  H10  1  0.14445967  0.39798475  0.51337318  1.0
  H  H11  1  0.63224170  0.89254412  0.96118600  1.0
  H  H12  1  0.13173713  0.09990032  0.99193170  1.0
  C  C13  1  0.63948447  0.41211690  0.58727318  1.0
  C  C14  1  0.64331043  0.38745641  0.39060463  1.0
  C  C15  1  0.14341239  0.58545162  0.41669427  1.0
  C  C16  1  0.13724855  0.60848133  0.61270368  1.0
  C  C17  1  0.28195153  0.76586194  0.79561217  1.0
  C  C18  1  0.13797823  0.82374361  0.82085647  1.0
  C  C19  1  0.28176885  0.70646397  0.72430177  1.0
  C  C20  1  0.12427121  0.66906867  0.68576078  1.0
  C  C21  1  0.12968374  0.86325410  0.14048392  1.0
  C  C22  1  0.13056979  0.81981256  0.18406977  1.0
  C  C23  1  0.13354772  0.77214453  0.23157367  1.0
  C  C24  1  0.13760410  0.72787142  0.27492961  1.0
  C  C25  1  0.14139328  0.67987986  0.32211813  1.0
  C  C26  1  0.14367120  0.63595302  0.36531992  1.0
  C  C27  1  0.63886874  0.36284791  0.63969281  1.0
  C  C28  1  0.63796478  0.31988880  0.68367376  1.0
  C  C29  1  0.63743586  0.27283410  0.73164929  1.0
  C  C30  1  0.63676006  0.22928242  0.77561774  1.0
  C  C31  1  0.63565257  0.18201823  0.82345064  1.0
  C  C32  1  0.63412451  0.13870310  0.86716883  1.0
  C  C33  1  0.77986543  0.21351325  0.21952898  1.0
  C  C34  1  0.62097657  0.17351954  0.18299656  1.0
  C  C35  1  0.78512005  0.27906470  0.28636902  1.0
  C  C36  1  0.62735086  0.32316753  0.32112377  1.0
  C  C37  1  0.63186708  0.10744223  0.11358806  1.0
  C  C38  1  0.63197696  0.08872479  0.91918920  1.0
  C  C39  1  0.13476314  0.88697818  0.89133615  1.0
  C  C40  1  0.13223759  0.91264120  0.08798894  1.0
  N  N41  1  0.91584613  0.68118343  0.71295988  1.0
  N  N42  1  0.41188842  0.19175648  0.20836362  1.0
  Cl  Cl43  1  0.49121493  0.75364033  0.84497980  1.0
  O  O44  1  0.47490358  0.41381762  0.41979577  1.0
  O  O45  1  0.81004007  0.42876431  0.56416402  1.0
  O  O46  1  0.96957101  0.58312637  0.58459456  1.0
  O  O47  1  0.81538471  0.41080384  0.41665500  1.0
  O  O48  1  0.97267791  0.56477465  0.43662088  1.0
  O  O49  1  0.46892586  0.43361209  0.56835007  1.0
  O  O50  1  0.64318214  0.54843717  0.50854598  1.0
  O  O51  1  0.31344086  0.56674165  0.43815655  1.0
  O  O52  1  0.31050193  0.58862814  0.58634075  1.0
  O  O53  1  0.14359181  0.44906215  0.49718819  1.0
  O  O54  1  0.80220230  0.07141750  0.94170609  1.0
  O  O55  1  0.46367048  0.08319965  0.08510583  1.0
  O  O56  1  0.30358081  0.93410312  0.06966859  1.0
  O  O57  1  0.46025716  0.06758537  0.93790185  1.0
  O  O58  1  0.30118947  0.91093916  0.92173348  1.0
  O  O59  1  0.80348547  0.08216452  0.08877035  1.0
  O  O60  1  0.63278890  0.94842073  0.99331320  1.0
  O  O61  1  0.96151117  0.91343538  0.91558194  1.0
  O  O62  1  0.96320664  0.92907183  0.06429612  1.0
  O  O63  1  0.13181161  0.04876547  0.00801559  1.0
  O  O64  1  0.81499907  0.73470511  0.69380411  1.0
  O  O65  1  0.85647686  0.63520985  0.75058246  1.0
  O  O66  1  0.32028598  0.24467320  0.18518971  1.0
  O  O67  1  0.34331798  0.15224405  0.25012906  1.0
