# generated using pymatgen
data_AlH4C17NCl4O7
_symmetry_space_group_name_H-M   'P 1'
_cell_length_a   6.63817214
_cell_length_b   21.56621650
_cell_length_c   24.29053778
_cell_angle_alpha   99.03055430
_cell_angle_beta   89.99580900
_cell_angle_gamma   89.99152184
_symmetry_Int_Tables_number   1
_chemical_formula_structural   AlH4C17NCl4O7
_chemical_formula_sum   'Al4 H16 C68 N4 Cl16 O28'
_cell_volume   3434.33595345
_cell_formula_units_Z   4
loop_
 _symmetry_equiv_pos_site_id
 _symmetry_equiv_pos_as_xyz
  1  'x, y, z'
loop_
 _atom_site_type_symbol
 _atom_site_label
 _atom_site_symmetry_multiplicity
 _atom_site_fract_x
 _atom_site_fract_y
 _atom_site_fract_z
 _atom_site_occupancy
  Al  Al0  1  0.20060778  0.75069217  0.25167243  1.0
  Al  Al1  1  0.79279212  0.24918155  0.74876861  1.0
  Al  Al2  1  0.70063184  0.74933019  0.24835926  1.0
  Al  Al3  1  0.29277865  0.25081826  0.75123970  1.0
  H  H4  1  0.31982767  0.40788992  0.66347359  1.0
  H  H5  1  0.67380005  0.59118157  0.33607442  1.0
  H  H6  1  0.81988452  0.09207040  0.83651953  1.0
  H  H7  1  0.17362960  0.90880333  0.16390499  1.0
  H  H8  1  0.76227305  0.32056659  0.60198940  1.0
  H  H9  1  0.23056362  0.67911251  0.39759590  1.0
  H  H10  1  0.26217097  0.17940208  0.89799340  1.0
  H  H11  1  0.73054189  0.82086061  0.10242638  1.0
  H  H12  1  0.78535648  0.35395291  0.03245141  1.0
  H  H13  1  0.28734999  0.63475563  0.97727294  1.0
  H  H14  1  0.28780330  0.14627625  0.46732341  1.0
  H  H15  1  0.78555832  0.86495440  0.52302838  1.0
  H  H16  1  0.44745041  0.66700930  0.23813524  1.0
  H  H17  1  0.54646153  0.33291892  0.76317670  1.0
  H  H18  1  0.94737541  0.83302008  0.26173594  1.0
  H  H19  1  0.04651880  0.16706342  0.73701171  1.0
  C  C20  1  0.45217955  0.83020872  0.33184249  1.0
  C  C21  1  0.53991574  0.16990734  0.66832937  1.0
  C  C22  1  0.95220159  0.66979762  0.16819453  1.0
  C  C23  1  0.03985012  0.33010773  0.83167946  1.0
  C  C24  1  0.44974929  0.82072130  0.18197097  1.0
  C  C25  1  0.54359470  0.17979802  0.81844226  1.0
  C  C26  1  0.94983083  0.67929490  0.31805318  1.0
  C  C27  1  0.04348645  0.32017433  0.68155402  1.0
  C  C28  1  0.18102464  0.44510942  0.59530124  1.0
  C  C29  1  0.81294948  0.55420903  0.40430820  1.0
  C  C30  1  0.68099966  0.05484173  0.90468223  1.0
  C  C31  1  0.31283089  0.94575090  0.09566629  1.0
  C  C32  1  0.19426379  0.40451525  0.63434239  1.0
  C  C33  1  0.79911981  0.59482454  0.36528787  1.0
  C  C34  1  0.69426480  0.09544450  0.86564285  1.0
  C  C35  1  0.29897825  0.90514987  0.13469192  1.0
  C  C36  1  0.04116234  0.36051932  0.63707541  1.0
  C  C37  1  0.95156589  0.63901188  0.36257509  1.0
  C  C38  1  0.54116599  0.13945185  0.86291635  1.0
  C  C39  1  0.45147754  0.86097531  0.13743237  1.0
  C  C40  1  0.88015650  0.35506235  0.59937678  1.0
  C  C41  1  0.11279767  0.64457786  0.40024274  1.0
  C  C42  1  0.38008736  0.14490630  0.90060365  1.0
  C  C43  1  0.61276408  0.85539700  0.09976563  1.0
  C  C44  1  0.87326635  0.39345661  0.55860435  1.0
  C  C45  1  0.12043655  0.60611628  0.44095228  1.0
  C  C46  1  0.37320415  0.10649015  0.94136876  1.0
  C  C47  1  0.62040352  0.89383177  0.05904260  1.0
  C  C48  1  0.02061258  0.44079193  0.55611513  1.0
  C  C49  1  0.97355585  0.55866227  0.44345205  1.0
  C  C50  1  0.52055383  0.05915346  0.94386005  1.0
  C  C51  1  0.47349219  0.94129467  0.05652324  1.0
  C  C52  1  0.00598442  0.48184899  0.51676996  1.0
  C  C53  1  0.98876551  0.51756408  0.48273555  1.0
  C  C54  1  0.50592996  0.01809390  0.98320347  1.0
  C  C55  1  0.48871710  0.98239358  0.01723938  1.0
  C  C56  1  0.07005528  0.62906346  0.07080760  1.0
  C  C57  1  0.95077475  0.36586958  0.93255407  1.0
  C  C58  1  0.56948432  0.87083736  0.42929609  1.0
  C  C59  1  0.45156092  0.13420512  0.56739205  1.0
  C  C60  1  0.96407562  0.61873630  0.11824413  1.0
  C  C61  1  0.03613981  0.37907335  0.88319094  1.0
  C  C62  1  0.46398072  0.88123976  0.38180516  1.0
  C  C63  1  0.53626860  0.12094105  0.61681589  1.0
  C  C64  1  0.87629758  0.55980305  0.11982313  1.0
  C  C65  1  0.11985939  0.43843762  0.88166239  1.0
  C  C66  1  0.37664428  0.94022585  0.38019606  1.0
  C  C67  1  0.61935098  0.06149757  0.61841302  1.0
  C  C68  1  0.90544048  0.50868672  0.07619575  1.0
  C  C69  1  0.13222865  0.48418913  0.93000101  1.0
  C  C70  1  0.40618321  0.99134018  0.42379273  1.0
  C  C71  1  0.63162104  0.01569989  0.57011211  1.0
  C  C72  1  0.00955054  0.52042221  0.02693489  1.0
  C  C73  1  0.02804514  0.47237890  0.97910279  1.0
  C  C74  1  0.50961856  0.97953840  0.47313179  1.0
  C  C75  1  0.52811935  0.02759443  0.52094764  1.0
  C  C76  1  0.09286314  0.58113868  0.02451389  1.0
  C  C77  1  0.93790050  0.41241199  0.98029550  1.0
  C  C78  1  0.59217693  0.91873632  0.47561389  1.0
  C  C79  1  0.43866302  0.08765195  0.51965761  1.0
  C  C80  1  0.83399356  0.44586964  0.07594679  1.0
  C  C81  1  0.23365271  0.54331874  0.93344857  1.0
  C  C82  1  0.33563557  0.05424842  0.42392833  1.0
  C  C83  1  0.73238733  0.95645878  0.56675638  1.0
  C  C84  1  0.84408329  0.40056464  0.03010691  1.0
  C  C85  1  0.20858425  0.59051139  0.97725111  1.0
  C  C86  1  0.34570500  0.09957055  0.46975210  1.0
  C  C87  1  0.70726275  0.90926720  0.52296985  1.0
  N  N88  1  0.76540858  0.42234615  0.12689538  1.0
  N  N89  1  0.39691458  0.55377404  0.89446855  1.0
  N  N90  1  0.26868475  0.07782616  0.37284744  1.0
  N  N91  1  0.89518813  0.94590760  0.60583064  1.0
  Cl  Cl92  1  0.36117780  0.50234677  0.59486122  1.0
  Cl  Cl93  1  0.63358123  0.49681071  0.40471670  1.0
  Cl  Cl94  1  0.86124154  0.99759371  0.90512622  1.0
  Cl  Cl95  1  0.13339492  0.00315149  0.09523546  1.0
  Cl  Cl96  1  0.68155329  0.38383159  0.51038658  1.0
  Cl  Cl97  1  0.31266182  0.61575474  0.48902953  1.0
  Cl  Cl98  1  0.18145020  0.11612631  0.98959063  1.0
  Cl  Cl99  1  0.81264102  0.88416645  0.01096168  1.0
  Cl  Cl100  1  0.16733515  0.70268233  0.06805387  1.0
  Cl  Cl101  1  0.85934920  0.29145670  0.93474783  1.0
  Cl  Cl102  1  0.66640249  0.79715954  0.43205551  1.0
  Cl  Cl103  1  0.36093634  0.20870702  0.56513363  1.0
  Cl  Cl104  1  0.72648643  0.55176196  0.17619428  1.0
  Cl  Cl105  1  0.18985198  0.45596135  0.81754989  1.0
  Cl  Cl106  1  0.22690607  0.94836120  0.32383126  1.0
  Cl  Cl107  1  0.68846445  0.04395343  0.68259561  1.0
  O  O108  1  0.62117567  0.80262700  0.19659953  1.0
  O  O109  1  0.37255706  0.19780779  0.80341728  1.0
  O  O110  1  0.12124611  0.69746451  0.30349023  1.0
  O  O111  1  0.87246728  0.30208304  0.69649420  1.0
  O  O112  1  0.27985992  0.80954213  0.31640555  1.0
  O  O113  1  0.71249315  0.18909956  0.68528220  1.0
  O  O114  1  0.77986459  0.69054152  0.18356624  1.0
  O  O115  1  0.21249728  0.31081858  0.81479896  1.0
  O  O116  1  0.28034147  0.80826182  0.20253326  1.0
  O  O117  1  0.71373001  0.19235985  0.79849107  1.0
  O  O118  1  0.78047223  0.69168880  0.29742074  1.0
  O  O119  1  0.21356071  0.30770356  0.70160408  1.0
  O  O120  1  0.11980793  0.68631445  0.19082736  1.0
  O  O121  1  0.87133236  0.31311064  0.81009365  1.0
  O  O122  1  0.61983451  0.81363403  0.30926092  1.0
  O  O123  1  0.37129217  0.18699784  0.68983680  1.0
  O  O124  1  0.45008072  0.71240713  0.24616553  1.0
  O  O125  1  0.54357987  0.28763287  0.75344938  1.0
  O  O126  1  0.95003871  0.78761516  0.25385902  1.0
  O  O127  1  0.04361575  0.21236594  0.74657314  1.0
  O  O128  1  0.59257461  0.40098694  0.12687687  1.0
  O  O129  1  0.89241821  0.42279117  0.16416864  1.0
  O  O130  1  0.39320621  0.60253139  0.87378210  1.0
  O  O131  1  0.53286434  0.51374212  0.88842747  1.0
  O  O132  1  0.09666461  0.09979712  0.37269550  1.0
  O  O133  1  0.39626192  0.07679471  0.33563728  1.0
  O  O134  1  0.89086717  0.89717533  0.62654509  1.0
  O  O135  1  0.03136481  0.98585033  0.61192751  1.0
