# generated using pymatgen
data_ZnC12(ClO)4
_symmetry_space_group_name_H-M   'P 1'
_cell_length_a   27.94794359
_cell_length_b   27.94792855
_cell_length_c   27.94769369
_cell_angle_alpha   70.52902928
_cell_angle_beta   70.52725919
_cell_angle_gamma   109.47062400
_symmetry_Int_Tables_number   1
_chemical_formula_structural   ZnC12(ClO)4
_chemical_formula_sum   'Zn6 C72 Cl24 O24'
_cell_volume   16804.28178873
_cell_formula_units_Z   6
loop_
 _symmetry_equiv_pos_site_id
 _symmetry_equiv_pos_as_xyz
  1  'x, y, z'
loop_
 _atom_site_type_symbol
 _atom_site_label
 _atom_site_symmetry_multiplicity
 _atom_site_fract_x
 _atom_site_fract_y
 _atom_site_fract_z
 _atom_site_occupancy
  Zn  Zn0  1  0.54036512  0.99999828  0.45963507  1.0
  Zn  Zn1  1  0.54036466  0.54036507  0.00000327  1.0
  Zn  Zn2  1  0.99999678  0.54036607  0.45963483  1.0
  Zn  Zn3  1  0.99999679  0.45963107  0.54036994  1.0
  Zn  Zn4  1  0.45963081  0.45962994  0.00000387  1.0
  Zn  Zn5  1  0.45963391  0.99999751  0.54036624  1.0
  C  C6  1  0.50000456  0.08014673  0.41985108  1.0
  C  C7  1  0.41986972  0.91986865  0.49999683  1.0
  C  C8  1  0.83755612  0.49999609  0.66244489  1.0
  C  C9  1  0.49999867  0.83753815  0.66246148  1.0
  C  C10  1  0.33755982  0.83756017  0.49999844  1.0
  C  C11  1  0.50000197  0.16246277  0.33753713  1.0
  C  C12  1  0.66243765  0.16243834  0.50000083  1.0
  C  C13  1  0.33753920  0.50000067  0.16245752  1.0
  C  C14  1  0.49999580  0.66244179  0.83756456  1.0
  C  C15  1  0.66246266  0.49999903  0.83753837  1.0
  C  C16  1  0.50000490  0.33755892  0.16243689  1.0
  C  C17  1  0.16246457  0.66246408  0.49999987  1.0
  C  C18  1  0.08014587  0.58014422  0.50000147  1.0
  C  C19  1  0.16244035  0.50000376  0.33755873  1.0
  C  C20  1  0.83753577  0.33753487  0.49999983  1.0
  C  C21  1  0.58013228  0.08013049  0.49999699  1.0
  C  C22  1  0.37528207  0.87528327  0.49999949  1.0
  C  C23  1  0.37526066  0.50000059  0.12473451  1.0
  C  C24  1  0.62471526  0.12471493  0.50000097  1.0
  C  C25  1  0.62473951  0.49999851  0.87526154  1.0
  C  C26  1  0.49999596  0.62471926  0.87528474  1.0
  C  C27  1  0.12474176  0.62474219  0.49999849  1.0
  C  C28  1  0.50000564  0.37528181  0.12471329  1.0
  C  C29  1  0.87525720  0.37525813  0.50000028  1.0
  C  C30  1  0.12471766  0.50000329  0.37528273  1.0
  C  C31  1  0.50000009  0.87525990  0.62473901  1.0
  C  C32  1  0.87528350  0.49999484  0.62471691  1.0
  C  C33  1  0.50000310  0.12474172  0.37525803  1.0
  C  C34  1  0.50000002  0.58013190  0.91986797  1.0
  C  C35  1  0.50000185  0.91985379  0.58014486  1.0
  C  C36  1  0.50000358  0.41986731  0.08012972  1.0
  C  C37  1  0.58014330  0.49999987  0.91985608  1.0
  C  C38  1  0.08012979  0.49999990  0.41987326  1.0
  C  C39  1  0.41985422  0.50000044  0.08014270  1.0
  C  C40  1  0.91986901  0.49999496  0.58013448  1.0
  C  C41  1  0.91985352  0.41985148  0.50000105  1.0
  C  C42  1  0.20019864  0.75373513  0.50272879  1.0
  C  C43  1  0.25426546  0.55357707  0.24405648  1.0
  C  C44  1  0.79964591  0.29723607  0.44644831  1.0
  C  C45  1  0.74613417  0.50244515  0.70031634  1.0
  C  C46  1  0.74368444  0.24609308  0.55355212  1.0
  C  C47  1  0.20236218  0.44642863  0.29930632  1.0
  C  C48  1  0.25646531  0.70292882  0.49726841  1.0
  C  C49  1  0.79723726  0.49755119  0.75631526  1.0
  C  C50  1  0.55358488  0.79906181  0.70214142  1.0
  C  C51  1  0.29994873  0.74642481  0.49699228  1.0
  C  C52  1  0.49825320  0.20067122  0.24575318  1.0
  C  C53  1  0.75642427  0.25374301  0.44645944  1.0
  C  C54  1  0.50175856  0.25599678  0.29757392  1.0
  C  C55  1  0.24341929  0.79694323  0.50300350  1.0
  C  C56  1  0.44640914  0.74427433  0.75453254  1.0
  C  C57  1  0.70020104  0.20288167  0.55354280  1.0
  C  C58  1  0.24556707  0.44642226  0.25581500  1.0
  C  C59  1  0.44641583  0.70078926  0.79774134  1.0
  C  C60  1  0.70264753  0.50218181  0.74379603  1.0
  C  C61  1  0.49798282  0.24389126  0.20254122  1.0
  C  C62  1  0.75402124  0.49781416  0.79953946  1.0
  C  C63  1  0.55357674  0.75584824  0.74563615  1.0
  C  C64  1  0.29776210  0.55358200  0.20084440  1.0
  C  C65  1  0.50202936  0.29947848  0.25408319  1.0
  C  C66  1  0.20616159  0.70616133  0.50000015  1.0
  C  C67  1  0.20612815  0.50000339  0.29386771  1.0
  C  C68  1  0.79383814  0.29383747  0.50000015  1.0
  C  C69  1  0.79387141  0.49999664  0.70613003  1.0
  C  C70  1  0.49999719  0.79384410  0.70615885  1.0
  C  C71  1  0.29387131  0.79387127  0.49999814  1.0
  C  C72  1  0.50000553  0.20615898  0.29383891  1.0
  C  C73  1  0.70612566  0.20612583  0.50000122  1.0
  C  C74  1  0.29384287  0.50000149  0.20615203  1.0
  C  C75  1  0.49999609  0.70613216  0.79387568  1.0
  C  C76  1  0.70616072  0.49999863  0.79384124  1.0
  C  C77  1  0.50000566  0.29387251  0.20612443  1.0
  Cl  Cl78  1  0.23655676  0.85445097  0.50639937  1.0
  Cl  Cl79  1  0.26332825  0.64545012  0.49376725  1.0
  Cl  Cl80  1  0.49580160  0.23761032  0.14439645  1.0
  Cl  Cl81  1  0.86043719  0.35492411  0.38208266  1.0
  Cl  Cl82  1  0.50421585  0.35980628  0.25818000  1.0
  Cl  Cl83  1  0.13922087  0.75709929  0.50622523  1.0
  Cl  Cl84  1  0.38197565  0.64075833  0.85620472  1.0
  Cl  Cl85  1  0.73700947  0.24251678  0.61791740  1.0
  Cl  Cl86  1  0.14401014  0.38199713  0.35944131  1.0
  Cl  Cl87  1  0.38198718  0.73827679  0.75886239  1.0
  Cl  Cl88  1  0.74230608  0.50515076  0.63974094  1.0
  Cl  Cl89  1  0.35607751  0.61799717  0.14063766  1.0
  Cl  Cl90  1  0.49597972  0.14028433  0.24173694  1.0
  Cl  Cl91  1  0.85510536  0.49484304  0.76285075  1.0
  Cl  Cl92  1  0.61800682  0.85915648  0.64371598  1.0
  Cl  Cl93  1  0.25856628  0.61801007  0.23797251  1.0
  Cl  Cl94  1  0.50403614  0.26228795  0.35568566  1.0
  Cl  Cl95  1  0.76310380  0.25741500  0.38206991  1.0
  Cl  Cl96  1  0.64480390  0.50498451  0.73726021  1.0
  Cl  Cl97  1  0.63948307  0.14517158  0.61793268  1.0
  Cl  Cl98  1  0.24135315  0.38200564  0.26191764  1.0
  Cl  Cl99  1  0.36085432  0.74296115  0.49359140  1.0
  Cl  Cl100  1  0.75775249  0.49500745  0.86018835  1.0
  Cl  Cl101  1  0.61801719  0.76182972  0.74122726  1.0
  O  O102  1  0.53532468  0.06236477  0.40201865  1.0
  O  O103  1  0.06262861  0.53562238  0.40205194  1.0
  O  O104  1  0.59797651  0.53532270  0.93763857  1.0
  O  O105  1  0.06232922  0.46438153  0.47299188  1.0
  O  O106  1  0.40202361  0.46438136  0.06265296  1.0
  O  O107  1  0.93767209  0.46467881  0.59794789  1.0
  O  O108  1  0.47296201  0.53561799  0.06235666  1.0
  O  O109  1  0.93737330  0.53532052  0.52700541  1.0
  O  O110  1  0.93763976  0.47296094  0.46437845  1.0
  O  O111  1  0.47299019  0.93737197  0.46467837  1.0
  O  O112  1  0.93734321  0.40202118  0.53561416  1.0
  O  O113  1  0.46438253  0.52701143  0.93766522  1.0
  O  O114  1  0.40204805  0.93767194  0.53532262  1.0
  O  O115  1  0.06236387  0.59798150  0.46467543  1.0
  O  O116  1  0.52700471  0.06232924  0.53562169  1.0
  O  O117  1  0.06265924  0.52704300  0.53531958  1.0
  O  O118  1  0.59794995  0.06263054  0.46437793  1.0
  O  O119  1  0.46467811  0.06265883  0.47296286  1.0
  O  O120  1  0.53562064  0.59795137  0.93736674  1.0
  O  O121  1  0.53561953  0.93763936  0.52703778  1.0
  O  O122  1  0.53532324  0.47298931  0.06262850  1.0
  O  O123  1  0.46438099  0.93734230  0.59798063  1.0
  O  O124  1  0.46468200  0.40204799  0.06232973  1.0
  O  O125  1  0.52703704  0.46467764  0.93734461  1.0
