# generated using pymatgen
data_Zn2H12C30(N3O)3
_symmetry_space_group_name_H-M   'P 1'
_cell_length_a   18.48723312
_cell_length_b   18.57487404
_cell_length_c   18.61774293
_cell_angle_alpha   101.26029338
_cell_angle_beta   112.09712521
_cell_angle_gamma   109.39149646
_symmetry_Int_Tables_number   1
_chemical_formula_structural   Zn2H12C30(N3O)3
_chemical_formula_sum   'Zn4 H24 C60 N18 O6'
_cell_volume   5199.23213137
_cell_formula_units_Z   2
loop_
 _symmetry_equiv_pos_site_id
 _symmetry_equiv_pos_as_xyz
  1  'x, y, z'
loop_
 _atom_site_type_symbol
 _atom_site_label
 _atom_site_symmetry_multiplicity
 _atom_site_fract_x
 _atom_site_fract_y
 _atom_site_fract_z
 _atom_site_occupancy
  Zn  Zn0  1  0.09756897  0.64301390  0.98854612  1.0
  Zn  Zn1  1  0.88807194  0.38622329  0.00092047  1.0
  Zn  Zn2  1  0.89117630  0.51695233  0.88323491  1.0
  Zn  Zn3  1  0.11049458  0.47044779  0.09740898  1.0
  H  H4  1  0.09082062  0.81211732  0.98250660  1.0
  H  H5  1  0.31041490  0.58284724  0.99616297  1.0
  H  H6  1  0.14779953  0.46860239  0.28234657  1.0
  H  H7  1  0.89354185  0.39011553  0.74076547  1.0
  H  H8  1  0.82527588  0.64529413  0.79138597  1.0
  H  H9  1  0.13360214  0.34849741  0.97754450  1.0
  H  H10  1  0.61460653  0.04981992  0.37731564  1.0
  H  H11  1  0.44983396  0.80925007  0.55522205  1.0
  H  H12  1  0.83523097  0.32562793  0.20080248  1.0
  H  H13  1  0.80410047  0.30098055  0.09713466  1.0
  H  H14  1  0.17885921  0.59463090  0.79651115  1.0
  H  H15  1  0.85121336  0.22490125  0.85708084  1.0
  H  H16  1  0.20089661  0.65429862  0.89149530  1.0
  H  H17  1  0.32586768  0.81977011  0.15230795  1.0
  H  H18  1  0.67541613  0.17061910  0.85163178  1.0
  H  H19  1  0.33501483  0.95585853  0.34140516  1.0
  H  H20  1  0.71667249  0.99222891  0.64970167  1.0
  H  H21  1  0.43442135  0.02381015  0.53699154  1.0
  H  H22  1  0.61464141  0.92051766  0.45360827  1.0
  H  H23  1  0.84576334  0.63569154  0.98401353  1.0
  H  H24  1  0.32615391  0.50204167  0.20281703  1.0
  H  H25  1  0.19822110  0.60887823  0.27211667  1.0
  H  H26  1  0.73600556  0.36236211  0.68909548  1.0
  H  H27  1  0.85959177  0.48472422  0.13466609  1.0
  C  C28  1  0.02746739  0.76035060  0.94032696  1.0
  C  C29  1  0.57456729  0.94365342  0.47211902  1.0
  C  C30  1  0.46751580  0.98051851  0.42980411  1.0
  C  C31  1  0.58261203  0.96492304  0.56138416  1.0
  C  C32  1  0.34175149  0.76725911  0.30582637  1.0
  C  C33  1  0.65859009  0.19176966  0.68089550  1.0
  C  C34  1  0.48109349  0.92080774  0.52456164  1.0
  C  C35  1  0.56963791  0.02571208  0.46823760  1.0
  C  C36  1  0.47251953  0.89622277  0.43337643  1.0
  C  C37  1  0.57645464  0.04912729  0.55770257  1.0
  C  C38  1  0.40881100  0.82171705  0.36590870  1.0
  C  C39  1  0.91976282  0.26795853  0.89384011  1.0
  C  C40  1  0.62482975  0.12645204  0.62358504  1.0
  C  C41  1  0.00965072  0.41014977  0.33075251  1.0
  C  C42  1  0.02486698  0.45193389  0.68469467  1.0
  C  C43  1  0.93324704  0.37627069  0.17523790  1.0
  C  C44  1  0.08972504  0.54579663  0.83283992  1.0
  C  C45  1  0.01165720  0.41310746  0.39825122  1.0
  C  C46  1  0.02393679  0.43861123  0.61673980  1.0
  C  C47  1  0.01562192  0.41912388  0.47257480  1.0
  C  C48  1  0.01995605  0.42686561  0.54183250  1.0
  C  C49  1  0.44546174  0.57149891  0.13303999  1.0
  C  C50  1  0.00800561  0.40886049  0.25512854  1.0
  C  C51  1  0.78404725  0.60000256  0.10649811  1.0
  C  C52  1  0.51932276  0.58808504  0.14157645  1.0
  C  C53  1  0.72913997  0.60755117  0.12544692  1.0
  C  C54  1  0.59601156  0.60078985  0.14382144  1.0
  C  C55  1  0.66290768  0.60831343  0.13880645  1.0
  C  C56  1  0.94821940  0.82467055  0.85464769  1.0
  C  C57  1  0.98845563  0.17808586  0.86606577  1.0
  C  C58  1  0.95204108  0.88844813  0.84281197  1.0
  C  C59  1  0.97864551  0.10684629  0.84713738  1.0
  C  C60  1  0.95865710  0.96046551  0.83561375  1.0
  C  C61  1  0.02426727  0.47515271  0.76022658  1.0
  C  C62  1  0.96841145  0.03001179  0.83695609  1.0
  C  C63  1  0.85589255  0.59297113  0.01434053  1.0
  C  C64  1  0.30768341  0.51898076  0.14838939  1.0
  C  C65  1  0.19956885  0.63626809  0.22593148  1.0
  C  C66  1  0.74100546  0.34608626  0.74310577  1.0
  C  C67  1  0.86379365  0.51625789  0.09194924  1.0
  C  C68  1  0.29865404  0.56057241  0.04242515  1.0
  C  C69  1  0.22961866  0.71261842  0.15375967  1.0
  C  C70  1  0.73291210  0.28538514  0.83329362  1.0
  C  C71  1  0.07846585  0.43950750  0.23877396  1.0
  C  C72  1  0.83471374  0.57579531  0.07641377  1.0
  C  C73  1  0.95608835  0.44379264  0.77932833  1.0
  C  C74  1  0.89178974  0.67474623  0.84188864  1.0
  C  C75  1  0.06449996  0.33042629  0.95512095  1.0
  C  C76  1  0.95384725  0.75796884  0.87634579  1.0
  C  C77  1  0.99195080  0.25460199  0.89838909  1.0
  C  C78  1  0.61518060  0.08137895  0.43527018  1.0
  C  C79  1  0.43333200  0.86163375  0.55308261  1.0
  C  C80  1  0.26186310  0.76538009  0.11521926  1.0
  C  C81  1  0.72430425  0.23576498  0.88277571  1.0
  C  C82  1  0.40354893  0.97922461  0.35183643  1.0
  C  C83  1  0.35859159  0.55248649  0.11199556  1.0
  C  C84  1  0.64731191  0.96248716  0.63655386  1.0
  C  C85  1  0.26365197  0.70933046  0.23498267  1.0
  C  C86  1  0.70392859  0.26819454  0.74635461  1.0
  C  C87  1  0.47393512  0.00032991  0.51801793  1.0
  N  N88  1  0.01009128  0.68508197  0.94297078  1.0
  N  N89  1  0.22009297  0.53482710  0.03774488  1.0
  N  N90  1  0.15154363  0.64536054  0.10339352  1.0
  N  N91  1  0.78429772  0.36678484  0.87611001  1.0
  N  N92  1  0.04890651  0.42681947  0.15758088  1.0
  N  N93  1  0.97728574  0.49150046  0.85532018  1.0
  N  N94  1  0.92636202  0.63201926  0.88187010  1.0
  N  N95  1  0.03662781  0.38265734  0.98297150  1.0
  N  N96  1  0.84689127  0.34242818  0.15608023  1.0
  N  N97  1  0.17102885  0.59706097  0.84788368  1.0
  N  N98  1  0.94757200  0.34408017  0.94519411  1.0
  N  N99  1  0.95850962  0.38740339  0.11774718  1.0
  N  N100  1  0.06031371  0.55420097  0.88827864  1.0
  N  N101  1  0.89191455  0.54550108  0.99349736  1.0
  N  N102  1  0.22586087  0.50894237  0.10304262  1.0
  N  N103  1  0.13370841  0.59810763  0.14580368  1.0
  N  N104  1  0.78854950  0.40344730  0.82172281  1.0
  N  N105  1  0.89686052  0.49855620  0.04156642  1.0
  O  O106  1  0.65156247  0.15599929  0.46877193  1.0
  O  O107  1  0.37799541  0.86805394  0.57092486  1.0
  O  O108  1  0.21830572  0.74961560  0.03843190  1.0
  O  O109  1  0.77163860  0.26504672  0.96024297  1.0
  O  O110  1  0.42215510  0.99814245  0.29949046  1.0
  O  O111  1  0.62767432  0.93238107  0.68328250  1.0
