# generated using pymatgen
data_Zn2H8C27N11O6
_symmetry_space_group_name_H-M   'P 1'
_cell_length_a   18.49492826
_cell_length_b   18.55213247
_cell_length_c   18.53698851
_cell_angle_alpha   111.81497823
_cell_angle_beta   100.25801707
_cell_angle_gamma   110.25937928
_symmetry_Int_Tables_number   1
_chemical_formula_structural   Zn2H8C27N11O6
_chemical_formula_sum   'Zn4 H16 C54 N22 O12'
_cell_volume   5184.65424777
_cell_formula_units_Z   2
loop_
 _symmetry_equiv_pos_site_id
 _symmetry_equiv_pos_as_xyz
  1  'x, y, z'
loop_
 _atom_site_type_symbol
 _atom_site_label
 _atom_site_symmetry_multiplicity
 _atom_site_fract_x
 _atom_site_fract_y
 _atom_site_fract_z
 _atom_site_occupancy
  Zn  Zn0  1  0.99749201  0.13717821  0.63986670  1.0
  Zn  Zn1  1  0.00136017  0.87198002  0.36722981  1.0
  Zn  Zn2  1  0.89085292  0.90575297  0.51232570  1.0
  Zn  Zn3  1  0.08388948  0.10420316  0.47967621  1.0
  H  H4  1  0.97829876  0.12907732  0.80780497  1.0
  H  H5  1  0.89385638  0.85897253  0.20047936  1.0
  H  H6  1  0.98856501  0.87199841  0.63705357  1.0
  H  H7  1  0.13291805  0.29129921  0.47768521  1.0
  H  H8  1  0.26520864  0.15406513  0.58750844  1.0
  H  H9  1  0.68722622  0.75446169  0.37688568  1.0
  H  H10  1  0.10583025  0.80490336  0.45695704  1.0
  H  H11  1  0.03400436  0.33806238  0.67643603  1.0
  H  H12  1  0.27361717  0.16293243  0.45246251  1.0
  H  H13  1  0.74136658  0.90133024  0.37593299  1.0
  H  H14  1  0.81774853  0.85425723  0.64540975  1.0
  H  H15  1  0.96704915  0.12993802  0.36239746  1.0
  H  H16  1  0.42596701  0.37180283  0.98620169  1.0
  H  H17  1  0.56710905  0.62958167  0.95450441  1.0
  H  H18  1  0.41764386  0.53201808  0.06143537  1.0
  H  H19  1  0.57653197  0.47062933  0.87937643  1.0
  C  C20  1  0.94232856  0.06367433  0.75648815  1.0
  C  C21  1  0.91641026  0.92276382  0.25271772  1.0
  C  C22  1  0.18346280  0.95151867  0.37710185  1.0
  C  C23  1  0.83463131  0.09673633  0.53403465  1.0
  C  C24  1  0.01231596  0.86286294  0.58653286  1.0
  C  C25  1  0.10611332  0.28858516  0.52476842  1.0
  C  C26  1  0.22637022  0.16140034  0.62441550  1.0
  C  C27  1  0.73642631  0.75486445  0.35240817  1.0
  C  C28  1  0.07292964  0.82957900  0.49467552  1.0
  C  C29  1  0.05556801  0.31232754  0.62655899  1.0
  C  C30  1  0.17242886  0.19898919  0.71988826  1.0
  C  C31  1  0.81492391  0.73828391  0.27786248  1.0
  C  C32  1  0.23591566  0.09369487  0.42854795  1.0
  C  C33  1  0.78020411  0.96437161  0.42981895  1.0
  C  C34  1  0.85972309  0.92306750  0.67343911  1.0
  C  C35  1  0.95424064  0.06194992  0.33470616  1.0
  C  C36  1  0.89016523  0.98735712  0.75692102  1.0
  C  C37  1  0.91436285  0.99750959  0.25091808  1.0
  C  C38  1  0.25846489  0.02564089  0.40070011  1.0
  C  C39  1  0.76095598  0.03385555  0.46529483  1.0
  C  C40  1  0.06191370  0.82125247  0.56515566  1.0
  C  C41  1  0.09120017  0.35237571  0.58147911  1.0
  C  C42  1  0.24937729  0.22060378  0.70808664  1.0
  C  C43  1  0.73094168  0.71613990  0.26917078  1.0
  C  C44  1  0.55156328  0.47807220  0.00132522  1.0
  C  C45  1  0.44187531  0.52200976  0.93860148  1.0
  C  C46  1  0.45744312  0.42982708  0.98012040  1.0
  C  C47  1  0.53679863  0.57188734  0.96161379  1.0
  C  C48  1  0.32495882  0.29116919  0.76512154  1.0
  C  C49  1  0.66279385  0.67051848  0.19546678  1.0
  C  C50  1  0.54080003  0.48365662  0.91913394  1.0
  C  C51  1  0.45296834  0.51770522  0.02156482  1.0
  C  C52  1  0.44429753  0.43135741  0.89374204  1.0
  C  C53  1  0.54955631  0.56923206  0.04755805  1.0
  C  C54  1  0.38420464  0.35770441  0.81978899  1.0
  C  C55  1  0.60798622  0.63128119  0.12766930  1.0
  C  C56  1  0.33516454  0.03058211  0.40038177  1.0
  C  C57  1  0.68595449  0.03597716  0.44377397  1.0
  C  C58  1  0.40344347  0.03404696  0.40376860  1.0
  C  C59  1  0.61846506  0.03621757  0.42933382  1.0
  C  C60  1  0.47715412  0.03598328  0.40957197  1.0
  C  C61  1  0.54515045  0.03634272  0.41735426  1.0
  C  C62  1  0.10470009  0.43499580  0.59113825  1.0
  C  C63  1  0.08588017  0.77081280  0.59511372  1.0
  C  C64  1  0.11122047  0.50671030  0.60127594  1.0
  C  C65  1  0.10064281  0.71538669  0.60676030  1.0
  C  C66  1  0.11338297  0.58218815  0.60869578  1.0
  C  C67  1  0.11018867  0.64873058  0.61173159  1.0
  C  C68  1  0.87485652  0.98122215  0.82615378  1.0
  C  C69  1  0.88859284  0.00321677  0.17825648  1.0
  C  C70  1  0.86738768  0.98378917  0.89161549  1.0
  C  C71  1  0.87422805  0.99911190  0.10898196  1.0
  C  C72  1  0.86371115  0.98806580  0.96455022  1.0
  C  C73  1  0.86556624  0.99427725  0.03373588  1.0
  N  N74  1  0.94261051  0.04605666  0.67974364  1.0
  N  N75  1  0.95541069  0.94196376  0.33050268  1.0
  N  N76  1  0.12379659  0.97375004  0.39052669  1.0
  N  N77  1  0.89081078  0.06682740  0.53740684  1.0
  N  N78  1  0.99403728  0.89132504  0.53167496  1.0
  N  N79  1  0.08123775  0.21737199  0.53605423  1.0
  N  N80  1  0.14313088  0.11139334  0.59052294  1.0
  N  N81  1  0.81670055  0.79653417  0.40317561  1.0
  N  N82  1  0.03177601  0.87063814  0.47525942  1.0
  N  N83  1  0.04965397  0.23205063  0.59877497  1.0
  N  N84  1  0.11047021  0.13433977  0.64958390  1.0
  N  N85  1  0.86460714  0.78639824  0.35730335  1.0
  N  N86  1  0.15593337  0.06089259  0.42211910  1.0
  N  N87  1  0.85756265  0.98546706  0.47473639  1.0
  N  N88  1  0.89114118  0.95911412  0.62805617  1.0
  N  N89  1  0.97917941  0.02786005  0.38143851  1.0
  N  N90  1  0.61378067  0.46086899  0.04261636  1.0
  N  N91  1  0.38213286  0.54303095  0.89812872  1.0
  N  N92  1  0.16485687  0.86205044  0.34484641  1.0
  N  N93  1  0.85079017  0.17638702  0.60155843  1.0
  N  N94  1  0.15362486  0.24384883  0.78888695  1.0
  N  N95  1  0.85171933  0.72114500  0.21662091  1.0
  O  O96  1  0.67301379  0.46579086  0.01891531  1.0
  O  O97  1  0.60361067  0.44687952  0.10144657  1.0
  O  O98  1  0.33333333  0.55824603  0.93191638  1.0
  O  O99  1  0.38514074  0.54210814  0.83147183  1.0
  O  O100  1  0.22018902  0.84073939  0.33596155  1.0
  O  O101  1  0.09144266  0.80904512  0.32785788  1.0
  O  O102  1  0.80191725  0.20720206  0.59613563  1.0
  O  O103  1  0.91415769  0.20986751  0.66500259  1.0
  O  O104  1  0.20934333  0.29501402  0.85682194  1.0
  O  O105  1  0.07915356  0.23020901  0.77587145  1.0
  O  O106  1  0.80773415  0.67385900  0.14291454  1.0
  O  O107  1  0.93021196  0.75759788  0.24118694  1.0
