# generated using pymatgen
data_ZnPH14C14NO5
_symmetry_space_group_name_H-M   'P 1'
_cell_length_a   9.71796518
_cell_length_b   10.01550948
_cell_length_c   19.17299347
_cell_angle_alpha   74.87552786
_cell_angle_beta   81.01918003
_cell_angle_gamma   89.99740069
_symmetry_Int_Tables_number   1
_chemical_formula_structural   ZnPH14C14NO5
_chemical_formula_sum   'Zn4 P4 H56 C56 N4 O20'
_cell_volume   1777.76940727
_cell_formula_units_Z   4
loop_
 _symmetry_equiv_pos_site_id
 _symmetry_equiv_pos_as_xyz
  1  'x, y, z'
loop_
 _atom_site_type_symbol
 _atom_site_label
 _atom_site_symmetry_multiplicity
 _atom_site_fract_x
 _atom_site_fract_y
 _atom_site_fract_z
 _atom_site_occupancy
  Zn  Zn0  1  0.55884512  0.68045741  0.52784873  1.0
  Zn  Zn1  1  0.94126736  0.20845159  0.47190984  1.0
  Zn  Zn2  1  0.44115322  0.31954386  0.47215218  1.0
  Zn  Zn3  1  0.05873215  0.79155278  0.52809055  1.0
  P  P4  1  0.29445392  0.60872149  0.46500421  1.0
  P  P5  1  0.20540177  0.07377681  0.53489936  1.0
  P  P6  1  0.70554641  0.39127770  0.53499631  1.0
  P  P7  1  0.79459756  0.92622344  0.46510318  1.0
  H  H8  1  0.20780197  0.59103341  0.28458549  1.0
  H  H9  1  0.29209497  0.87560594  0.71524393  1.0
  H  H10  1  0.79219845  0.40896787  0.71541630  1.0
  H  H11  1  0.70791188  0.12439949  0.28475782  1.0
  H  H12  1  0.33917312  0.74519924  0.33719984  1.0
  H  H13  1  0.16071032  0.08252121  0.66270774  1.0
  H  H14  1  0.66082626  0.25480204  0.66280203  1.0
  H  H15  1  0.83928892  0.91747695  0.33729406  1.0
  H  H16  1  0.39535763  0.57271889  0.34654638  1.0
  H  H17  1  0.10444007  0.91939385  0.65336310  1.0
  H  H18  1  0.60464266  0.42727926  0.65345429  1.0
  H  H19  1  0.89556231  0.08060433  0.34663896  1.0
  H  H20  1  0.05338702  0.46596821  0.42894801  1.0
  H  H21  1  0.44650191  0.89503766  0.57085748  1.0
  H  H22  1  0.94661444  0.53403306  0.57105265  1.0
  H  H23  1  0.55349942  0.10496049  0.42914259  1.0
  H  H24  1  0.20872559  0.39167518  0.39618049  1.0
  H  H25  1  0.29118705  0.78798572  0.60354097  1.0
  H  H26  1  0.79127266  0.60832402  0.60382124  1.0
  H  H27  1  0.70881125  0.21201450  0.39645852  1.0
  H  H28  1  0.98536688  0.66389171  0.31626755  1.0
  H  H29  1  0.51443558  0.98027014  0.68359828  1.0
  H  H30  1  0.01463463  0.33611059  0.68373297  1.0
  H  H31  1  0.48556919  0.01973522  0.31639791  1.0
  H  H32  1  0.03521672  0.70425040  0.39423106  1.0
  H  H33  1  0.46453045  0.09861119  0.60569438  1.0
  H  H34  1  0.96478166  0.29575189  0.60576866  1.0
  H  H35  1  0.53547219  0.90139313  0.39430108  1.0
  H  H36  1  0.16924475  0.91152974  0.38420292  1.0
  H  H37  1  0.33026615  0.29573825  0.61583430  1.0
  H  H38  1  0.83075373  0.08847461  0.61579599  1.0
  H  H39  1  0.66973237  0.70426713  0.38416394  1.0
  H  H40  1  0.24485597  0.15046228  0.31436888  1.0
  H  H41  1  0.25487003  0.46480545  0.68581914  1.0
  H  H42  1  0.75513838  0.84954311  0.68563021  1.0
  H  H43  1  0.74512935  0.53519581  0.31418117  1.0
  H  H44  1  0.23563063  0.22882665  0.18137476  1.0
  H  H45  1  0.26452579  0.41012931  0.81874879  1.0
  H  H46  1  0.76436350  0.77117355  0.81862402  1.0
  H  H47  1  0.73547146  0.58987091  0.18125131  1.0
  H  H48  1  0.18716029  0.17913685  0.06893252  1.0
  H  H49  1  0.31314123  0.24805235  0.93111757  1.0
  H  H50  1  0.81284018  0.82086543  0.93106599  1.0
  H  H51  1  0.68685259  0.75194059  0.06888121  1.0
  H  H52  1  0.11207820  0.01482909  0.00392345  1.0
  H  H53  1  0.38838209  0.01879279  0.99602233  1.0
  H  H54  1  0.88792278  0.98516078  0.99607780  1.0
  H  H55  1  0.61160761  0.98120118  0.00397506  1.0
  H  H56  1  0.03755071  0.77186482  0.07259658  1.0
  H  H57  1  0.46288260  0.84454303  0.92720517  1.0
  H  H58  1  0.96245131  0.22812504  0.92740511  1.0
  H  H59  1  0.53711244  0.15545404  0.07279137  1.0
  H  H60  1  0.04205088  0.69040461  0.20416667  1.0
  H  H61  1  0.45790212  0.89463472  0.79569218  1.0
  H  H62  1  0.95795141  0.30959148  0.79583518  1.0
  H  H63  1  0.54210465  0.10536855  0.20430205  1.0
  C  C64  1  0.31176057  0.63605500  0.36444534  1.0
  C  C65  1  0.18804993  0.00058408  0.63544812  1.0
  C  C66  1  0.68823980  0.36394524  0.63555608  1.0
  C  C67  1  0.81195239  0.99941308  0.36455513  1.0
  C  C68  1  0.04875324  0.39358123  0.33042464  1.0
  C  C69  1  0.45109564  0.72412579  0.66935304  1.0
  C  C70  1  0.95124414  0.60642210  0.66957554  1.0
  C  C71  1  0.54890360  0.27587241  0.33065188  1.0
  C  C72  1  0.12283026  0.45723066  0.37959268  1.0
  C  C73  1  0.37703003  0.83692713  0.62019098  1.0
  C  C74  1  0.87717012  0.54276957  0.62040769  1.0
  C  C75  1  0.62296926  0.16307205  0.37980859  1.0
  C  C76  1  0.07035352  0.70513826  0.33709139  1.0
  C  C77  1  0.42940904  0.04231989  0.66281615  1.0
  C  C78  1  0.92964794  0.29486301  0.66290928  1.0
  C  C79  1  0.57059681  0.95768654  0.33718189  1.0
  C  C80  1  0.12050132  0.84767154  0.29172089  1.0
  C  C81  1  0.37931229  0.13946762  0.70824771  1.0
  C  C82  1  0.87949802  0.15232869  0.70828061  1.0
  C  C83  1  0.62069357  0.86053880  0.29174929  1.0
  C  C84  1  0.16701474  0.94191977  0.32553494  1.0
  C  C85  1  0.33263224  0.26747470  0.67449789  1.0
  C  C86  1  0.83298161  0.05808356  0.67446480  1.0
  C  C87  1  0.66737148  0.73253069  0.32549994  1.0
  C  C88  1  0.20997991  0.07892451  0.28590558  1.0
  C  C89  1  0.28989116  0.36482874  0.71419953  1.0
  C  C90  1  0.79001648  0.92107983  0.71409350  1.0
  C  C91  1  0.71010726  0.63517459  0.28579952  1.0
  C  C92  1  0.20503260  0.12225332  0.21203640  1.0
  C  C93  1  0.29510193  0.33426011  0.78804092  1.0
  C  C94  1  0.79496061  0.87775001  0.78796411  1.0
  C  C95  1  0.70489750  0.66574219  0.21195977  1.0
  C  C96  1  0.15920373  0.02961056  0.17482725  1.0
  C  C97  1  0.34099366  0.20443584  0.82517599  1.0
  C  C98  1  0.84079765  0.97038861  0.82517111  1.0
  C  C99  1  0.65900350  0.79556228  0.17482233  1.0
  C  C100  1  0.15481283  0.07237307  0.09865685  1.0
  C  C101  1  0.34546460  0.17104557  0.90134927  1.0
  C  C102  1  0.84518624  0.92762094  0.90134292  1.0
  C  C103  1  0.65452744  0.82895462  0.09864916  1.0
  C  C104  1  0.11211311  0.98131779  0.06267044  1.0
  C  C105  1  0.38820981  0.04401113  0.93728761  1.0
  C  C106  1  0.88788488  0.01867517  0.93733009  1.0
  C  C107  1  0.61178319  0.95598698  0.06270999  1.0
  C  C108  1  0.07111518  0.84327104  0.10160134  1.0
  C  C109  1  0.42917114  0.94492628  0.89830783  1.0
  C  C110  1  0.92888796  0.15672092  0.89840258  1.0
  C  C111  1  0.57082928  0.05507495  0.10168980  1.0
  C  C112  1  0.07334682  0.79789224  0.17582963  1.0
  C  C113  1  0.42677587  0.97378456  0.82408716  1.0
  C  C114  1  0.92665646  0.20210284  0.82417384  1.0
  C  C115  1  0.57323402  0.02621874  0.17590891  1.0
  C  C116  1  0.11703060  0.88906356  0.21468593  1.0
  C  C117  1  0.38304726  0.10378596  0.78525444  1.0
  C  C118  1  0.88297186  0.11093668  0.78531532  1.0
  C  C119  1  0.61695099  0.89621321  0.21474416  1.0
  N  N120  1  0.18297685  0.59827320  0.33815048  1.0
  N  N121  1  0.31685420  0.93649655  0.66169944  1.0
  N  N122  1  0.81702661  0.40172599  0.66185032  1.0
  N  N123  1  0.68315152  0.06350680  0.33830112  1.0
  O  O124  1  0.40275298  0.71158226  0.47385971  1.0
  O  O125  1  0.09725941  0.18564170  0.52599459  1.0
  O  O126  1  0.59724739  0.28841796  0.52614067  1.0
  O  O127  1  0.90274097  0.81435852  0.47400631  1.0
  O  O128  1  0.32181143  0.45708220  0.49925811  1.0
  O  O129  1  0.17793709  0.95635975  0.50065494  1.0
  O  O130  1  0.67818895  0.54291803  0.50074331  1.0
  O  O131  1  0.82206750  0.04364152  0.49934548  1.0
  O  O132  1  0.14456321  0.63955923  0.49250714  1.0
  O  O133  1  0.35533639  0.13199222  0.50743727  1.0
  O  O134  1  0.85543816  0.36043996  0.50749382  1.0
  O  O135  1  0.64466381  0.86800387  0.49256421  1.0
  O  O136  1  0.97523948  0.28060055  0.36358160  1.0
  O  O137  1  0.52461592  0.64427161  0.63618221  1.0
  O  O138  1  0.02476198  0.71940071  0.63641750  1.0
  O  O139  1  0.47538220  0.35572449  0.36382048  1.0
  O  O140  1  0.06654527  0.45022330  0.26356464  1.0
  O  O141  1  0.43319289  0.71391483  0.73620495  1.0
  O  O142  1  0.93345316  0.54978004  0.73643650  1.0
  O  O143  1  0.56680337  0.28608640  0.26379300  1.0
