# generated using pymatgen
data_CuH7C9N2
_symmetry_space_group_name_H-M   'P 1'
_cell_length_a   27.78947878
_cell_length_b   29.77092509
_cell_length_c   30.75881038
_cell_angle_alpha   90.24653918
_cell_angle_beta   92.29695547
_cell_angle_gamma   90.65304012
_symmetry_Int_Tables_number   1
_chemical_formula_structural   CuH7C9N2
_chemical_formula_sum   'Cu12 H84 C108 N24'
_cell_volume   25424.94626630
_cell_formula_units_Z   12
loop_
 _symmetry_equiv_pos_site_id
 _symmetry_equiv_pos_as_xyz
  1  'x, y, z'
loop_
 _atom_site_type_symbol
 _atom_site_label
 _atom_site_symmetry_multiplicity
 _atom_site_fract_x
 _atom_site_fract_y
 _atom_site_fract_z
 _atom_site_occupancy
  Cu  Cu0  1  0.14682792  0.22070051  0.78056969  1.0
  Cu  Cu1  1  0.23496022  0.15727477  0.79987957  1.0
  Cu  Cu2  1  0.21297852  0.23560156  0.86645629  1.0
  Cu  Cu3  1  0.88975683  0.22311405  0.21978279  1.0
  Cu  Cu4  1  0.80865980  0.14865821  0.21415911  1.0
  Cu  Cu5  1  0.80146274  0.23847089  0.15626297  1.0
  Cu  Cu6  1  0.81426213  0.75736890  0.73343325  1.0
  Cu  Cu7  1  0.72673775  0.82204398  0.74019163  1.0
  Cu  Cu8  1  0.75566053  0.76056986  0.82063022  1.0
  Cu  Cu9  1  0.14269914  0.77884110  0.23007708  1.0
  Cu  Cu10  1  0.20912567  0.86562933  0.24307590  1.0
  Cu  Cu11  1  0.23946342  0.78687727  0.18064616  1.0
  H  H12  1  0.09239049  0.16744501  0.70357559  1.0
  H  H13  1  0.21833505  0.08444537  0.72394361  1.0
  H  H14  1  0.17006222  0.32598574  0.90180368  1.0
  H  H15  1  0.08024605  0.30671069  0.78466727  1.0
  H  H16  1  0.32499950  0.11359062  0.84678032  1.0
  H  H17  1  0.28382449  0.20724032  0.94653150  1.0
  H  H18  1  0.94280564  0.19826351  0.30908564  1.0
  H  H19  1  0.83773083  0.08966618  0.29818905  1.0
  H  H20  1  0.83513235  0.32772527  0.10730141  1.0
  H  H21  1  0.96502977  0.29285532  0.18166827  1.0
  H  H22  1  0.72406626  0.09130802  0.16847202  1.0
  H  H23  1  0.70260374  0.21963974  0.10501577  1.0
  H  H24  1  0.86988411  0.80206605  0.65645567  1.0
  H  H25  1  0.75174309  0.89432406  0.66899784  1.0
  H  H26  1  0.81346857  0.68902916  0.87745010  1.0
  H  H27  1  0.88517599  0.67733576  0.75542018  1.0
  H  H28  1  0.63057036  0.86455059  0.77259284  1.0
  H  H29  1  0.68369352  0.79876878  0.89014000  1.0
  H  H30  1  0.07054494  0.79223497  0.30642406  1.0
  H  H31  1  0.16077029  0.91110028  0.32405881  1.0
  H  H32  1  0.22934145  0.70246494  0.11710387  1.0
  H  H33  1  0.08965815  0.70065192  0.17496853  1.0
  H  H34  1  0.27703091  0.94425582  0.20764070  1.0
  H  H35  1  0.33291796  0.82828840  0.14157007  1.0
  H  H36  1  0.51977005  0.07853836  0.00236909  1.0
  H  H37  1  0.55196778  0.94498419  0.05020398  1.0
  H  H38  1  0.50620112  0.98050086  0.91884473  1.0
  H  H39  1  0.41038013  0.99181106  0.00977956  1.0
  H  H40  1  0.09401326  0.01587443  0.52400396  1.0
  H  H41  1  0.97031453  0.94497737  0.46602219  1.0
  H  H42  1  0.97394949  0.08308516  0.51028377  1.0
  H  H43  1  0.98556532  0.98818905  0.60028122  1.0
  H  H44  1  0.01070297  0.51833988  0.90000902  1.0
  H  H45  1  0.95135517  0.55032894  0.02436194  1.0
  H  H46  1  0.10170699  0.52663416  0.00179293  1.0
  H  H47  1  0.01147620  0.42296583  0.98778778  1.0
  H  H48  1  0.07004868  0.11853719  0.64108736  1.0
  H  H49  1  0.09689475  0.02662193  0.60058137  1.0
  H  H50  1  0.15226524  0.05192561  0.66006349  1.0
  H  H51  1  0.01351623  0.09210357  0.58232491  1.0
  H  H52  1  0.88801736  0.05411936  0.36551655  1.0
  H  H53  1  0.96080230  0.09370902  0.43534423  1.0
  H  H54  1  0.94472562  0.14302166  0.37892549  1.0
  H  H55  1  0.91714496  0.99852314  0.42553199  1.0
  H  H56  1  0.89092398  0.85296588  0.58791608  1.0
  H  H57  1  0.89810424  0.95741568  0.58861847  1.0
  H  H58  1  0.83253940  0.92919412  0.62760052  1.0
  H  H59  1  0.94832809  0.88835579  0.53167646  1.0
  H  H60  1  0.12124538  0.92069576  0.39499610  1.0
  H  H61  1  0.01857824  0.90638000  0.42912757  1.0
  H  H62  1  0.03976583  0.85330318  0.36966162  1.0
  H  H63  1  0.10647890  0.96494941  0.45817208  1.0
  H  H64  1  0.13378892  0.40049651  0.90731911  1.0
  H  H65  1  0.03292508  0.44178124  0.88733725  1.0
  H  H66  1  0.05255538  0.37821851  0.83921794  1.0
  H  H67  1  0.11184010  0.45765819  0.95915737  1.0
  H  H68  1  0.06429743  0.64271450  0.11599000  1.0
  H  H69  1  0.11334923  0.58961515  0.04313484  1.0
  H  H70  1  0.16652380  0.64000194  0.08065498  1.0
  H  H71  1  0.00860576  0.58993278  0.07230589  1.0
  H  H72  1  0.88378817  0.40133286  0.08706000  1.0
  H  H73  1  0.99188470  0.41340097  0.06640572  1.0
  H  H74  1  0.97849997  0.35553632  0.11644535  1.0
  H  H75  1  0.90489750  0.47261230  0.04183259  1.0
  H  H76  1  0.87283478  0.63087787  0.90708418  1.0
  H  H77  1  0.95872900  0.57562424  0.87490948  1.0
  H  H78  1  0.92203596  0.62211468  0.81938869  1.0
  H  H79  1  0.91240528  0.58415430  0.96384660  1.0
  H  H80  1  0.38869568  0.09022352  0.89562050  1.0
  H  H81  1  0.41880173  0.08780615  0.99416105  1.0
  H  H82  1  0.35452332  0.14424546  0.97408149  1.0
  H  H83  1  0.44770154  0.03498576  0.91315480  1.0
  H  H84  1  0.63026395  0.85996315  0.93046574  1.0
  H  H85  1  0.54143871  0.91624759  0.90106842  1.0
  H  H86  1  0.57740983  0.88176279  0.84320089  1.0
  H  H87  1  0.59209965  0.90590824  0.99134825  1.0
  H  H88  1  0.40442828  0.88066974  0.12353998  1.0
  H  H89  1  0.40351524  0.97932307  0.09044277  1.0
  H  H90  1  0.34328721  0.96367852  0.14261929  1.0
  H  H91  1  0.47496915  0.90264111  0.07703572  1.0
  H  H92  1  0.65737719  0.06106604  0.11556637  1.0
  H  H93  1  0.57944234  0.10049890  0.05189186  1.0
  H  H94  1  0.63401171  0.15592083  0.08138387  1.0
  H  H95  1  0.60159042  0.00365163  0.08072638  1.0
  C  C96  1  0.12621039  0.15208379  0.71373559  1.0
  C  C97  1  0.14779431  0.11277633  0.69841033  1.0
  C  C98  1  0.19042311  0.10964986  0.72444515  1.0
  C  C99  1  0.15272119  0.31521245  0.87121559  1.0
  C  C100  1  0.11422940  0.33463792  0.84705686  1.0
  C  C101  1  0.10656302  0.30502544  0.81164545  1.0
  C  C102  1  0.30956794  0.13973879  0.86637213  1.0
  C  C103  1  0.32061550  0.15247604  0.90981840  1.0
  C  C104  1  0.28825034  0.18742784  0.91726881  1.0
  C  C105  1  0.91403539  0.17471479  0.29980867  1.0
  C  C106  1  0.89861394  0.13596724  0.32160123  1.0
  C  C107  1  0.86080534  0.11887126  0.29418006  1.0
  C  C108  1  0.86247304  0.31408066  0.12952709  1.0
  C  C109  1  0.91147079  0.32621025  0.13552235  1.0
  C  C110  1  0.92897154  0.29572458  0.16706831  1.0
  C  C111  1  0.72556099  0.12551565  0.15650506  1.0
  C  C112  1  0.69485743  0.14748906  0.12604483  1.0
  C  C113  1  0.71456374  0.19121935  0.12447202  1.0
  C  C114  1  0.83687104  0.81927390  0.66357881  1.0
  C  C115  1  0.82026195  0.86140985  0.64917117  1.0
  C  C116  1  0.77694894  0.86671740  0.67073783  1.0
  C  C117  1  0.82612415  0.69149110  0.84461512  1.0
  C  C118  1  0.86325425  0.66808888  0.82467787  1.0
  C  C119  1  0.86252508  0.68563468  0.78220212  1.0
  C  C120  1  0.64950795  0.84483745  0.79734605  1.0
  C  C121  1  0.64089641  0.84132974  0.84202769  1.0
  C  C122  1  0.67688916  0.81183551  0.85762472  1.0
  C  C123  1  0.09714423  0.81911427  0.30494110  1.0
  C  C124  1  0.10349120  0.85743238  0.33162361  1.0
  C  C125  1  0.14357360  0.87951215  0.31433465  1.0
  C  C126  1  0.19779481  0.70773638  0.13612920  1.0
  C  C127  1  0.15259986  0.68581284  0.13287112  1.0
  C  C128  1  0.12630702  0.70678049  0.16540597  1.0
  C  C129  1  0.28510894  0.91122833  0.19490281  1.0
  C  C130  1  0.32082132  0.89879923  0.16606189  1.0
  C  C131  1  0.31430217  0.85197775  0.16168443  1.0
  C  C132  1  0.47858722  0.01629577  0.97795338  1.0
  C  C133  1  0.51659128  0.04228982  0.00605429  1.0
  C  C134  1  0.54398867  0.01643520  0.03302107  1.0
  C  C135  1  0.52997729  0.96625957  0.02842599  1.0
  C  C136  1  0.50745297  0.98100095  0.95428755  1.0
  C  C137  1  0.53465138  0.95396389  0.98014531  1.0
  C  C138  1  0.44948289  0.98974977  0.01089939  1.0
  C  C139  1  0.47604963  0.96352349  0.03792631  1.0
  C  C140  1  0.01740812  0.02846698  0.54503859  1.0
  C  C141  1  0.05645869  0.00548234  0.51928641  1.0
  C  C142  1  0.03996482  0.97483819  0.48952597  1.0
  C  C143  1  0.98480617  0.96967429  0.48971898  1.0
  C  C144  1  0.98286880  0.04754505  0.50991142  1.0
  C  C145  1  0.96618453  0.01741939  0.47985613  1.0
  C  C146  1  0.98884528  0.98969969  0.56517918  1.0
  C  C147  1  0.97104566  0.95902538  0.53638599  1.0
  C  C148  1  0.04114388  0.48995296  0.96392489  1.0
  C  C149  1  0.00641900  0.51756072  0.93503518  1.0
  C  C150  1  0.97335681  0.54060828  0.95692488  1.0
  C  C151  1  0.97817121  0.53202355  0.00624926  1.0
  C  C152  1  0.06272493  0.52333083  0.99742804  1.0
  C  C153  1  0.03016167  0.54604733  0.02018623  1.0
  C  C154  1  0.00810456  0.45926417  0.99021666  1.0
  C  C155  1  0.97531170  0.48099260  0.01317747  1.0
  C  C156  1  0.13102961  0.08229422  0.66426314  1.0
  C  C157  1  0.09156773  0.08823126  0.63759067  1.0
  C  C158  1  0.07531055  0.05688945  0.60428581  1.0
  C  C159  1  0.03554979  0.06221738  0.57822987  1.0
  C  C160  1  0.91928796  0.11979320  0.36214978  1.0
  C  C161  1  0.91216401  0.07917434  0.38118792  1.0
  C  C162  1  0.93747828  0.06729991  0.42078797  1.0
  C  C163  1  0.93761631  0.02650480  0.44067993  1.0
  C  C164  1  0.84380644  0.89442865  0.62286998  1.0
  C  C165  1  0.87993147  0.88730484  0.59520601  1.0
  C  C166  1  0.90636076  0.92372483  0.57674443  1.0
  C  C167  1  0.94145544  0.92067358  0.54731975  1.0
  C  C168  1  0.07426309  0.87102682  0.36706336  1.0
  C  C169  1  0.08596750  0.90407164  0.39647054  1.0
  C  C170  1  0.05516166  0.92039779  0.42910690  1.0
  C  C171  1  0.06909653  0.95290292  0.45857097  1.0
  C  C172  1  0.08686467  0.37397327  0.85741370  1.0
  C  C173  1  0.09919934  0.40396586  0.88936757  1.0
  C  C174  1  0.06786428  0.43818971  0.90470430  1.0
  C  C175  1  0.07735375  0.46237516  0.94132814  1.0
  C  C176  1  0.13832681  0.65128354  0.10191972  1.0
  C  C177  1  0.09372538  0.63225346  0.09573015  1.0
  C  C178  1  0.08313205  0.59919586  0.06287700  1.0
  C  C179  1  0.03933969  0.57956181  0.05362162  1.0
  C  C180  1  0.93938329  0.35974446  0.11373651  1.0
  C  C181  1  0.92248632  0.39478892  0.08955545  1.0
  C  C182  1  0.95389035  0.42292929  0.06551599  1.0
  C  C183  1  0.94149791  0.45939446  0.04113690  1.0
  C  C184  1  0.89598642  0.63488462  0.84207021  1.0
  C  C185  1  0.89827417  0.61878151  0.88350398  1.0
  C  C186  1  0.93324079  0.58711650  0.89871986  1.0
  C  C187  1  0.93761486  0.57154148  0.94031015  1.0
  C  C188  1  0.35543574  0.13300241  0.94019205  1.0
  C  C189  1  0.38747754  0.10111566  0.92962445  1.0
  C  C190  1  0.41939850  0.07811711  0.95977278  1.0
  C  C191  1  0.44799689  0.04429193  0.94765603  1.0
  C  C192  1  0.60478130  0.86575205  0.86436330  1.0
  C  C193  1  0.60288398  0.87387897  0.90791212  1.0
  C  C194  1  0.56810257  0.90345114  0.92499040  1.0
  C  C195  1  0.56664341  0.91912086  0.96663092  1.0
  C  C196  1  0.35311908  0.92816722  0.14361290  1.0
  C  C197  1  0.39254641  0.91560044  0.12187565  1.0
  C  C198  1  0.41810064  0.94547051  0.09434762  1.0
  C  C199  1  0.45728895  0.93492237  0.07128713  1.0
  C  C200  1  0.65373128  0.13078150  0.10068579  1.0
  C  C201  1  0.63811837  0.08728819  0.09732778  1.0
  C  C202  1  0.59817870  0.07356657  0.06957596  1.0
  C  C203  1  0.58279859  0.03034554  0.06277776  1.0
  N  N204  1  0.19393238  0.14436876  0.75275546  1.0
  N  N205  1  0.15394556  0.17063910  0.74605709  1.0
  N  N206  1  0.13807636  0.27092692  0.81447201  1.0
  N  N207  1  0.16663605  0.27727496  0.85159399  1.0
  N  N208  1  0.26035909  0.19483711  0.88113820  1.0
  N  N209  1  0.27358912  0.16500593  0.84960846  1.0
  N  N210  1  0.85459316  0.14543236  0.25906356  1.0
  N  N211  1  0.88787644  0.18000008  0.26246378  1.0
  N  N212  1  0.89323075  0.26806892  0.17903671  1.0
  N  N213  1  0.85197390  0.27925656  0.15547406  1.0
  N  N214  1  0.75384424  0.19481825  0.15144764  1.0
  N  N215  1  0.76052782  0.15395599  0.17147257  1.0
  N  N216  1  0.76856274  0.83071599  0.69587062  1.0
  N  N217  1  0.80604533  0.80136201  0.69167266  1.0
  N  N218  1  0.82804973  0.71688989  0.77737038  1.0
  N  N219  1  0.80544167  0.72049104  0.81623093  1.0
  N  N220  1  0.70462226  0.79930407  0.82481746  1.0
  N  N221  1  0.68782984  0.82007598  0.78737571  1.0
  N  N222  1  0.15949467  0.85611363  0.28030022  1.0
  N  N223  1  0.13073406  0.81845374  0.27451041  1.0
  N  N224  1  0.15375738  0.73849989  0.18597840  1.0
  N  N225  1  0.19822116  0.73920089  0.16776435  1.0
  N  N226  1  0.27761763  0.83796751  0.18576573  1.0
  N  N227  1  0.25964477  0.87476622  0.20672744  1.0
