# generated using pymatgen
data_ZnH13C27NO10F
_symmetry_space_group_name_H-M   'P 1'
_cell_length_a   15.98331539
_cell_length_b   16.52739909
_cell_length_c   17.96812244
_cell_angle_alpha   89.62490603
_cell_angle_beta   89.44280783
_cell_angle_gamma   89.81997422
_symmetry_Int_Tables_number   1
_chemical_formula_structural   ZnH13C27NO10F
_chemical_formula_sum   'Zn2 H26 C54 N2 O20 F2'
_cell_volume   4746.15787747
_cell_formula_units_Z   2
loop_
 _symmetry_equiv_pos_site_id
 _symmetry_equiv_pos_as_xyz
  1  'x, y, z'
loop_
 _atom_site_type_symbol
 _atom_site_label
 _atom_site_symmetry_multiplicity
 _atom_site_fract_x
 _atom_site_fract_y
 _atom_site_fract_z
 _atom_site_occupancy
  Zn  Zn0  1  0.50089863  0.41752570  0.50300471  1.0
  Zn  Zn1  1  0.50350622  0.58700083  0.50260601  1.0
  H  H2  1  0.38341497  0.29361145  0.44514818  1.0
  H  H3  1  0.94245704  0.56606069  0.59771433  1.0
  H  H4  1  0.61502512  0.45499636  0.88295453  1.0
  H  H5  1  0.35085604  0.50634582  0.87774257  1.0
  H  H6  1  0.34913550  0.50410886  0.13102384  1.0
  H  H7  1  0.61416096  0.45589285  0.12284225  1.0
  H  H8  1  0.27784370  0.53055072  0.23571243  1.0
  H  H9  1  0.69557661  0.45152162  0.22424175  1.0
  H  H10  1  0.35222555  0.06601832  0.43375523  1.0
  H  H11  1  0.40617277  0.93903084  0.37934632  1.0
  H  H12  1  0.00910046  0.42300464  0.32717485  1.0
  H  H13  1  0.42807444  0.71123978  0.40532174  1.0
  H  H14  1  0.16279034  0.57987671  0.38189684  1.0
  H  H15  1  0.13207948  0.64440800  0.53581496  1.0
  H  H16  1  0.04167665  0.28902215  0.47566257  1.0
  H  H17  1  0.14105914  0.39118225  0.60774020  1.0
  H  H18  1  0.16609880  0.54078550  0.62840424  1.0
  H  H19  1  0.69655670  0.44918779  0.78130552  1.0
  H  H20  1  0.28143368  0.53541122  0.77527166  1.0
  H  H21  1  0.61165904  0.28465010  0.55268388  1.0
  H  H22  1  0.57754496  0.72019954  0.59232340  1.0
  H  H23  1  0.61269437  0.13223230  0.55283132  1.0
  H  H24  1  0.57699258  0.87246953  0.59151117  1.0
  H  H25  1  0.92315740  0.62520019  0.46124496  1.0
  H  H26  1  0.94234553  0.37024923  0.51116438  1.0
  H  H27  1  0.92342325  0.46183916  0.61226082  1.0
  C  C28  1  0.49517030  0.50523928  0.35725126  1.0
  C  C29  1  0.41464371  0.50643288  0.77166071  1.0
  C  C30  1  0.49151461  0.49763420  0.73296307  1.0
  C  C31  1  0.48234340  0.47975628  0.89122757  1.0
  C  C32  1  0.47905782  0.47431176  0.96977918  1.0
  C  C33  1  0.34107484  0.50329020  0.50288523  1.0
  C  C34  1  0.47862072  0.47411667  0.03767396  1.0
  C  C35  1  0.40930836  0.49731351  0.15871204  1.0
  C  C36  1  0.55723423  0.47038928  0.15414360  1.0
  C  C37  1  0.41280731  0.50723700  0.23593034  1.0
  C  C38  1  0.56196746  0.48051217  0.23112281  1.0
  C  C39  1  0.95556827  0.50548825  0.57568734  1.0
  C  C40  1  0.48968336  0.49933402  0.27348202  1.0
  C  C41  1  0.48122024  0.47946515  0.11616760  1.0
  C  C42  1  0.42859865  0.17146815  0.46375715  1.0
  C  C43  1  0.45518833  0.83336840  0.44054569  1.0
  C  C44  1  0.43333511  0.25577626  0.46773685  1.0
  C  C45  1  0.45979253  0.74906997  0.44576403  1.0
  C  C46  1  0.56065966  0.24980778  0.52898315  1.0
  C  C47  1  0.54387050  0.75486325  0.55026433  1.0
  C  C48  1  0.56099637  0.16594518  0.52851457  1.0
  C  C49  1  0.54321425  0.83876665  0.54956357  1.0
  C  C50  1  0.04984996  0.48866566  0.57605366  1.0
  C  C51  1  0.49383962  0.12486268  0.49559092  1.0
  C  C52  1  0.49784968  0.87996657  0.49407604  1.0
  C  C53  1  0.49712962  0.50352737  0.64903323  1.0
  C  C54  1  0.49355469  0.03929531  0.49423782  1.0
  C  C55  1  0.49553757  0.96552843  0.49316389  1.0
  C  C56  1  0.66325562  0.49740157  0.50289621  1.0
  C  C57  1  0.04737169  0.42109257  0.44780689  1.0
  C  C58  1  0.04942293  0.57580655  0.45866200  1.0
  C  C59  1  0.95439771  0.56796612  0.44728633  1.0
  C  C60  1  0.95325861  0.41562651  0.46694620  1.0
  C  C61  1  0.82939776  0.49818725  0.49841264  1.0
  C  C62  1  0.75361068  0.49730740  0.50139975  1.0
  C  C63  1  0.08569971  0.49502585  0.49284781  1.0
  C  C64  1  0.92002763  0.49770787  0.49587390  1.0
  C  C65  1  0.33243386  0.52674432  0.27402008  1.0
  C  C66  1  0.64608581  0.47155584  0.26472415  1.0
  C  C67  1  0.35605765  0.13314535  0.42703596  1.0
  C  C68  1  0.40677681  0.87148062  0.37948374  1.0
  C  C69  1  0.06405078  0.43169341  0.36304666  1.0
  C  C70  1  0.09832999  0.60465182  0.38706295  1.0
  C  C71  1  0.06873678  0.64728745  0.51042501  1.0
  C  C72  1  0.17582317  0.49641976  0.49329781  1.0
  C  C73  1  0.08841467  0.33818951  0.46589278  1.0
  C  C74  1  0.07289135  0.40483946  0.60807267  1.0
  C  C75  1  0.09658029  0.54411159  0.63129099  1.0
  C  C76  1  0.64808499  0.47050611  0.74100709  1.0
  C  C77  1  0.33358105  0.52262199  0.73495436  1.0
  C  C78  1  0.25094844  0.50340443  0.49919925  1.0
  C  C79  1  0.55833067  0.46972321  0.85220151  1.0
  C  C80  1  0.41097181  0.49832380  0.84928255  1.0
  C  C81  1  0.56352048  0.47939727  0.77493915  1.0
  N  N82  1  0.49753106  0.29360256  0.49968005  1.0
  N  N83  1  0.50273728  0.71106349  0.49926741  1.0
  O  O84  1  0.49252494  0.43699352  0.38985858  1.0
  O  O85  1  0.66301131  0.48461248  0.32956443  1.0
  O  O86  1  0.30383407  0.17079938  0.39163814  1.0
  O  O87  1  0.36998482  0.83314911  0.33207654  1.0
  O  O88  1  0.13346986  0.44643978  0.33821985  1.0
  O  O89  1  0.06908360  0.65372962  0.34418674  1.0
  O  O90  1  0.02202606  0.70436639  0.52048726  1.0
  O  O91  1  0.16307976  0.32561311  0.46763704  1.0
  O  O92  1  0.02182213  0.35705401  0.63320279  1.0
  O  O93  1  0.05972673  0.58406104  0.67800676  1.0
  O  O94  1  0.66666667  0.48499460  0.67624136  1.0
  O  O95  1  0.50214083  0.57440906  0.38593102  1.0
  O  O96  1  0.32055794  0.52180524  0.66799664  1.0
  O  O97  1  0.37412832  0.43343360  0.50507743  1.0
  O  O98  1  0.37726644  0.57152771  0.50346942  1.0
  O  O99  1  0.49706544  0.43545964  0.61700663  1.0
  O  O100  1  0.50119330  0.57332436  0.62009062  1.0
  O  O101  1  0.62747650  0.42865184  0.50294315  1.0
  O  O102  1  0.62806459  0.56653728  0.50372923  1.0
  O  O103  1  0.32350043  0.53853751  0.34063272  1.0
  F  F104  1  0.90857361  0.38734778  0.40530602  1.0
  F  F105  1  0.93617454  0.55120035  0.37234265  1.0
