# generated using pymatgen
data_Mn4H53C65N3O19
_symmetry_space_group_name_H-M   'P 1'
_cell_length_a   13.59391323
_cell_length_b   15.42625785
_cell_length_c   24.10787414
_cell_angle_alpha   100.17212817
_cell_angle_beta   93.54370114
_cell_angle_gamma   102.05686948
_symmetry_Int_Tables_number   1
_chemical_formula_structural   Mn4H53C65N3O19
_chemical_formula_sum   'Mn8 H106 C130 N6 O38'
_cell_volume   4840.61731172
_cell_formula_units_Z   2
loop_
 _symmetry_equiv_pos_site_id
 _symmetry_equiv_pos_as_xyz
  1  'x, y, z'
loop_
 _atom_site_type_symbol
 _atom_site_label
 _atom_site_symmetry_multiplicity
 _atom_site_fract_x
 _atom_site_fract_y
 _atom_site_fract_z
 _atom_site_occupancy
  Mn  Mn0  1  0.82499045  0.35487929  0.67451875  1.0
  Mn  Mn1  1  0.17500301  0.64512123  0.32548035  1.0
  Mn  Mn2  1  0.63231837  0.44411441  0.72646764  1.0
  Mn  Mn3  1  0.36768223  0.55588546  0.27353418  1.0
  Mn  Mn4  1  0.39166454  0.34287027  0.67065449  1.0
  Mn  Mn5  1  0.60833621  0.65713028  0.32934783  1.0
  Mn  Mn6  1  0.18216377  0.29627065  0.73484295  1.0
  Mn  Mn7  1  0.81783318  0.70372585  0.26515419  1.0
  H  H8  1  0.69278664  0.64153860  0.68725406  1.0
  H  H9  1  0.30721192  0.35846465  0.31274474  1.0
  H  H10  1  0.72251860  0.80672052  0.68837879  1.0
  H  H11  1  0.27748191  0.19328477  0.31162115  1.0
  H  H12  1  0.03256484  0.81172116  0.65790442  1.0
  H  H13  1  0.96744238  0.18827540  0.34209524  1.0
  H  H14  1  0.00186286  0.64650530  0.65780577  1.0
  H  H15  1  0.99813621  0.35349120  0.34219478  1.0
  H  H16  1  0.74902393  0.91404273  0.63426525  1.0
  H  H17  1  0.25098130  0.08595450  0.36573233  1.0
  H  H18  1  0.77877612  0.07953497  0.63953350  1.0
  H  H19  1  0.22121849  0.92046149  0.36046809  1.0
  H  H20  1  0.07714341  0.11385057  0.72230831  1.0
  H  H21  1  0.92284612  0.88614923  0.27769303  1.0
  H  H22  1  0.04772515  0.94942630  0.71769845  1.0
  H  H23  1  0.95227861  0.05057428  0.28230193  1.0
  H  H24  1  0.76622209  0.52338958  0.89606257  1.0
  H  H25  1  0.23378485  0.47661778  0.10393665  1.0
  H  H26  1  0.85044780  0.55461468  0.99341601  1.0
  H  H27  1  0.14955865  0.44539065  0.00658295  1.0
  H  H28  1  0.08338390  0.42199220  0.93068241  1.0
  H  H29  1  0.91661057  0.57800024  0.06931498  1.0
  H  H30  1  0.99317949  0.38553534  0.83525203  1.0
  H  H31  1  0.00681583  0.61446048  0.16474454  1.0
  H  H32  1  0.43638484  0.24181694  0.55774033  1.0
  H  H33  1  0.56360479  0.75818017  0.44225988  1.0
  H  H34  1  0.39031067  0.09836530  0.48996777  1.0
  H  H35  1  0.60968725  0.90163525  0.51003029  1.0
  H  H36  1  0.64869964  0.01659024  0.56087784  1.0
  H  H37  1  0.35129776  0.98341372  0.43911560  1.0
  H  H38  1  0.69218767  0.16136194  0.62924277  1.0
  H  H39  1  0.30780646  0.83863793  0.37075256  1.0
  H  H40  1  0.31016874  0.43778681  0.85575752  1.0
  H  H41  1  0.68984650  0.56221585  0.14424651  1.0
  H  H42  1  0.33769476  0.50069785  0.95840184  1.0
  H  H43  1  0.66231989  0.49929941  0.04160238  1.0
  H  H44  1  0.63980044  0.45158094  0.96164517  1.0
  H  H45  1  0.36020829  0.54840956  0.03835304  1.0
  H  H46  1  0.61114395  0.39259124  0.85899529  1.0
  H  H47  1  0.38886616  0.60740804  0.14100397  1.0
  H  H48  1  0.29048573  0.57842974  0.68503004  1.0
  H  H49  1  0.70951658  0.42156141  0.31496589  1.0
  H  H50  1  0.24165476  0.72467613  0.67998177  1.0
  H  H51  1  0.75833981  0.27531633  0.32001190  1.0
  H  H52  1  0.55158367  0.86634723  0.72986655  1.0
  H  H53  1  0.44841602  0.13365804  0.27013626  1.0
  H  H54  1  0.59740188  0.72036231  0.73887407  1.0
  H  H55  1  0.40259206  0.27964023  0.26112528  1.0
  H  H56  1  0.23589981  0.87168171  0.74371850  1.0
  H  H57  1  0.76410784  0.12831686  0.25628348  1.0
  H  H58  1  0.20167657  0.02364863  0.73915154  1.0
  H  H59  1  0.79832712  0.97634921  0.26085393  1.0
  H  H60  1  0.45809078  0.08309265  0.64636462  1.0
  H  H61  1  0.54190676  0.91690654  0.35363492  1.0
  H  H62  1  0.49531351  0.93317622  0.65151958  1.0
  H  H63  1  0.50468627  0.06682299  0.34847924  1.0
  H  H64  1  0.24906877  0.39633724  0.50750970  1.0
  H  H65  1  0.75092754  0.60366328  0.49249284  1.0
  H  H66  1  0.14167100  0.46918974  0.45333977  1.0
  H  H67  1  0.85832963  0.53081286  0.54665863  1.0
  H  H68  1  0.94372162  0.47299887  0.58725814  1.0
  H  H69  1  0.05627846  0.52699896  0.41274467  1.0
  H  H70  1  0.05162941  0.40020869  0.63974249  1.0
  H  H71  1  0.94837317  0.59978986  0.36025596  1.0
  H  H72  1  0.86027353  0.24035935  0.55339545  1.0
  H  H73  1  0.13972094  0.75963980  0.44660810  1.0
  H  H74  1  0.66564431  0.35031415  0.51302068  1.0
  H  H75  1  0.33435999  0.64969454  0.48697899  1.0
  H  H76  1  0.61520365  0.25768399  0.45530026  1.0
  H  H77  1  0.38479911  0.74232132  0.54469855  1.0
  H  H78  1  0.71136521  0.35032868  0.44485253  1.0
  H  H79  1  0.28864289  0.64968070  0.55514946  1.0
  H  H80  1  0.81572786  0.22400162  0.41406312  1.0
  H  H81  1  0.18427460  0.77601177  0.58593825  1.0
  H  H82  1  0.71940537  0.13930436  0.43258318  1.0
  H  H83  1  0.28059737  0.86070095  0.56741645  1.0
  H  H84  1  0.84457842  0.16477918  0.46803076  1.0
  H  H85  1  0.15542622  0.83523086  0.53196866  1.0
  H  H86  1  0.05489569  0.45361788  0.73926619  1.0
  H  H87  1  0.94510341  0.54638198  0.26073639  1.0
  H  H88  1  0.18490389  0.61574948  0.88363570  1.0
  H  H89  1  0.81509939  0.38424908  0.11636443  1.0
  H  H90  1  0.24909469  0.67518928  0.83410126  1.0
  H  H91  1  0.75090682  0.32480792  0.16589740  1.0
  H  H92  1  0.26980952  0.56658276  0.84074424  1.0
  H  H93  1  0.73018955  0.43341645  0.15925372  1.0
  H  H94  1  0.00404072  0.57777511  0.74904261  1.0
  H  H95  1  0.99595840  0.42222475  0.25095957  1.0
  H  H96  1  0.09800399  0.68038233  0.77234886  1.0
  H  H97  1  0.90199395  0.31961551  0.22765096  1.0
  H  H98  1  0.01846101  0.63495693  0.82153967  1.0
  H  H99  1  0.98153734  0.36504292  0.17846330  1.0
  H  H100  1  0.28035596  0.27019167  0.86121750  1.0
  H  H101  1  0.71964233  0.72981088  0.13878495  1.0
  H  H102  1  0.03192579  0.14406353  0.92193709  1.0
  H  H103  1  0.96807614  0.85593904  0.07806759  1.0
  H  H104  1  0.01313878  0.20673870  0.86767243  1.0
  H  H105  1  0.98685670  0.79325843  0.13233010  1.0
  H  H106  1  0.02601654  0.26027472  0.94079363  1.0
  H  H107  1  0.97398084  0.73972715  0.05920911  1.0
  H  H108  1  0.20754023  0.29425714  0.99302798  1.0
  H  H109  1  0.79246126  0.70574948  0.00697507  1.0
  H  H110  1  0.30503238  0.27000810  0.95053837  1.0
  H  H111  1  0.69496475  0.72999244  0.04946130  1.0
  H  H112  1  0.21859895  0.18018993  0.97182941  1.0
  H  H113  1  0.78140179  0.81981333  0.02817073  1.0
  C  C114  1  0.22631890  0.24562176  0.95833229  1.0
  C  C115  1  0.77368283  0.75438284  0.04167095  1.0
  C  C116  1  0.84570117  0.63428068  0.67323008  1.0
  C  C117  1  0.15429262  0.36571512  0.32676809  1.0
  C  C118  1  0.76676410  0.67974132  0.68075356  1.0
  C  C119  1  0.23323249  0.32025989  0.31924534  1.0
  C  C120  1  0.78384464  0.77174459  0.68109471  1.0
  C  C121  1  0.21615653  0.22825733  0.31890447  1.0
  C  C122  1  0.87983000  0.82131217  0.67371786  1.0
  C  C123  1  0.12017223  0.17868503  0.32628125  1.0
  C  C124  1  0.95831062  0.77493304  0.66536676  1.0
  C  C125  1  0.04169178  0.22506484  0.33463243  1.0
  C  C126  1  0.94153856  0.68266650  0.66514186  1.0
  C  C127  1  0.05845876  0.31732865  0.33485638  1.0
  C  C128  1  0.89673965  0.91938644  0.67554042  1.0
  C  C129  1  0.10325982  0.08061142  0.32445781  1.0
  C  C130  1  0.82089979  0.95783275  0.65406308  1.0
  C  C131  1  0.17909949  0.04216443  0.34593590  1.0
  C  C132  1  0.83745440  0.05054818  0.65665554  1.0
  C  C133  1  0.16254145  0.94945031  0.34334592  1.0
  C  C134  1  0.92958493  0.10854161  0.68112664  1.0
  C  C135  1  0.07041388  0.89145690  0.31887454  1.0
  C  C136  1  0.00499291  0.07071881  0.70312504  1.0
  C  C137  1  0.99500388  0.92928038  0.29687488  1.0
  C  C138  1  0.98870319  0.97778335  0.69997498  1.0
  C  C139  1  0.01129498  0.02221854  0.30002614  1.0
  C  C140  1  0.82478009  0.53581389  0.67379727  1.0
  C  C141  1  0.17522072  0.46418331  0.32619970  1.0
  C  C142  1  0.94573246  0.20858169  0.68348276  1.0
  C  C143  1  0.05425776  0.79141810  0.31652026  1.0
  C  C144  1  0.87398143  0.45255384  0.85942009  1.0
  C  C145  1  0.12602230  0.54744945  0.14057894  1.0
  C  C146  1  0.83533390  0.50066339  0.90464354  1.0
  C  C147  1  0.16466697  0.49933718  0.09535464  1.0
  C  C148  1  0.88384892  0.51836199  0.95923239  1.0
  C  C149  1  0.11615491  0.48163860  0.04076593  1.0
  C  C150  1  0.97416356  0.49053869  0.97088662  1.0
  C  C151  1  0.02584220  0.50946058  0.02910996  1.0
  C  C152  1  0.01295467  0.44386480  0.92457887  1.0
  C  C153  1  0.98704046  0.55612763  0.07542104  1.0
  C  C154  1  0.96336191  0.42396085  0.87010973  1.0
  C  C155  1  0.03663955  0.57603634  0.12989059  1.0
  C  C156  1  0.82034378  0.43190349  0.80082802  1.0
  C  C157  1  0.17965473  0.56809639  0.19916957  1.0
  C  C158  1  0.56741418  0.21045126  0.59827131  1.0
  C  C159  1  0.43257805  0.78954723  0.40172750  1.0
  C  C160  1  0.48306264  0.19240107  0.55806349  1.0
  C  C161  1  0.51693052  0.80759810  0.44193420  1.0
  C  C162  1  0.45745307  0.11060660  0.51983279  1.0
  C  C163  1  0.54253882  0.88939053  0.48016628  1.0
  C  C164  1  0.51468358  0.04403906  0.51982141  1.0
  C  C165  1  0.48530950  0.95595945  0.48017330  1.0
  C  C166  1  0.60089602  0.06483028  0.55954978  1.0
  C  C167  1  0.39909825  0.93517297  0.44044427  1.0
  C  C168  1  0.62634987  0.14604265  0.59814327  1.0
  C  C169  1  0.37364612  0.85395588  0.40185323  1.0
  C  C170  1  0.59272182  0.29379488  0.64204331  1.0
  C  C171  1  0.40727000  0.70620496  0.35795523  1.0
  C  C172  1  0.45825609  0.40975057  0.85117329  1.0
  C  C173  1  0.54175852  0.59024604  0.14882670  1.0
  C  C174  1  0.38187426  0.44081377  0.87987520  1.0
  C  C175  1  0.61814215  0.55918419  0.12012502  1.0
  C  C176  1  0.39839329  0.47616286  0.93770085  1.0
  C  C177  1  0.60161954  0.52383574  0.06230136  1.0
  C  C178  1  0.49115885  0.48118299  0.96923394  1.0
  C  C179  1  0.50884982  0.51881421  0.03077249  1.0
  C  C180  1  0.56675014  0.44930502  0.93949387  1.0
  C  C181  1  0.43325976  0.55069693  0.06051026  1.0
  C  C182  1  0.55121430  0.41502715  0.88161710  1.0
  C  C183  1  0.44879624  0.58497750  0.11838819  1.0
  C  C184  1  0.44238239  0.37387765  0.78909462  1.0
  C  C185  1  0.55762481  0.62612226  0.21090916  1.0
  C  C186  1  0.44710434  0.64080723  0.71156071  1.0
  C  C187  1  0.55290388  0.35919338  0.28843904  1.0
  C  C188  1  0.34647729  0.64233115  0.69571271  1.0
  C  C189  1  0.65352732  0.35766946  0.30428398  1.0
  C  C190  1  0.31994946  0.72396930  0.69275076  1.0
  C  C191  1  0.68004817  0.27603263  0.30724329  1.0
  C  C192  1  0.39383804  0.80542021  0.70362215  1.0
  C  C193  1  0.60615985  0.19458034  0.29637715  1.0
  C  C194  1  0.49427207  0.80316516  0.71996832  1.0
  C  C195  1  0.50572800  0.19683540  0.28003191  1.0
  C  C196  1  0.52020922  0.72210503  0.72490596  1.0
  C  C197  1  0.47979209  0.27789755  0.27509454  1.0
  C  C198  1  0.36843700  0.89215439  0.69829006  1.0
  C  C199  1  0.63156051  0.10784480  0.30171072  1.0
  C  C200  1  0.28402106  0.91753355  0.72167919  1.0
  C  C201  1  0.71597836  0.08246430  0.27832069  1.0
  C  C202  1  0.26452276  0.00195012  0.71923602  1.0
  C  C203  1  0.73547131  0.99804366  0.28076110  1.0
  C  C204  1  0.32733367  0.06213730  0.69233359  1.0
  C  C205  1  0.67266380  0.93786187  0.30766843  1.0
  C  C206  1  0.41001187  0.03627385  0.66757211  1.0
  C  C207  1  0.58998674  0.96372669  0.33242764  1.0
  C  C208  1  0.43058951  0.95263037  0.67082560  1.0
  C  C209  1  0.56940466  0.04736679  0.32917107  1.0
  C  C210  1  0.47645636  0.55249100  0.71160841  1.0
  C  C211  1  0.52354715  0.44750553  0.28839192  1.0
  C  C212  1  0.30891697  0.15433521  0.69125643  1.0
  C  C213  1  0.69108060  0.84566127  0.30874488  1.0
  C  C214  1  0.15745349  0.39367030  0.57710162  1.0
  C  C215  1  0.84254691  0.60632553  0.42289808  1.0
  C  C216  1  0.18116206  0.41304150  0.52412797  1.0
  C  C217  1  0.81884066  0.58696716  0.47587536  1.0
  C  C218  1  0.12003963  0.45429163  0.49397100  1.0
  C  C219  1  0.87996277  0.54571232  0.50602888  1.0
  C  C220  1  0.03275941  0.47757395  0.51557381  1.0
  C  C221  1  0.96723765  0.52242321  0.48442507  1.0
  C  C222  1  0.00979793  0.45683769  0.56851826  1.0
  C  C223  1  0.99020186  0.54316488  0.43148342  1.0
  C  C224  1  0.07059223  0.41560712  0.59873708  1.0
  C  C225  1  0.92940999  0.58439008  0.40126244  1.0
  C  C226  1  0.22709083  0.35649048  0.61139351  1.0
  C  C227  1  0.77290745  0.64350599  0.38860866  1.0
  C  C228  1  0.80473233  0.28075374  0.54533857  1.0
  C  C229  1  0.19527007  0.71925021  0.45466089  1.0
  C  C230  1  0.68353264  0.30794322  0.47529395  1.0
  C  C231  1  0.31647552  0.69206009  0.52470528  1.0
  C  C232  1  0.78629838  0.19363644  0.44940330  1.0
  C  C233  1  0.21370397  0.80637022  0.55059522  1.0
  C  C234  1  0.11955950  0.47851703  0.77217156  1.0
  C  C235  1  0.88043435  0.52148213  0.22782782  1.0
  C  C236  1  0.21356739  0.60808171  0.84167844  1.0
  C  C237  1  0.78643118  0.39191547  0.15831968  1.0
  C  C238  1  0.05885641  0.61752400  0.78438370  1.0
  C  C239  1  0.94114035  0.38247517  0.21561746  1.0
  C  C240  1  0.19692054  0.25252024  0.85846608  1.0
  C  C241  1  0.80308300  0.74747965  0.14153671  1.0
  C  C242  1  0.05125838  0.21046216  0.90967244  1.0
  C  C243  1  0.94874417  0.78953975  0.09033011  1.0
  N  N244  1  0.76027470  0.26174561  0.49222773  1.0
  N  N245  1  0.23972779  0.73825900  0.50777430  1.0
  N  N246  1  0.13160382  0.56526319  0.79745726  1.0
  N  N247  1  0.86839567  0.43473468  0.20254015  1.0
  N  N248  1  0.15984848  0.23707192  0.90721769  1.0
  N  N249  1  0.84015131  0.76293065  0.09278399  1.0
  O  O250  1  0.73278416  0.49390262  0.67171726  1.0
  O  O251  1  0.26721449  0.50609793  0.32828124  1.0
  O  O252  1  0.89812634  0.49560170  0.67590028  1.0
  O  O253  1  0.10187342  0.50439751  0.32409936  1.0
  O  O254  1  0.87388030  0.23570658  0.65947629  1.0
  O  O255  1  0.12610815  0.76429522  0.34052854  1.0
  O  O256  1  0.02653243  0.26178699  0.70815872  1.0
  O  O257  1  0.97346302  0.73821285  0.29184246  1.0
  O  O258  1  0.74328651  0.46542468  0.79394749  1.0
  O  O259  1  0.25671596  0.53457992  0.20605537  1.0
  O  O260  1  0.85586338  0.38275140  0.76260645  1.0
  O  O261  1  0.14412691  0.61724505  0.23739081  1.0
  O  O262  1  0.66725519  0.30598565  0.68027444  1.0
  O  O263  1  0.33274090  0.69401353  0.31972462  1.0
  O  O264  1  0.53909097  0.35319742  0.64297734  1.0
  O  O265  1  0.46090417  0.64680380  0.35702025  1.0
  O  O266  1  0.51933143  0.36398522  0.76284026  1.0
  O  O267  1  0.48066570  0.63601196  0.23715655  1.0
  O  O268  1  0.35330841  0.35520937  0.76338860  1.0
  O  O269  1  0.64669743  0.64479391  0.23661426  1.0
  O  O270  1  0.41170568  0.48207854  0.68763783  1.0
  O  O271  1  0.58829873  0.51791595  0.31236521  1.0
  O  O272  1  0.56443961  0.55429967  0.73464687  1.0
  O  O273  1  0.43556524  0.44569620  0.26535261  1.0
  O  O274  1  0.37220440  0.20599461  0.66810591  1.0
  O  O275  1  0.62779036  0.79399917  0.33189290  1.0
  O  O276  1  0.23256997  0.17489702  0.71395826  1.0
  O  O277  1  0.76742334  0.82510011  0.28604252  1.0
  O  O278  1  0.30420535  0.33439396  0.59071507  1.0
  O  O279  1  0.69579714  0.66561400  0.40929066  1.0
  O  O280  1  0.21107742  0.35324225  0.66318179  1.0
  O  O281  1  0.78892569  0.64675898  0.33682154  1.0
  O  O282  1  0.78576275  0.33911584  0.58391144  1.0
  O  O283  1  0.21423400  0.66088940  0.41609083  1.0
  O  O284  1  0.17575758  0.42861607  0.78484866  1.0
  O  O285  1  0.82423980  0.57137637  0.21515053  1.0
  O  O286  1  0.14276667  0.24822358  0.81404822  1.0
  O  O287  1  0.85722512  0.75177625  0.18595156  1.0
