# generated using pymatgen
data_Zn4H44C52Cl2O13
_symmetry_space_group_name_H-M   'P 1'
_cell_length_a   15.17885848
_cell_length_b   15.17994849
_cell_length_c   19.53608836
_cell_angle_alpha   88.65758045
_cell_angle_beta   88.85459361
_cell_angle_gamma   89.81489551
_symmetry_Int_Tables_number   1
_chemical_formula_structural   Zn4H44C52Cl2O13
_chemical_formula_sum   'Zn4 H44 C52 Cl2 O13'
_cell_volume   4499.24208236
_cell_formula_units_Z   1
loop_
 _symmetry_equiv_pos_site_id
 _symmetry_equiv_pos_as_xyz
  1  'x, y, z'
loop_
 _atom_site_type_symbol
 _atom_site_label
 _atom_site_symmetry_multiplicity
 _atom_site_fract_x
 _atom_site_fract_y
 _atom_site_fract_z
 _atom_site_occupancy
  Zn  Zn0  1  0.57553320  0.56725606  0.43563121  1.0
  Zn  Zn1  1  0.43244202  0.58165181  0.55701520  1.0
  Zn  Zn2  1  0.57394679  0.42350659  0.55696601  1.0
  Zn  Zn3  1  0.41567135  0.42830182  0.44892275  1.0
  H  H4  1  0.60882137  0.55075946  0.22920176  1.0
  H  H5  1  0.35231928  0.16492922  0.56114784  1.0
  H  H6  1  0.61433458  0.40879128  0.76391135  1.0
  H  H7  1  0.59980155  0.49237142  0.99926237  1.0
  H  H8  1  0.33771430  0.47518407  0.10718961  1.0
  H  H9  1  0.44213927  0.62782217  0.89715482  1.0
  H  H10  1  0.40295384  0.54056668  0.99923387  1.0
  H  H11  1  0.60631740  0.56757160  0.10252421  1.0
  H  H12  1  0.30378403  0.54902778  0.74389677  1.0
  H  H13  1  0.20457067  0.51934001  0.78850408  1.0
  H  H14  1  0.28662499  0.43848037  0.77183863  1.0
  H  H15  1  0.62690037  0.41167395  0.89092643  1.0
  H  H16  1  0.16043222  0.42698965  0.68923740  1.0
  H  H17  1  0.26093908  0.45203855  0.64652396  1.0
  H  H18  1  0.21980519  0.61102269  0.63999113  1.0
  H  H19  1  0.12069661  0.58855919  0.68666574  1.0
  H  H20  1  0.05832693  0.25983242  0.27189467  1.0
  H  H21  1  0.15824981  0.30735272  0.29875090  1.0
  H  H22  1  0.12797457  0.20034071  0.32863618  1.0
  H  H23  1  0.09780875  0.30978408  0.42058268  1.0
  H  H24  1  0.99853135  0.26336352  0.39395717  1.0
  H  H25  1  0.97264485  0.39469057  0.31657870  1.0
  H  H26  1  0.14874741  0.45645586  0.42589406  1.0
  H  H27  1  0.07166318  0.44139570  0.34191022  1.0
  H  H28  1  0.79029431  0.34292841  0.24082025  1.0
  H  H29  1  0.68795721  0.37331924  0.27919619  1.0
  H  H30  1  0.73516628  0.44001656  0.21243199  1.0
  H  H31  1  0.75941940  0.50846668  0.32756987  1.0
  H  H32  1  0.86047391  0.47957193  0.28814780  1.0
  H  H33  1  0.85555788  0.33446424  0.35737766  1.0
  H  H34  1  0.76007812  0.37211310  0.39924787  1.0
  H  H35  1  0.81872150  0.60535588  0.73419327  1.0
  H  H36  1  0.71397485  0.57329667  0.70459407  1.0
  H  H37  1  0.99679241  0.56642184  0.63301489  1.0
  H  H38  1  0.77003776  0.50512205  0.76429775  1.0
  H  H39  1  0.78408923  0.44279713  0.64612400  1.0
  H  H40  1  0.88822010  0.47404842  0.67557811  1.0
  H  H41  1  0.87193534  0.61974041  0.60966516  1.0
  H  H42  1  0.77056977  0.58341232  0.57980693  1.0
  H  H43  1  0.40280529  0.85563600  0.54173757  1.0
  H  H44  1  0.65036831  0.83374715  0.43291278  1.0
  H  H45  1  0.34015823  0.00148050  0.56623095  1.0
  H  H46  1  0.43251988  0.62601523  0.77004735  1.0
  H  H47  1  0.66755154  0.99640709  0.43167921  1.0
  C  C48  1  0.26070387  0.51109660  0.51339154  1.0
  C  C49  1  0.46793939  0.52788258  0.02067937  1.0
  C  C50  1  0.53713887  0.51402744  0.97766880  1.0
  C  C51  1  0.73793704  0.48343449  0.48739491  1.0
  C  C52  1  0.52145960  0.51603192  0.75943226  1.0
  C  C53  1  0.16307035  0.51082727  0.52391029  1.0
  C  C54  1  0.83676934  0.47997686  0.48372492  1.0
  C  C55  1  0.96980463  0.44061114  0.42000700  1.0
  C  C56  1  0.87829835  0.43947795  0.42629347  1.0
  C  C57  1  0.88291787  0.51721965  0.53636173  1.0
  C  C58  1  0.97681719  0.51409135  0.53245007  1.0
  C  C59  1  0.47226038  0.52051383  0.09515987  1.0
  C  C60  1  0.02000105  0.47827635  0.47328404  1.0
  C  C61  1  0.11316854  0.48004835  0.47078844  1.0
  C  C62  1  0.12054140  0.54089820  0.58522523  1.0
  C  C63  1  0.51667741  0.73754521  0.49029114  1.0
  C  C64  1  0.02950865  0.54321871  0.58661451  1.0
  C  C65  1  0.52542837  0.83537738  0.48817518  1.0
  C  C66  1  0.48172255  0.16473614  0.51276993  1.0
  C  C67  1  0.39848860  0.03329115  0.54368132  1.0
  C  C68  1  0.40528678  0.12352978  0.54122793  1.0
  C  C69  1  0.54928846  0.11407309  0.48550447  1.0
  C  C70  1  0.39826032  0.49108928  0.13325792  1.0
  C  C71  1  0.54362678  0.02043186  0.48501731  1.0
  C  C72  1  0.46663382  0.97992328  0.51595380  1.0
  C  C73  1  0.46027979  0.88703137  0.51750552  1.0
  C  C74  1  0.60026825  0.87563164  0.45620478  1.0
  C  C75  1  0.48562835  0.26341098  0.51150628  1.0
  C  C76  1  0.60943642  0.96581576  0.45539204  1.0
  C  C77  1  0.51392893  0.51242168  0.68358043  1.0
  C  C78  1  0.48657749  0.49499372  0.31592422  1.0
  C  C79  1  0.47757913  0.50068695  0.23993085  1.0
  C  C80  1  0.55054950  0.53243825  0.20124987  1.0
  C  C81  1  0.40081921  0.47957174  0.20428568  1.0
  C  C82  1  0.54904977  0.54138257  0.13061551  1.0
  C  C83  1  0.16864752  0.56112908  0.64978428  1.0
  C  C84  1  0.21107950  0.47843566  0.68229808  1.0
  C  C85  1  0.25374329  0.49724073  0.75042614  1.0
  C  C86  1  0.01697571  0.39885451  0.36011920  1.0
  C  C87  1  0.05346944  0.30630355  0.37679737  1.0
  C  C88  1  0.10205162  0.26620885  0.31575792  1.0
  C  C89  1  0.82200237  0.39477612  0.37435995  1.0
  C  C90  1  0.79936015  0.45194794  0.31103033  1.0
  C  C91  1  0.75057601  0.39939158  0.25796586  1.0
  C  C92  1  0.47879761  0.57878270  0.86811793  1.0
  C  C93  1  0.83588724  0.56004214  0.59583628  1.0
  C  C94  1  0.82369364  0.50005316  0.65988237  1.0
  C  C95  1  0.77938905  0.54851993  0.71894983  1.0
  C  C96  1  0.47348307  0.57818666  0.79719291  1.0
  C  C97  1  0.57703719  0.45638340  0.79376968  1.0
  C  C98  1  0.58381485  0.45840696  0.86447218  1.0
  C  C99  1  0.53318790  0.51807733  0.90309525  1.0
  Cl  Cl100  1  0.64100994  0.16549566  0.44871586  1.0
  Cl  Cl101  1  0.30476741  0.44271841  0.24463557  1.0
  O  O102  1  0.49934854  0.49949031  0.49958364  1.0
  O  O103  1  0.45976666  0.56557348  0.65481753  1.0
  O  O104  1  0.43758392  0.44115226  0.34984735  1.0
  O  O105  1  0.56238424  0.45572891  0.65326242  1.0
  O  O106  1  0.54497707  0.54526573  0.34051638  1.0
  O  O107  1  0.56819519  0.69449358  0.45072154  1.0
  O  O108  1  0.42945387  0.30223791  0.47386462  1.0
  O  O109  1  0.30547760  0.56573071  0.54727647  1.0
  O  O110  1  0.69949132  0.43248676  0.53126636  1.0
  O  O111  1  0.29286678  0.45705504  0.47010347  1.0
  O  O112  1  0.70078089  0.53812356  0.44665825  1.0
  O  O113  1  0.45853489  0.70479598  0.53156263  1.0
  O  O114  1  0.54274258  0.29848609  0.54892261  1.0
