# generated using pymatgen
data_AlH6C15(BrO2)3
_symmetry_space_group_name_H-M   'P 1'
_cell_length_a   4.05181624
_cell_length_b   17.24802942
_cell_length_c   17.24803193
_cell_angle_alpha   59.99997632
_cell_angle_beta   89.99988903
_cell_angle_gamma   90.00008079
_symmetry_Int_Tables_number   1
_chemical_formula_structural   AlH6C15(BrO2)3
_chemical_formula_sum   'Al2 H12 C30 Br6 O12'
_cell_volume   1043.90096859
_cell_formula_units_Z   2
loop_
 _symmetry_equiv_pos_site_id
 _symmetry_equiv_pos_as_xyz
  1  'x, y, z'
loop_
 _atom_site_type_symbol
 _atom_site_label
 _atom_site_symmetry_multiplicity
 _atom_site_fract_x
 _atom_site_fract_y
 _atom_site_fract_z
 _atom_site_occupancy
  Al  Al0  1  0.00874668  0.49999959  0.99999989  1.0
  Al  Al1  1  0.99142573  0.16666659  0.66666591  1.0
  H  H2  1  0.72328126  0.46833522  0.41692154  1.0
  H  H3  1  0.28341925  0.46697106  0.41831623  1.0
  H  H4  1  0.27630980  0.55191433  0.24981311  1.0
  H  H5  1  0.71624584  0.55195411  0.24845122  1.0
  H  H6  1  0.72328689  0.11474367  0.96833453  1.0
  H  H7  1  0.28342243  0.11471431  0.96697034  1.0
  H  H8  1  0.27631196  0.19827504  0.05191242  1.0
  H  H9  1  0.71625047  0.19959605  0.05195375  1.0
  H  H10  1  0.72328340  0.91692208  0.61474336  1.0
  H  H11  1  0.28341647  0.91831627  0.61471342  1.0
  H  H12  1  0.27630769  0.74981327  0.69827246  1.0
  H  H13  1  0.71624619  0.74845138  0.69959447  1.0
  C  C14  1  0.50497915  0.63666909  0.93381402  1.0
  C  C15  1  0.50498756  0.42951721  0.13667093  1.0
  C  C16  1  0.50497854  0.43381419  0.92951408  1.0
  C  C17  1  0.49497011  0.23275812  0.52997210  1.0
  C  C18  1  0.49497672  0.23726974  0.73275732  1.0
  C  C19  1  0.49497359  0.02997220  0.73726960  1.0
  C  C20  1  0.50316452  0.27992456  0.42997833  1.0
  C  C21  1  0.49703995  0.37666678  0.23663659  1.0
  C  C22  1  0.50434226  0.37293768  0.37996301  1.0
  C  C23  1  0.50015657  0.28208305  0.28603734  1.0
  C  C24  1  0.49539370  0.41960488  0.28671213  1.0
  C  C25  1  0.50029919  0.23488064  0.38044908  1.0
  C  C26  1  0.50276049  0.45764766  0.38638921  1.0
  C  C27  1  0.49684521  0.51072338  0.28038161  1.0
  C  C28  1  0.50317209  0.29009793  0.77992283  1.0
  C  C29  1  0.49704635  0.38669877  0.87666495  1.0
  C  C30  1  0.50434636  0.24710126  0.87293606  1.0
  C  C31  1  0.50016153  0.43188030  0.78208116  1.0
  C  C32  1  0.49539231  0.29368368  0.91960399  1.0
  C  C33  1  0.50030718  0.38467166  0.73487765  1.0
  C  C34  1  0.50276373  0.15596419  0.95764655  1.0
  C  C35  1  0.49684782  0.20889608  0.01072264  1.0
  C  C36  1  0.50316664  0.92997857  0.79009789  1.0
  C  C37  1  0.49703753  0.73663459  0.88669817  1.0
  C  C38  1  0.50433650  0.87996212  0.74709998  1.0
  C  C39  1  0.50015216  0.78603755  0.93187854  1.0
  C  C40  1  0.49539682  0.78671091  0.79368494  1.0
  C  C41  1  0.50029332  0.88044909  0.88467165  1.0
  C  C42  1  0.50275735  0.88638978  0.65596328  1.0
  C  C43  1  0.49684341  0.78038183  0.70889548  1.0
  Br  Br44  1  0.48506710  0.21837333  0.22290518  1.0
  Br  Br45  1  0.51596312  0.10800088  0.44373928  1.0
  Br  Br46  1  0.48507265  0.55872231  0.71836785  1.0
  Br  Br47  1  0.51596507  0.44826008  0.60800003  1.0
  Br  Br48  1  0.48506439  0.72290219  0.05872202  1.0
  Br  Br49  1  0.51596031  0.94373862  0.94826038  1.0
  O  O50  1  0.27367704  0.41550242  0.98615721  1.0
  O  O51  1  0.27368036  0.59833882  0.91550016  1.0
  O  O52  1  0.27368175  0.48615700  0.09834130  1.0
  O  O53  1  0.74591515  0.48619512  0.91595925  1.0
  O  O54  1  0.74591420  0.41595981  0.09784437  1.0
  O  O55  1  0.74591522  0.59784499  0.98619445  1.0
  O  O56  1  0.25402739  0.06885144  0.75075277  1.0
  O  O57  1  0.25402846  0.18039549  0.56885090  1.0
  O  O58  1  0.25402824  0.25075353  0.68039431  1.0
  O  O59  1  0.72616161  0.06830405  0.68059901  1.0
  O  O60  1  0.72615921  0.18059994  0.75109598  1.0
  O  O61  1  0.72616263  0.25109815  0.56830240  1.0
