# generated using pymatgen
data_Al2H6C16S2N2O15
_symmetry_space_group_name_H-M   'P 1'
_cell_length_a   6.82378080
_cell_length_b   11.05011228
_cell_length_c   12.35406528
_cell_angle_alpha   65.26082628
_cell_angle_beta   77.93768618
_cell_angle_gamma   73.55874625
_symmetry_Int_Tables_number   1
_chemical_formula_structural   Al2H6C16S2N2O15
_chemical_formula_sum   'Al2 H6 C16 S2 N2 O15'
_cell_volume   807.05709260
_cell_formula_units_Z   1
loop_
 _symmetry_equiv_pos_site_id
 _symmetry_equiv_pos_as_xyz
  1  'x, y, z'
loop_
 _atom_site_type_symbol
 _atom_site_label
 _atom_site_symmetry_multiplicity
 _atom_site_fract_x
 _atom_site_fract_y
 _atom_site_fract_z
 _atom_site_occupancy
  Al  Al0  1  0.49935867  0.49955541  0.50212335  1.0
  Al  Al1  1  0.00145734  0.50054769  0.49834153  1.0
  H  H2  1  0.29036138  0.32664347  0.60353584  1.0
  H  H3  1  0.74443580  0.61959634  0.35340667  1.0
  H  H4  1  0.36137560  0.87429366  0.53444325  1.0
  H  H5  1  0.63983494  0.12319762  0.46752782  1.0
  H  H6  1  0.32273377  0.43745153  0.85539382  1.0
  H  H7  1  0.85405058  0.56368846  0.10086410  1.0
  C  C8  1  0.69378682  0.46938630  0.70348002  1.0
  C  C9  1  0.84643103  0.27080152  0.50832798  1.0
  C  C10  1  0.31299895  0.53368706  0.29551805  1.0
  C  C11  1  0.15362077  0.72578750  0.49617107  1.0
  C  C12  1  0.92750017  0.13258770  0.50164226  1.0
  C  C13  1  0.07264655  0.86464398  0.50152242  1.0
  C  C14  1  0.13091002  0.06098594  0.51777632  1.0
  C  C15  1  0.86970243  0.93653321  0.48438549  1.0
  C  C16  1  0.20368417  0.92978228  0.51941449  1.0
  C  C17  1  0.79717253  0.06764851  0.48315649  1.0
  C  C18  1  0.57948414  0.53761987  0.11477332  1.0
  C  C19  1  0.43900641  0.46118577  0.88689602  1.0
  C  C20  1  0.38792368  0.52262453  0.18019422  1.0
  C  C21  1  0.62725270  0.47779263  0.82148612  1.0
  C  C22  1  0.42273976  0.48125359  0.99404340  1.0
  C  C23  1  0.59834426  0.51405868  0.00795261  1.0
  S  S24  1  0.23638611  0.47544530  0.11315310  1.0
  S  S25  1  0.78488757  0.51897677  0.88889966  1.0
  N  N26  1  0.28234091  0.12935507  0.52326647  1.0
  N  N27  1  0.71586988  0.87127110  0.47669052  1.0
  O  O28  1  0.56473708  0.44314174  0.65965655  1.0
  O  O29  1  0.97496859  0.31938604  0.53042570  1.0
  O  O30  1  0.13065237  0.51608519  0.33988941  1.0
  O  O31  1  0.33854271  0.66872431  0.51622139  1.0
  O  O32  1  0.43515773  0.56081223  0.34356448  1.0
  O  O33  1  0.02859138  0.67903387  0.46925818  1.0
  O  O34  1  0.87256516  0.48836633  0.65520160  1.0
  O  O35  1  0.65855276  0.32491393  0.49428440  1.0
  O  O36  1  0.26158224  0.42500794  0.55923062  1.0
  O  O37  1  0.73993280  0.57134036  0.43982002  1.0
  O  O38  1  0.35405047  0.20319180  0.42478619  1.0
  O  O39  1  0.33481409  0.10416599  0.62187136  1.0
  O  O40  1  0.65603492  0.90537852  0.37841697  1.0
  O  O41  1  0.64711964  0.79362434  0.57437640  1.0
  O  O42  1  0.72305996  0.57105990  0.15112894  1.0
