# generated using pymatgen
data_AlH7C14O6F
_symmetry_space_group_name_H-M   'P 1'
_cell_length_a   6.65332537
_cell_length_b   11.02310789
_cell_length_c   17.68910856
_cell_angle_alpha   89.99876413
_cell_angle_beta   82.05525631
_cell_angle_gamma   73.37813902
_symmetry_Int_Tables_number   1
_chemical_formula_structural   AlH7C14O6F
_chemical_formula_sum   'Al2 H14 C28 O12 F2'
_cell_volume   1230.11486263
_cell_formula_units_Z   2
loop_
 _symmetry_equiv_pos_site_id
 _symmetry_equiv_pos_as_xyz
  1  'x, y, z'
loop_
 _atom_site_type_symbol
 _atom_site_label
 _atom_site_symmetry_multiplicity
 _atom_site_fract_x
 _atom_site_fract_y
 _atom_site_fract_z
 _atom_site_occupancy
  Al  Al0  1  0.00230665  0.50523630  0.49769785  1.0
  Al  Al1  1  0.50299159  0.50631102  0.49767033  1.0
  H  H2  1  0.34326746  0.36537957  0.43958217  1.0
  H  H3  1  0.66586553  0.66189803  0.52658757  1.0
  H  H4  1  0.88932960  0.44186850  0.71866564  1.0
  H  H5  1  0.81574149  0.42537880  0.86000158  1.0
  H  H6  1  0.35533207  0.56014244  0.88421294  1.0
  H  H7  1  0.64632608  0.44682350  0.11190445  1.0
  H  H8  1  0.14140844  0.53642208  0.27529015  1.0
  H  H9  1  0.22840353  0.53669845  0.13362754  1.0
  H  H10  1  0.52945181  0.23596239  0.60370899  1.0
  H  H11  1  0.79248628  0.76573473  0.60018987  1.0
  H  H12  1  0.35158179  0.89319736  0.44978817  1.0
  H  H13  1  0.22898843  0.12997183  0.45871986  1.0
  H  H14  1  0.24250192  0.21199441  0.68220264  1.0
  H  H15  1  0.48275912  0.77798667  0.67816398  1.0
  C  C16  1  0.85752593  0.27954901  0.51377836  1.0
  C  C17  1  0.80387211  0.49812429  0.35899525  1.0
  C  C18  1  0.13867333  0.73409051  0.49793572  1.0
  C  C19  1  0.20438379  0.50847848  0.63660948  1.0
  C  C20  1  0.16729423  0.50222393  0.72147926  1.0
  C  C21  1  0.99273884  0.46401172  0.75594392  1.0
  C  C22  1  0.95029747  0.45643769  0.83446827  1.0
  C  C23  1  0.08039249  0.49070403  0.88226259  1.0
  C  C24  1  0.25451434  0.53068175  0.84889360  1.0
  C  C25  1  0.29489745  0.53492446  0.77016462  1.0
  C  C26  1  0.03454173  0.48858059  0.96259762  1.0
  C  C27  1  0.99248253  0.48991007  0.03201736  1.0
  C  C28  1  0.94363559  0.49250716  0.11248624  1.0
  C  C29  1  0.75535037  0.46862633  0.14668753  1.0
  C  C30  1  0.70973983  0.47153002  0.22565391  1.0
  C  C31  1  0.84547464  0.49651483  0.27378241  1.0
  C  C32  1  0.03353681  0.51900452  0.23844401  1.0
  C  C33  1  0.08244417  0.51831238  0.15971126  1.0
  C  C34  1  0.92349484  0.13961514  0.52000267  1.0
  C  C35  1  0.78727957  0.07185675  0.55772746  1.0
  C  C36  1  0.12651386  0.07551127  0.48481447  1.0
  C  C37  1  0.58793766  0.13280223  0.60143310  1.0
  C  C38  1  0.46667115  0.06525141  0.64196971  1.0
  C  C39  1  0.06328999  0.87366817  0.51193182  1.0
  C  C40  1  0.19567800  0.94314365  0.48018029  1.0
  C  C41  1  0.86093342  0.93539350  0.55485705  1.0
  C  C42  1  0.73406435  0.86847070  0.59796522  1.0
  C  C43  1  0.54178457  0.92998544  0.64064886  1.0
  O  O44  1  0.00000955  0.33565946  0.51585507  1.0
  O  O45  1  0.61589901  0.50905576  0.39100058  1.0
  O  O46  1  0.33588192  0.67964373  0.49766925  1.0
  O  O47  1  0.04206643  0.52089931  0.60333293  1.0
  O  O48  1  0.00276476  0.67748001  0.48613443  1.0
  O  O49  1  0.39124735  0.50012513  0.60469750  1.0
  O  O50  1  0.66708855  0.33433978  0.50372126  1.0
  O  O51  1  0.96484139  0.48820884  0.39287075  1.0
  O  O52  1  0.29251147  0.44669676  0.46716526  1.0
  O  O53  1  0.71089560  0.56996701  0.52819691  1.0
  O  O54  1  0.27627352  0.12021037  0.68576370  1.0
  O  O55  1  0.41663200  0.86946005  0.68355570  1.0
  F  F56  1  0.46202850  0.57725323  0.74111672  1.0
  F  F57  1  0.52796266  0.44521647  0.25514106  1.0
