# generated using pymatgen
data_Cu3H6(C3N)7
_symmetry_space_group_name_H-M   'P 1'
_cell_length_a   31.12063595
_cell_length_b   31.77967673
_cell_length_c   32.21079699
_cell_angle_alpha   89.85784907
_cell_angle_beta   90.68564387
_cell_angle_gamma   89.59422901
_symmetry_Int_Tables_number   1
_chemical_formula_structural   Cu3H6(C3N)7
_chemical_formula_sum   'Cu12 H24 C84 N28'
_cell_volume   31853.41437048
_cell_formula_units_Z   4
loop_
 _symmetry_equiv_pos_site_id
 _symmetry_equiv_pos_as_xyz
  1  'x, y, z'
loop_
 _atom_site_type_symbol
 _atom_site_label
 _atom_site_symmetry_multiplicity
 _atom_site_fract_x
 _atom_site_fract_y
 _atom_site_fract_z
 _atom_site_occupancy
  Cu  Cu0  1  0.33449274  0.58296704  0.37579389  1.0
  Cu  Cu1  1  0.40661160  0.63259711  0.32729494  1.0
  Cu  Cu2  1  0.38253388  0.66006380  0.41879541  1.0
  Cu  Cu3  1  0.83742549  0.91294774  0.62021245  1.0
  Cu  Cu4  1  0.91974499  0.87193524  0.66420640  1.0
  Cu  Cu5  1  0.88519314  0.83466849  0.57879067  1.0
  Cu  Cu6  1  0.15278816  0.42264097  0.88579636  1.0
  Cu  Cu7  1  0.07556162  0.37634669  0.83989086  1.0
  Cu  Cu8  1  0.11683075  0.33764978  0.92315196  1.0
  Cu  Cu9  1  0.66651481  0.08035421  0.12138173  1.0
  Cu  Cu10  1  0.58305741  0.12275538  0.16009666  1.0
  Cu  Cu11  1  0.63010842  0.16619798  0.08389732  1.0
  H  H12  1  0.32199557  0.50419424  0.31541814  1.0
  H  H13  1  0.41380624  0.57732936  0.24584405  1.0
  H  H14  1  0.32885199  0.66864510  0.50166381  1.0
  H  H15  1  0.26011590  0.56724706  0.44101031  1.0
  H  H16  1  0.47826625  0.69984955  0.30642809  1.0
  H  H17  1  0.45312289  0.73081215  0.43497648  1.0
  H  H18  1  0.81898475  0.98922002  0.68198031  1.0
  H  H19  1  0.92952467  0.93119674  0.74283962  1.0
  H  H20  1  0.82660925  0.82154568  0.49847549  1.0
  H  H21  1  0.75957207  0.92572916  0.55627089  1.0
  H  H22  1  0.99866817  0.81028713  0.68254108  1.0
  H  H23  1  0.95249868  0.76007522  0.56528217  1.0
  H  H24  1  0.16583384  0.50068438  0.82593931  1.0
  H  H25  1  0.06499269  0.43465122  0.75933376  1.0
  H  H26  1  0.18287584  0.32300440  0.99850076  1.0
  H  H27  1  0.23073908  0.43996123  0.94776499  1.0
  H  H28  1  0.00151090  0.30999254  0.82235929  1.0
  H  H29  1  0.05749012  0.25778778  0.93531676  1.0
  H  H30  1  0.68020313  0.00299865  0.18277888  1.0
  H  H31  1  0.56565915  0.05944235  0.23487037  1.0
  H  H32  1  0.69396966  0.17942002  0.00857975  1.0
  H  H33  1  0.74321053  0.06188287  0.05941772  1.0
  H  H34  1  0.50486906  0.18664357  0.17218353  1.0
  H  H35  1  0.57296294  0.24880799  0.07291964  1.0
  C  C36  1  0.34433920  0.52737745  0.30387280  1.0
  C  C37  1  0.36813223  0.52696789  0.26683315  1.0
  C  C38  1  0.39138491  0.56489748  0.26821339  1.0
  C  C39  1  0.31722410  0.64406877  0.48119163  1.0
  C  C40  1  0.28138004  0.61760243  0.48591865  1.0
  C  C41  1  0.28195771  0.59212684  0.45009074  1.0
  C  C42  1  0.46658441  0.70205917  0.33794640  1.0
  C  C43  1  0.48005603  0.72899333  0.37024906  1.0
  C  C44  1  0.45355527  0.71804708  0.40378533  1.0
  C  C45  1  0.84620854  0.96978264  0.69138248  1.0
  C  C46  1  0.87362930  0.97388209  0.72634084  1.0
  C  C47  1  0.90283010  0.93996744  0.72257565  1.0
  C  C48  1  0.81563000  0.84700332  0.51815239  1.0
  C  C49  1  0.77931784  0.87344711  0.51305317  1.0
  C  C50  1  0.78124373  0.90036451  0.54781381  1.0
  C  C51  1  0.98177101  0.80342039  0.65372353  1.0
  C  C52  1  0.99007737  0.77148161  0.62448793  1.0
  C  C53  1  0.95802312  0.77761349  0.59367012  1.0
  C  C54  1  0.14099964  0.47934698  0.81530305  1.0
  C  C55  1  0.11619626  0.48100975  0.77836775  1.0
  C  C56  1  0.08932993  0.44553336  0.78109300  1.0
  C  C57  1  0.18877654  0.35150739  0.98094334  1.0
  C  C58  1  0.22152875  0.38153365  0.98651245  1.0
  C  C59  1  0.21336106  0.41141879  0.95487656  1.0
  C  C60  1  0.02029216  0.30304151  0.85015420  1.0
  C  C61  1  0.01625748  0.26919139  0.87825247  1.0
  C  C62  1  0.04906738  0.27622796  0.90799066  1.0
  C  C63  1  0.65232932  0.02217302  0.19004372  1.0
  C  C64  1  0.62288011  0.01736687  0.22265480  1.0
  C  C65  1  0.59369143  0.05113046  0.21686626  1.0
  C  C66  1  0.70049808  0.15098536  0.02632047  1.0
  C  C67  1  0.73241541  0.11995361  0.02008451  1.0
  C  C68  1  0.72580899  0.09078998  0.05244376  1.0
  C  C69  1  0.52673596  0.19607576  0.14795200  1.0
  C  C70  1  0.52537318  0.23239715  0.12263105  1.0
  C  C71  1  0.56163910  0.22795368  0.09708403  1.0
  C  C72  1  0.87294270  0.00451192  0.75750491  1.0
  C  C73  1  0.87365477  0.03097199  0.78521330  1.0
  C  C74  1  0.87467642  0.06015238  0.81550914  1.0
  C  C75  1  0.87589979  0.08665586  0.84296136  1.0
  C  C76  1  0.36965432  0.49586739  0.23618721  1.0
  C  C77  1  0.37232649  0.46872654  0.20927350  1.0
  C  C78  1  0.37525131  0.43879364  0.17986788  1.0
  C  C79  1  0.37825132  0.41137122  0.15346071  1.0
  C  C80  1  0.62345940  0.98641028  0.25366263  1.0
  C  C81  1  0.62530322  0.95901169  0.28057745  1.0
  C  C82  1  0.62750841  0.92899527  0.31018858  1.0
  C  C83  1  0.62985701  0.90182578  0.33709691  1.0
  C  C84  1  0.11900304  0.51077906  0.74643142  1.0
  C  C85  1  0.12327707  0.53727057  0.71900817  1.0
  C  C86  1  0.12815750  0.56626947  0.68887068  1.0
  C  C87  1  0.13314222  0.59247150  0.66150302  1.0
  C  C88  1  0.76326617  0.11834397  0.98886475  1.0
  C  C89  1  0.79014066  0.11699739  0.96130559  1.0
  C  C90  1  0.81973115  0.11596782  0.93111051  1.0
  C  C91  1  0.84637443  0.11525939  0.90351972  1.0
  C  C92  1  0.25161036  0.61748427  0.51817444  1.0
  C  C93  1  0.22507537  0.61805522  0.54607854  1.0
  C  C94  1  0.19528477  0.61925092  0.57611222  1.0
  C  C95  1  0.16795162  0.62026576  0.60307266  1.0
  C  C96  1  0.25489278  0.38154105  0.01603398  1.0
  C  C97  1  0.28465925  0.38166840  0.04137435  1.0
  C  C98  1  0.31733577  0.38160003  0.06920362  1.0
  C  C99  1  0.34711042  0.38118203  0.09432567  1.0
  C  C100  1  0.74835031  0.87282377  0.48115318  1.0
  C  C101  1  0.72096680  0.87214400  0.45340462  1.0
  C  C102  1  0.69057799  0.87154414  0.42322069  1.0
  C  C103  1  0.66270313  0.87133831  0.39612181  1.0
  C  C104  1  0.98668828  0.23620316  0.87696650  1.0
  C  C105  1  0.96087535  0.20717098  0.87593114  1.0
  C  C106  1  0.93227618  0.17551023  0.87485320  1.0
  C  C107  1  0.90632238  0.14680466  0.87361419  1.0
  C  C108  1  0.51237772  0.75937041  0.36922379  1.0
  C  C109  1  0.54086122  0.78586021  0.36829340  1.0
  C  C110  1  0.57212443  0.81499243  0.36752066  1.0
  C  C111  1  0.60046522  0.84143475  0.36710998  1.0
  C  C112  1  0.02226412  0.74052722  0.62598044  1.0
  C  C113  1  0.05011305  0.71300222  0.62735261  1.0
  C  C114  1  0.08024638  0.68236076  0.62892638  1.0
  C  C115  1  0.10731296  0.65428944  0.63008810  1.0
  C  C116  1  0.49493783  0.26507754  0.12264368  1.0
  C  C117  1  0.46801088  0.29350488  0.12261368  1.0
  C  C118  1  0.43798705  0.32431013  0.12261695  1.0
  C  C119  1  0.41039957  0.35191461  0.12296164  1.0
  N  N120  1  0.38224783  0.58578289  0.30324654  1.0
  N  N121  1  0.35299180  0.56258290  0.32534189  1.0
  N  N122  1  0.31533413  0.60275296  0.42623382  1.0
  N  N123  1  0.33713282  0.63506355  0.44547808  1.0
  N  N124  1  0.42672492  0.68715032  0.39218397  1.0
  N  N125  1  0.43473682  0.67733899  0.35135524  1.0
  N  N126  1  0.89348032  0.91784490  0.68820642  1.0
  N  N127  1  0.85829503  0.93623759  0.66889187  1.0
  N  N128  1  0.81580629  0.89057765  0.57141670  1.0
  N  N129  1  0.83706297  0.85740396  0.55306090  1.0
  N  N130  1  0.93290327  0.81044862  0.60392977  1.0
  N  N131  1  0.94755314  0.82635960  0.64121263  1.0
  N  N132  1  0.09771677  0.42466470  0.81666433  1.0
  N  N133  1  0.12983553  0.44560812  0.83779426  1.0
  N  N134  1  0.17868754  0.39992174  0.93253387  1.0
  N  N135  1  0.16350997  0.36272196  0.94858922  1.0
  N  N136  1  0.07060309  0.31132652  0.89823914  1.0
  N  N137  1  0.05284289  0.32790018  0.86229867  1.0
  N  N138  1  0.60506525  0.07394870  0.18361014  1.0
  N  N139  1  0.64148892  0.05602638  0.16706177  1.0
  N  N140  1  0.69265031  0.10353886  0.07572157  1.0
  N  N141  1  0.67704475  0.14091870  0.05961250  1.0
  N  N142  1  0.58254803  0.19198717  0.10651450  1.0
  N  N143  1  0.56097746  0.17226080  0.13815208  1.0
  N  N144  1  0.87644422  0.11596811  0.87343601  1.0
  N  N145  1  0.37903244  0.38170692  0.12331691  1.0
  N  N146  1  0.63132211  0.87132882  0.36657861  1.0
  N  N147  1  0.13653318  0.62247737  0.63178210  1.0
