# generated using pymatgen
data_Zn4H6C25S4N2O19
_symmetry_space_group_name_H-M   'P 1'
_cell_length_a   19.62000283
_cell_length_b   19.62567581
_cell_length_c   33.29022732
_cell_angle_alpha   79.17352414
_cell_angle_beta   79.23115109
_cell_angle_gamma   63.86721377
_symmetry_Int_Tables_number   1
_chemical_formula_structural   Zn4H6C25S4N2O19
_chemical_formula_sum   'Zn16 H24 C100 S16 N8 O76'
_cell_volume   11224.31785398
_cell_formula_units_Z   4
loop_
 _symmetry_equiv_pos_site_id
 _symmetry_equiv_pos_as_xyz
  1  'x, y, z'
loop_
 _atom_site_type_symbol
 _atom_site_label
 _atom_site_symmetry_multiplicity
 _atom_site_fract_x
 _atom_site_fract_y
 _atom_site_fract_z
 _atom_site_occupancy
  Zn  Zn0  1  0.05790528  0.40198393  0.47773164  1.0
  Zn  Zn1  1  0.98381332  0.48162301  0.56050150  1.0
  Zn  Zn2  1  0.05937351  0.56411860  0.48519699  1.0
  Zn  Zn3  1  0.90341954  0.55695307  0.47729666  1.0
  Zn  Zn4  1  0.69601133  0.35107267  0.27048299  1.0
  Zn  Zn5  1  0.68776036  0.19207496  0.26725490  1.0
  Zn  Zn6  1  0.76847111  0.26135638  0.18912407  1.0
  Zn  Zn7  1  0.84849998  0.19783839  0.27217615  1.0
  Zn  Zn8  1  0.26759320  0.76409571  0.68819191  1.0
  Zn  Zn9  1  0.35274878  0.69436451  0.76873973  1.0
  Zn  Zn10  1  0.19518227  0.84752590  0.77052771  1.0
  Zn  Zn11  1  0.19198245  0.68778905  0.76606621  1.0
  Zn  Zn12  1  0.56093200  0.06063393  0.98244989  1.0
  Zn  Zn13  1  0.40136998  0.05584088  0.97636613  1.0
  Zn  Zn14  1  0.55570624  0.90113665  0.97656057  1.0
  Zn  Zn15  1  0.48437549  0.98101518  0.05890939  1.0
  H  H16  1  0.95710024  0.25726699  0.34507114  1.0
  H  H17  1  0.73427715  0.43999964  0.36617804  1.0
  H  H18  1  0.00635271  0.30646324  0.39252266  1.0
  H  H19  1  0.08539364  0.60585132  0.70361627  1.0
  H  H20  1  0.20682352  0.68729086  0.59935737  1.0
  H  H21  1  0.02803435  0.56588610  0.65578628  1.0
  H  H22  1  0.47456254  0.23805400  0.35249090  1.0
  H  H23  1  0.48073093  0.67909764  0.59711184  1.0
  H  H24  1  0.21679010  0.97749491  0.60106840  1.0
  H  H25  1  0.96216196  0.96056326  0.33394275  1.0
  H  H26  1  0.55377606  0.04083469  0.15243204  1.0
  H  H27  1  0.64311247  0.15995348  0.05059978  1.0
  H  H28  1  0.59892360  0.09063858  0.20159123  1.0
  H  H29  1  0.53793047  0.76582977  0.14583864  1.0
  H  H30  1  0.16272077  0.15781502  0.04068416  1.0
  H  H31  1  0.49093697  0.78572622  0.90892605  1.0
  H  H32  1  0.30630545  0.00787367  0.88908049  1.0
  H  H33  1  0.44408864  0.73766523  0.85981825  1.0
  H  H34  1  0.30115733  0.28248647  0.90110154  1.0
  H  H35  1  0.78169499  0.01588027  0.90068772  1.0
  H  H36  1  0.78118724  0.57323847  0.37757621  1.0
  H  H37  1  0.08284641  0.74527983  0.53423166  1.0
  H  H38  1  0.78780059  0.14611555  0.08095104  1.0
  H  H39  1  0.17734075  0.94707438  0.87532726  1.0
  C  C40  1  0.07001583  0.31559890  0.55945172  1.0
  C  C41  1  0.05233185  0.57880598  0.57325540  1.0
  C  C42  1  0.18675964  0.44242997  0.44330454  1.0
  C  C43  1  0.94756818  0.67939474  0.43285786  1.0
  C  C44  1  0.93014526  0.42872722  0.43288008  1.0
  C  C45  1  0.81899615  0.55760971  0.55810554  1.0
  C  C46  1  0.56761289  0.31543228  0.31257537  1.0
  C  C47  1  0.67679450  0.17785923  0.18324066  1.0
  C  C48  1  0.69256119  0.42863012  0.18572723  1.0
  C  C49  1  0.93419250  0.19459844  0.18957110  1.0
  C  C50  1  0.81469175  0.31896804  0.32312885  1.0
  C  C51  1  0.81758389  0.06316502  0.30521160  1.0
  C  C52  1  0.43428400  0.68517401  0.68441241  1.0
  C  C53  1  0.32320334  0.81561725  0.81778962  1.0
  C  C54  1  0.19012419  0.93192617  0.68738268  1.0
  C  C55  1  0.06772786  0.81062258  0.80882466  1.0
  C  C56  1  0.18176996  0.67537758  0.68177374  1.0
  C  C57  1  0.30935069  0.57259694  0.81420666  1.0
  C  C58  1  0.43659248  0.18745202  0.94004782  1.0
  C  C59  1  0.42898641  0.92916766  0.93056755  1.0
  C  C60  1  0.68251194  0.94154784  0.93516733  1.0
  C  C61  1  0.56189236  0.81390756  0.05949029  1.0
  C  C62  1  0.57132298  0.06615263  0.06923728  1.0
  C  C63  1  0.31636285  0.06414012  0.05998374  1.0
  C  C64  1  0.89814032  0.39991940  0.40592560  1.0
  C  C65  1  0.84321063  0.34670178  0.35247689  1.0
  C  C66  1  0.82054080  0.43796373  0.39913088  1.0
  C  C67  1  0.91975111  0.30787555  0.36018519  1.0
  C  C68  1  0.79393420  0.41132051  0.37200281  1.0
  C  C69  1  0.94684034  0.33489623  0.38651124  1.0
  C  C70  1  0.08566576  0.60403361  0.60116477  1.0
  C  C71  1  0.14853078  0.64962746  0.65397446  1.0
  C  C72  1  0.13667822  0.63788040  0.58466083  1.0
  C  C73  1  0.09882616  0.61479631  0.67034400  1.0
  C  C74  1  0.16719788  0.66110768  0.61134029  1.0
  C  C75  1  0.06729961  0.59256141  0.64391753  1.0
  C  C76  1  0.30290022  0.46374254  0.39907184  1.0
  C  C77  1  0.45400401  0.29787334  0.35652789  1.0
  C  C78  1  0.26087398  0.42170663  0.41675738  1.0
  C  C79  1  0.49398212  0.34128241  0.33894072  1.0
  C  C80  1  0.38500129  0.34254995  0.37916187  1.0
  C  C81  1  0.37431034  0.41869776  0.37823167  1.0
  C  C82  1  0.72659790  0.58351666  0.62650684  1.0
  C  C83  1  0.52504957  0.65867610  0.61735410  1.0
  C  C84  1  0.74419521  0.58408108  0.58395870  1.0
  C  C85  1  0.50949044  0.65838746  0.65965863  1.0
  C  C86  1  0.60473847  0.62992031  0.60543803  1.0
  C  C87  1  0.64730994  0.60845511  0.63904903  1.0
  C  C88  1  0.07439096  0.22428002  0.62792761  1.0
  C  C89  1  0.18338531  0.02234147  0.62073483  1.0
  C  C90  1  0.08976903  0.24130892  0.58559328  1.0
  C  C91  1  0.16688561  0.00752112  0.66283594  1.0
  C  C92  1  0.15058852  0.10179728  0.60825586  1.0
  C  C93  1  0.11007350  0.14514225  0.64123348  1.0
  C  C94  1  0.85068540  0.79969744  0.39392762  1.0
  C  C95  1  0.91589306  0.94233220  0.34129720  1.0
  C  C96  1  0.92155770  0.75470431  0.40769432  1.0
  C  C97  1  0.84429735  0.98649907  0.32864240  1.0
  C  C98  1  0.91837415  0.87329803  0.36446813  1.0
  C  C99  1  0.84841564  0.86685863  0.36870227  1.0
  C  C100  1  0.64665907  0.15231195  0.15366873  1.0
  C  C101  1  0.59717066  0.09648372  0.09871297  1.0
  C  C102  1  0.65890367  0.17300794  0.11090190  1.0
  C  C103  1  0.58351178  0.07752723  0.14125065  1.0
  C  C104  1  0.63443333  0.14444938  0.08373252  1.0
  C  C105  1  0.60826635  0.10531210  0.16842752  1.0
  C  C106  1  0.68454919  0.52077009  0.11686186  1.0
  C  C107  1  0.57156699  0.72179463  0.12571759  1.0
  C  C108  1  0.67078841  0.50272678  0.15922416  1.0
  C  C109  1  0.58669732  0.73791834  0.08362232  1.0
  C  C110  1  0.60603544  0.64216739  0.13754780  1.0
  C  C111  1  0.64655957  0.59994943  0.10416105  1.0
  C  C112  1  0.08313880  0.11982007  0.17757903  1.0
  C  C113  1  0.17078907  0.13583970  0.07275971  1.0
  C  C114  1  0.01068024  0.16522545  0.16539692  1.0
  C  C115  1  0.24189546  0.09050586  0.08572608  1.0
  C  C116  1  0.11311277  0.14780044  0.10663037  1.0
  C  C117  1  0.14195944  0.11096695  0.14441119  1.0
  C  C118  1  0.34934708  0.84560400  0.84713605  1.0
  C  C119  1  0.40078305  0.89949720  0.90199944  1.0
  C  C120  1  0.30948782  0.92234679  0.85527794  1.0
  C  C121  1  0.44023334  0.82322413  0.89385535  1.0
  C  C122  1  0.33566495  0.94855646  0.88278450  1.0
  C  C123  1  0.41442723  0.79669204  0.86661158  1.0
  C  C124  1  0.39886771  0.46066319  0.86273363  1.0
  C  C125  1  0.34351648  0.30484769  0.89940000  1.0
  C  C126  1  0.33289790  0.50142639  0.84324758  1.0
  C  C127  1  0.41072477  0.26460575  0.91721895  1.0
  C  C128  1  0.33986870  0.37617287  0.87923660  1.0
  C  C129  1  0.40416090  0.38843346  0.88250633  1.0
  C  C130  1  0.94965228  0.79153560  0.85141182  1.0
  C  C131  1  0.80069782  0.95691796  0.89539260  1.0
  C  C132  1  0.99408484  0.83189064  0.83575802  1.0
  C  C133  1  0.75771879  0.91549249  0.91019787  1.0
  C  C134  1  0.87019516  0.91170171  0.87326502  1.0
  C  C135  1  0.87828951  0.83705289  0.87204876  1.0
  C  C136  1  0.76207713  0.50315452  0.42213614  1.0
  C  C137  1  0.16569427  0.64527982  0.53944045  1.0
  C  C138  1  0.69141509  0.23063501  0.09296654  1.0
  C  C139  1  0.24205150  0.98085520  0.83389272  1.0
  S  S140  1  0.30827950  0.32753710  0.40669824  1.0
  S  S141  1  0.44920868  0.43550579  0.35023369  1.0
  S  S142  1  0.66341367  0.61708050  0.55933086  1.0
  S  S143  1  0.59055341  0.62224442  0.68519793  1.0
  S  S144  1  0.14615762  0.15958122  0.56201178  1.0
  S  S145  1  0.11331390  0.08902399  0.68760772  1.0
  S  S146  1  0.98587146  0.79537748  0.39023958  1.0
  S  S147  1  0.78010822  0.94467534  0.34392182  1.0
  S  S148  1  0.61314628  0.58334249  0.18348016  1.0
  S  S149  1  0.64125148  0.65735813  0.05813838  1.0
  S  S150  1  0.01479199  0.19490607  0.11303355  1.0
  S  S151  1  0.23962824  0.06313336  0.13872454  1.0
  S  S152  1  0.27573589  0.45258179  0.85093458  1.0
  S  S153  1  0.46966405  0.31243662  0.90967741  1.0
  S  S154  1  0.94920329  0.92490473  0.84773086  1.0
  S  S155  1  0.80037701  0.82246628  0.89710951  1.0
  N  N156  1  0.27821040  0.54598256  0.39714076  1.0
  N  N157  1  0.77885824  0.56773376  0.65625140  1.0
  N  N158  1  0.02331310  0.27732248  0.65716940  1.0
  N  N159  1  0.78225331  0.78480571  0.40528586  1.0
  N  N160  1  0.73647718  0.46932234  0.08712639  1.0
  N  N161  1  0.10111617  0.07865062  0.21815207  1.0
  N  N162  1  0.45588758  0.48714279  0.86619068  1.0
  N  N163  1  0.97190788  0.71040051  0.85098159  1.0
  O  O164  1  0.00186165  0.50059276  0.49976092  1.0
  O  O165  1  0.07706951  0.31308799  0.52061194  1.0
  O  O166  1  0.01804334  0.53653767  0.58946793  1.0
  O  O167  1  0.16332408  0.50024447  0.46237459  1.0
  O  O168  1  0.05028233  0.37429534  0.57727318  1.0
  O  O169  1  0.15467131  0.39725800  0.44503193  1.0
  O  O170  1  0.06116460  0.60230663  0.53502647  1.0
  O  O171  1  0.01070654  0.65706026  0.44750922  1.0
  O  O172  1  0.88571189  0.49328034  0.44530921  1.0
  O  O173  1  0.90551044  0.64372299  0.43710166  1.0
  O  O174  1  0.99874702  0.38768679  0.44063613  1.0
  O  O175  1  0.87532398  0.50284747  0.57396945  1.0
  O  O176  1  0.81867561  0.59153271  0.52129525  1.0
  O  O177  1  0.74974963  0.25083499  0.24973382  1.0
  O  O178  1  0.59457322  0.36531384  0.29933480  1.0
  O  O179  1  0.65021592  0.17316727  0.22116416  1.0
  O  O180  1  0.71381673  0.36898032  0.16846909  1.0
  O  O181  1  0.59759140  0.24597083  0.30514119  1.0
  O  O182  1  0.68533887  0.43309860  0.22432706  1.0
  O  O183  1  0.72856939  0.20101577  0.16778858  1.0
  O  O184  1  0.87801687  0.21676060  0.16867631  1.0
  O  O185  1  0.85755851  0.25211674  0.31309178  1.0
  O  O186  1  0.93082355  0.19737804  0.22768484  1.0
  O  O187  1  0.75047230  0.36424927  0.31040569  1.0
  O  O188  1  0.74882977  0.09207833  0.29635894  1.0
  O  O189  1  0.86492829  0.09366136  0.29628418  1.0
  O  O190  1  0.25185148  0.74872718  0.74867399  1.0
  O  O191  1  0.37520613  0.71359187  0.66530608  1.0
  O  O192  1  0.36664376  0.74881943  0.80803410  1.0
  O  O193  1  0.16701874  0.93186341  0.72600024  1.0
  O  O194  1  0.43526934  0.67795865  0.72337899  1.0
  O  O195  1  0.23043623  0.87381472  0.66808192  1.0
  O  O196  1  0.25874859  0.86005768  0.80513498  1.0
  O  O197  1  0.10346441  0.85174585  0.80877503  1.0
  O  O198  1  0.17672706  0.64974495  0.71989561  1.0
  O  O199  1  0.08744870  0.75651897  0.78735255  1.0
  O  O200  1  0.21207469  0.72110217  0.66505634  1.0
  O  O201  1  0.36121774  0.59284231  0.79550148  1.0
  O  O202  1  0.23816623  0.60497793  0.80949254  1.0
  O  O203  1  0.50037508  0.00015568  0.99857824  1.0
  O  O204  1  0.50190462  0.16087162  0.95316656  1.0
  O  O205  1  0.38621750  0.99638889  0.94025925  1.0
  O  O206  1  0.65206708  0.89397160  0.94358842  1.0
  O  O207  1  0.39204595  0.15413624  0.94467203  1.0
  O  O208  1  0.65498653  0.00828418  0.94635115  1.0
  O  O209  1  0.49384541  0.88473918  0.94274403  1.0
  O  O210  1  0.58134242  0.81494412  0.02058165  1.0
  O  O211  1  0.53313012  0.02720986  0.08502803  1.0
  O  O212  1  0.52386096  0.87160775  0.07941878  1.0
  O  O213  1  0.58969215  0.08159262  0.03092190  1.0
  O  O214  1  0.31571759  0.08130594  0.02110024  1.0
  O  O215  1  0.37491071  0.02576290  0.07941747  1.0
  O  O216  1  0.74506691  0.57508687  0.40234869  1.0
  O  O217  1  0.72660491  0.49295055  0.45491476  1.0
  O  O218  1  0.12919201  0.71468890  0.51747218  1.0
  O  O219  1  0.22230691  0.59590163  0.52378261  1.0
  O  O220  1  0.76514561  0.20172078  0.07471443  1.0
  O  O221  1  0.65339647  0.29907584  0.09164180  1.0
  O  O222  1  0.17147584  0.98896105  0.85316922  1.0
  O  O223  1  0.24833305  0.02383120  0.80358615  1.0
  O  O224  1  0.20930756  0.58863458  0.39859735  1.0
  O  O225  1  0.33086072  0.56710327  0.39191361  1.0
  O  O226  1  0.75580528  0.55166687  0.69270759  1.0
  O  O227  1  0.83959813  0.57422789  0.64444400  1.0
  O  O228  1  0.04000813  0.25887962  0.69313013  1.0
  O  O229  1  0.96667630  0.33333333  0.64533580  1.0
  O  O230  1  0.74830768  0.78946440  0.37619971  1.0
  O  O231  1  0.76165306  0.77241374  0.44218246  1.0
  O  O232  1  0.79275648  0.41256808  0.09879664  1.0
  O  O233  1  0.72113654  0.48991885  0.05095009  1.0
  O  O234  1  0.16603985  0.06390048  0.22632287  1.0
  O  O235  1  0.05408880  0.05834848  0.24073707  1.0
  O  O236  1  0.52012831  0.43582105  0.87281719  1.0
  O  O237  1  0.43710352  0.55654195  0.86418656  1.0
  O  O238  1  0.91795753  0.69157439  0.85433032  1.0
  O  O239  1  0.04038381  0.66597269  0.84921279  1.0
