# generated using pymatgen
data_CuSiH12C24N4(Cl2F3)2
_symmetry_space_group_name_H-M   'P 1'
_cell_length_a   7.98156765
_cell_length_b   13.75404226
_cell_length_c   13.75441542
_cell_angle_alpha   90.02408293
_cell_angle_beta   90.33986247
_cell_angle_gamma   89.65915904
_symmetry_Int_Tables_number   1
_chemical_formula_structural   CuSiH12C24N4(Cl2F3)2
_chemical_formula_sum   'Cu1 Si1 H12 C24 N4 Cl4 F6'
_cell_volume   1509.89008524
_cell_formula_units_Z   1
loop_
 _symmetry_equiv_pos_site_id
 _symmetry_equiv_pos_as_xyz
  1  'x, y, z'
loop_
 _atom_site_type_symbol
 _atom_site_label
 _atom_site_symmetry_multiplicity
 _atom_site_fract_x
 _atom_site_fract_y
 _atom_site_fract_z
 _atom_site_occupancy
  Cu  Cu0  1  0.49998780  0.49999224  0.49999911  1.0
  Si  Si1  1  0.99998909  0.49999534  0.49999567  1.0
  H  H2  1  0.75907527  0.65612110  0.49998023  1.0
  H  H3  1  0.76699408  0.83671932  0.49997267  1.0
  H  H4  1  0.23596630  0.65630719  0.50007602  1.0
  H  H5  1  0.76400066  0.34367439  0.49994181  1.0
  H  H6  1  0.24089999  0.34385755  0.49994600  1.0
  H  H7  1  0.23297006  0.16325426  0.49997681  1.0
  H  H8  1  0.75906608  0.50003235  0.34386081  1.0
  H  H9  1  0.76699629  0.50003112  0.16326166  1.0
  H  H10  1  0.23596713  0.49993336  0.34367155  1.0
  H  H11  1  0.76400443  0.50009401  0.65631285  1.0
  H  H12  1  0.24090235  0.49988234  0.65613374  1.0
  H  H13  1  0.23298076  0.49991263  0.83673291  1.0
  C  C14  1  0.64375604  0.69870986  0.50004230  1.0
  C  C15  1  0.64712518  0.79937678  0.49998948  1.0
  C  C16  1  0.49649190  0.85323705  0.49999309  1.0
  C  C17  1  0.34589869  0.79959891  0.49999721  1.0
  C  C18  1  0.35130940  0.69828592  0.50004010  1.0
  C  C19  1  0.49772448  0.95570420  0.49997918  1.0
  C  C20  1  0.50226607  0.04427443  0.49999507  1.0
  C  C21  1  0.50349240  0.14674232  0.49998405  1.0
  C  C22  1  0.65408320  0.20038410  0.50000247  1.0
  C  C23  1  0.64866372  0.30169856  0.49996101  1.0
  C  C24  1  0.35621314  0.30126517  0.49991373  1.0
  C  C25  1  0.35285276  0.20059241  0.49995784  1.0
  C  C26  1  0.64375248  0.49996795  0.30127307  1.0
  C  C27  1  0.64712062  0.50001057  0.20060668  1.0
  C  C28  1  0.49648943  0.49999753  0.14675008  1.0
  C  C29  1  0.34589042  0.49999636  0.20038752  1.0
  C  C30  1  0.35130585  0.49996870  0.30169847  1.0
  C  C31  1  0.49772360  0.49998889  0.04428353  1.0
  C  C32  1  0.50225584  0.49997450  0.95570887  1.0
  C  C33  1  0.50347988  0.49998478  0.85323866  1.0
  C  C34  1  0.65408129  0.50000266  0.79959978  1.0
  C  C35  1  0.64866956  0.50004267  0.69828885  1.0
  C  C36  1  0.35622574  0.49998235  0.69871132  1.0
  C  C37  1  0.35284757  0.49994193  0.79937843  1.0
  N  N38  1  0.49787526  0.64936425  0.50004440  1.0
  N  N39  1  0.50209149  0.35061732  0.49993271  1.0
  N  N40  1  0.49787223  0.49996730  0.35061661  1.0
  N  N41  1  0.50210461  0.50000917  0.64936996  1.0
  Cl  Cl42  1  0.15498319  0.85790407  0.50003722  1.0
  Cl  Cl43  1  0.84500384  0.14208040  0.49998864  1.0
  Cl  Cl44  1  0.15496949  0.49995441  0.14207908  1.0
  Cl  Cl45  1  0.84499584  0.50007007  0.85790894  1.0
  F  F46  1  0.78246465  0.50024263  0.49973348  1.0
  F  F47  1  0.21750590  0.49974040  0.50025454  1.0
  F  F48  1  0.99996781  0.58785566  0.58786079  1.0
  F  F49  1  0.99999410  0.41213287  0.41213124  1.0
  F  F50  1  0.99948023  0.58783126  0.41216649  1.0
  F  F51  1  0.00051160  0.41216263  0.58782811  1.0
