# generated using pymatgen
data_Zn3H34(C7O2)6
_symmetry_space_group_name_H-M   'P 1'
_cell_length_a   18.19633146
_cell_length_b   18.19635924
_cell_length_c   24.77924960
_cell_angle_alpha   89.99983552
_cell_angle_beta   90.00000339
_cell_angle_gamma   119.99994749
_symmetry_Int_Tables_number   1
_chemical_formula_structural   Zn3H34(C7O2)6
_chemical_formula_sum   'Zn9 H102 C126 O36'
_cell_volume   7105.38071971
_cell_formula_units_Z   3
loop_
 _symmetry_equiv_pos_site_id
 _symmetry_equiv_pos_as_xyz
  1  'x, y, z'
loop_
 _atom_site_type_symbol
 _atom_site_label
 _atom_site_symmetry_multiplicity
 _atom_site_fract_x
 _atom_site_fract_y
 _atom_site_fract_z
 _atom_site_occupancy
  Zn  Zn0  1  0.67641445  0.00000001  0.99999919  1.0
  Zn  Zn1  1  0.32358341  0.32358341  0.33333333  1.0
  Zn  Zn2  1  0.00000060  0.67641715  0.66666667  1.0
  Zn  Zn3  1  0.71870634  0.94238267  0.10789354  1.0
  Zn  Zn4  1  0.22367590  0.28130124  0.44122676  1.0
  Zn  Zn5  1  0.05761890  0.77632538  0.77456119  1.0
  Zn  Zn6  1  0.77632404  0.05761801  0.89210563  1.0
  Zn  Zn7  1  0.28129290  0.22367344  0.22543957  1.0
  Zn  Zn8  1  0.94237522  0.71869882  0.55877321  1.0
  H  H9  1  0.55195575  0.11745977  0.95800303  1.0
  H  H10  1  0.56549763  0.44804652  0.29133520  1.0
  H  H11  1  0.88253752  0.43450123  0.62466977  1.0
  H  H12  1  0.43449778  0.88253839  0.04199572  1.0
  H  H13  1  0.44803757  0.56549692  0.37533100  1.0
  H  H14  1  0.11745377  0.55195545  0.70866395  1.0
  H  H15  1  0.65301201  0.14189361  0.93010063  1.0
  H  H16  1  0.48887736  0.34699013  0.26343293  1.0
  H  H17  1  0.85809982  0.51112146  0.59676812  1.0
  H  H18  1  0.51112083  0.85810582  0.06989812  1.0
  H  H19  1  0.34697831  0.48887733  0.40323185  1.0
  H  H20  1  0.14188990  0.65301184  0.73656703  1.0
  H  H21  1  0.64726257  0.21259811  0.97826586  1.0
  H  H22  1  0.56533311  0.35274119  0.31159782  1.0
  H  H23  1  0.78739664  0.43466554  0.64493511  1.0
  H  H24  1  0.43466649  0.78739942  0.02173370  1.0
  H  H25  1  0.35273364  0.56533515  0.35506566  1.0
  H  H26  1  0.21259490  0.64726142  0.68840173  1.0
  H  H27  1  0.54153066  0.16812298  0.04490148  1.0
  H  H28  1  0.62658858  0.45847621  0.37823209  1.0
  H  H29  1  0.83187722  0.37340960  0.71156795  1.0
  H  H30  1  0.37340854  0.83187645  0.95509888  1.0
  H  H31  1  0.45846952  0.62658982  0.28843202  1.0
  H  H32  1  0.16811699  0.54152640  0.62176746  1.0
  H  H33  1  0.54730321  0.09424315  0.20951550  1.0
  H  H34  1  0.54694066  0.45269923  0.54284806  1.0
  H  H35  1  0.90576467  0.45306197  0.87618221  1.0
  H  H36  1  0.45305830  0.90575437  0.79048406  1.0
  H  H37  1  0.45270262  0.54693681  0.12381816  1.0
  H  H38  1  0.09423975  0.54729958  0.45715311  1.0
  H  H39  1  0.63086350  0.02603058  0.18090979  1.0
  H  H40  1  0.39516792  0.36913434  0.51424356  1.0
  H  H41  1  0.97397296  0.60483330  0.84757586  1.0
  H  H42  1  0.60483188  0.97396948  0.81908857  1.0
  H  H43  1  0.36913959  0.39516548  0.15242451  1.0
  H  H44  1  0.02602961  0.63086320  0.48575679  1.0
  H  H45  1  0.47280045  0.16792208  0.18979771  1.0
  H  H46  1  0.69512077  0.52720374  0.52313028  1.0
  H  H47  1  0.83207900  0.30488058  0.85646426  1.0
  H  H48  1  0.30487685  0.83207481  0.81020184  1.0
  H  H49  1  0.52719890  0.69511821  0.14353410  1.0
  H  H50  1  0.16791944  0.47279885  0.47687049  1.0
  H  H51  1  0.42476177  0.16739696  0.07068071  1.0
  H  H52  1  0.74263398  0.57524157  0.40401241  1.0
  H  H53  1  0.83261207  0.25736880  0.73734972  1.0
  H  H54  1  0.25736520  0.83260374  0.92931925  1.0
  H  H55  1  0.57524493  0.74263125  0.26264904  1.0
  H  H56  1  0.16739570  0.42476167  0.59598835  1.0
  H  H57  1  0.30352366  0.17405117  0.06040113  1.0
  H  H58  1  0.87052782  0.69648016  0.39373312  1.0
  H  H59  1  0.82596133  0.12947609  0.72706908  1.0
  H  H60  1  0.12947210  0.82595017  0.93959922  1.0
  H  H61  1  0.69648369  0.87052523  0.27293009  1.0
  H  H62  1  0.17405151  0.30352308  0.60626603  1.0
  H  H63  1  0.17515033  0.16011719  0.03456904  1.0
  H  H64  1  0.98496817  0.82485270  0.36790574  1.0
  H  H65  1  0.83989345  0.01503582  0.70123912  1.0
  H  H66  1  0.01503235  0.83988225  0.96543090  1.0
  H  H67  1  0.82485584  0.98496613  0.29876046  1.0
  H  H68  1  0.16011603  0.17515054  0.63209504  1.0
  H  H69  1  0.08730660  0.19626423  0.12839049  1.0
  H  H70  1  0.10895893  0.91269688  0.46172671  1.0
  H  H71  1  0.80374084  0.89104105  0.79505888  1.0
  H  H72  1  0.89104073  0.80373139  0.87160947  1.0
  H  H73  1  0.91269791  0.10895964  0.20493989  1.0
  H  H74  1  0.19626021  0.08730383  0.53827525  1.0
  H  H75  1  0.95875006  0.18759860  0.11933996  1.0
  H  H76  1  0.22884392  0.04125214  0.45267667  1.0
  H  H77  1  0.81240281  0.77115431  0.78600723  1.0
  H  H78  1  0.77115080  0.81239891  0.88065961  1.0
  H  H79  1  0.04124853  0.22884575  0.21399192  1.0
  H  H80  1  0.18759145  0.95875048  0.54732409  1.0
  H  H81  1  0.82532278  0.14713363  0.06920894  1.0
  H  H82  1  0.32180809  0.17467979  0.40254587  1.0
  H  H83  1  0.85285956  0.67818441  0.73587668  1.0
  H  H84  1  0.67818968  0.85286515  0.93079103  1.0
  H  H85  1  0.17467487  0.32181503  0.26412288  1.0
  H  H86  1  0.14712733  0.82532155  0.59745488  1.0
  H  H87  1  0.05806968  0.12226522  0.98066941  1.0
  H  H88  1  0.06419460  0.94192843  0.31400469  1.0
  H  H89  1  0.87774075  0.93580579  0.64733523  1.0
  H  H90  1  0.93580371  0.87773231  0.01933055  1.0
  H  H91  1  0.94193442  0.06419426  0.35266475  1.0
  H  H92  1  0.12226709  0.05807228  0.68599727  1.0
  H  H93  1  0.03774013  0.12066125  0.88836637  1.0
  H  H94  1  0.08291848  0.96225736  0.22170486  1.0
  H  H95  1  0.87934591  0.91708092  0.55503383  1.0
  H  H96  1  0.91707941  0.87933882  0.11163399  1.0
  H  H97  1  0.96226399  0.08292040  0.44496615  1.0
  H  H98  1  0.12066008  0.03774272  0.77829670  1.0
  H  H99  1  0.94801974  0.04086209  0.85133202  1.0
  H  H100  1  0.09283578  0.05197529  0.18466854  1.0
  H  H101  1  0.95914206  0.90715384  0.51799776  1.0
  H  H102  1  0.90715709  0.95913795  0.14866797  1.0
  H  H103  1  0.05198726  0.09284749  0.48200260  1.0
  H  H104  1  0.04085891  0.94802479  0.81533262  1.0
  H  H105  1  0.98157380  0.01214540  0.91196100  1.0
  H  H106  1  0.03056976  0.01842312  0.24529954  1.0
  H  H107  1  0.98786220  0.96942476  0.57862786  1.0
  H  H108  1  0.96942784  0.98785464  0.08803898  1.0
  H  H109  1  0.01843561  0.03057593  0.42137250  1.0
  H  H110  1  0.01214506  0.98157697  0.75470161  1.0
  C  C111  1  0.62029956  0.14585962  0.96611302  1.0
  C  C112  1  0.52555743  0.37970251  0.29944488  1.0
  C  C113  1  0.85413481  0.47444278  0.63278055  1.0
  C  C114  1  0.47444031  0.85413789  0.03388614  1.0
  C  C115  1  0.37969284  0.52555664  0.36721942  1.0
  C  C116  1  0.14585672  0.62029883  0.70055467  1.0
  C  C117  1  0.63163880  0.05666947  0.09716710  1.0
  C  C118  1  0.42502878  0.36836037  0.43050011  1.0
  C  C119  1  0.94333147  0.57497094  0.76383486  1.0
  C  C120  1  0.57496925  0.94333249  0.90283206  1.0
  C  C121  1  0.36835992  0.42502785  0.23616592  1.0
  C  C122  1  0.05666697  0.63163780  0.56949984  1.0
  C  C123  1  0.60748750  0.09967869  0.05914976  1.0
  C  C124  1  0.49218838  0.39251121  0.39248239  1.0
  C  C125  1  0.90032024  0.50781053  0.72581723  1.0
  C  C126  1  0.50780810  0.90032200  0.94084939  1.0
  C  C127  1  0.39250855  0.49218826  0.27418355  1.0
  C  C128  1  0.09967809  0.60748949  0.60751756  1.0
  C  C129  1  0.56015215  0.13632676  0.07454244  1.0
  C  C130  1  0.57617254  0.43985192  0.40787425  1.0
  C  C131  1  0.86367290  0.42382798  0.74121044  1.0
  C  C132  1  0.42382427  0.86367202  0.92545712  1.0
  C  C133  1  0.43984596  0.57617081  0.25878953  1.0
  C  C134  1  0.13632328  0.56015005  0.59212570  1.0
  C  C135  1  0.53599599  0.13334665  0.12918978  1.0
  C  C136  1  0.59734956  0.46400888  0.46252156  1.0
  C  C137  1  0.86665340  0.40264944  0.79585739  1.0
  C  C138  1  0.40264790  0.86665150  0.87080937  1.0
  C  C139  1  0.46400499  0.59734934  0.20414258  1.0
  C  C140  1  0.13334279  0.53599310  0.53747839  1.0
  C  C141  1  0.56447836  0.09555492  0.16717725  1.0
  C  C142  1  0.53107687  0.43552513  0.50051023  1.0
  C  C143  1  0.90444797  0.46892461  0.83384516  1.0
  C  C144  1  0.46892231  0.90444386  0.83282190  1.0
  C  C145  1  0.43552493  0.53107417  0.16615521  1.0
  C  C146  1  0.09555014  0.56447494  0.49949053  1.0
  C  C147  1  0.61078188  0.05711797  0.15153800  1.0
  C  C148  1  0.44633529  0.38921625  0.48487139  1.0
  C  C149  1  0.94288465  0.55366550  0.81820537  1.0
  C  C150  1  0.55366295  0.94288335  0.84846116  1.0
  C  C151  1  0.38921909  0.44633329  0.18179541  1.0
  C  C152  1  0.05711476  0.61078065  0.51512937  1.0
  C  C153  1  0.47880909  0.16230174  0.14625120  1.0
  C  C154  1  0.68349317  0.52119378  0.47958255  1.0
  C  C155  1  0.83770001  0.31651059  0.81291974  1.0
  C  C156  1  0.31650426  0.83769641  0.85374956  1.0
  C  C157  1  0.52118880  0.68348820  0.18707942  1.0
  C  C158  1  0.16229811  0.47880692  0.52041700  1.0
  C  C159  1  0.42671749  0.17680510  0.11428170  1.0
  C  C160  1  0.75008990  0.57328188  0.44761382  1.0
  C  C161  1  0.82319511  0.24990860  0.78094871  1.0
  C  C162  1  0.24991191  0.82319497  0.88571745  1.0
  C  C163  1  0.57328676  0.75009083  0.21905045  1.0
  C  C164  1  0.17680666  0.42671755  0.55238735  1.0
  C  C165  1  0.36431796  0.19598451  0.13709673  1.0
  C  C166  1  0.83166819  0.63568299  0.47042962  1.0
  C  C167  1  0.80402368  0.16833614  0.80376748  1.0
  C  C168  1  0.16833361  0.80401684  0.86290322  1.0
  C  C169  1  0.63568700  0.83166392  0.19623208  1.0
  C  C170  1  0.19598534  0.36431834  0.52956994  1.0
  C  C171  1  0.29935945  0.18944401  0.10240319  1.0
  C  C172  1  0.89008280  0.70064351  0.43573641  1.0
  C  C173  1  0.81056930  0.10991957  0.76907279  1.0
  C  C174  1  0.10991710  0.81055924  0.89759676  1.0
  C  C175  1  0.70064818  0.89008175  0.23092678  1.0
  C  C176  1  0.18944195  0.29935846  0.56426355  1.0
  C  C177  1  0.22666973  0.19435751  0.11636406  1.0
  C  C178  1  0.96768783  0.77332924  0.44969842  1.0
  C  C179  1  0.80564848  0.03231261  0.78303213  1.0
  C  C180  1  0.03231221  0.80564130  0.88363629  1.0
  C  C181  1  0.77333431  0.96768871  0.21696744  1.0
  C  C182  1  0.19435919  0.22667082  0.55030195  1.0
  C  C183  1  0.16296546  0.17631007  0.07472263  1.0
  C  C184  1  0.01334590  0.83703698  0.40805930  1.0
  C  C185  1  0.82369757  0.98665805  0.74139129  1.0
  C  C186  1  0.98665447  0.82368808  0.92527734  1.0
  C  C187  1  0.83703773  0.01334391  0.25860788  1.0
  C  C188  1  0.17630914  0.16296564  0.59194266  1.0
  C  C189  1  0.09097184  0.17804561  0.08682267  1.0
  C  C190  1  0.08707407  0.90902975  0.42015847  1.0
  C  C191  1  0.82196130  0.91292519  0.75349182  1.0
  C  C192  1  0.91292459  0.82195000  0.91317689  1.0
  C  C193  1  0.90903478  0.08707549  0.24650776  1.0
  C  C194  1  0.17804358  0.09097096  0.57984310  1.0
  C  C195  1  0.01785568  0.15779253  0.05394720  1.0
  C  C196  1  0.13993659  0.98214712  0.38728249  1.0
  C  C197  1  0.84221382  0.86006306  0.72061396  1.0
  C  C198  1  0.86006161  0.84220437  0.94605236  1.0
  C  C199  1  0.98214966  0.13993698  0.27938562  1.0
  C  C200  1  0.15778818  0.01785358  0.61271826  1.0
  C  C201  1  0.95144572  0.16488718  0.07785406  1.0
  C  C202  1  0.21343914  0.04855686  0.41118872  1.0
  C  C203  1  0.83511545  0.78655816  0.74452089  1.0
  C  C204  1  0.78655851  0.83511159  0.92214551  1.0
  C  C205  1  0.04855701  0.21344127  0.25547786  1.0
  C  C206  1  0.16488131  0.95144448  0.58881163  1.0
  C  C207  1  0.87694690  0.14282173  0.05011636  1.0
  C  C208  1  0.26587247  0.12305696  0.38345213  1.0
  C  C209  1  0.85717798  0.73412309  0.71678322  1.0
  C  C210  1  0.73412515  0.85717705  0.94988321  1.0
  C  C211  1  0.12305461  0.26587634  0.28321553  1.0
  C  C212  1  0.14281431  0.87694501  0.61654863  1.0
  C  C213  1  0.86606795  0.11267305  0.99703046  1.0
  C  C214  1  0.24660259  0.13393376  0.33036617  1.0
  C  C215  1  0.88732449  0.75339027  0.66369806  1.0
  C  C216  1  0.75339599  0.88732700  0.00296871  1.0
  C  C217  1  0.13393380  0.24661107  0.33630190  1.0
  C  C218  1  0.11266842  0.86606758  0.66963499  1.0
  C  C219  1  0.93383398  0.10751082  0.97190985  1.0
  C  C220  1  0.17367592  0.06616539  0.30524481  1.0
  C  C221  1  0.89248961  0.82632105  0.63857737  1.0
  C  C222  1  0.82632361  0.89248795  0.02808973  1.0
  C  C223  1  0.06616948  0.17367965  0.36142179  1.0
  C  C224  1  0.10751177  0.93383595  0.69475715  1.0
  C  C225  1  0.00778083  0.12881020  0.99983100  1.0
  C  C226  1  0.12102828  0.99221928  0.33316624  1.0
  C  C227  1  0.87119397  0.87897044  0.66649648  1.0
  C  C228  1  0.87896987  0.87118732  0.00016896  1.0
  C  C229  1  0.99222298  0.12102960  0.33350310  1.0
  C  C230  1  0.12881023  0.00778206  0.66683532  1.0
  C  C231  1  0.97538268  0.06248459  0.89152813  1.0
  C  C232  1  0.08709823  0.02461347  0.22486591  1.0
  C  C233  1  0.93752085  0.91289602  0.55819470  1.0
  C  C234  1  0.91289777  0.93751483  0.10847186  1.0
  C  C235  1  0.02462419  0.08710595  0.44180526  1.0
  C  C236  1  0.06248318  0.97538661  0.77513565  1.0
  O  O237  1  0.63505464  0.09939960  0.00730679  1.0
  O  O238  1  0.46434160  0.36494530  0.34063985  1.0
  O  O239  1  0.90059750  0.53565847  0.67397463  1.0
  O  O240  1  0.53565612  0.90059918  0.99269196  1.0
  O  O241  1  0.36493851  0.46434159  0.32602574  1.0
  O  O242  1  0.09939896  0.63505667  0.65936011  1.0
  O  O243  1  0.67298408  0.01839498  0.07901163  1.0
  O  O244  1  0.34540841  0.32701262  0.41234666  1.0
  O  O245  1  0.98160545  0.65459206  0.74568007  1.0
  O  O246  1  0.65458893  0.98160571  0.92098713  1.0
  O  O247  1  0.32701224  0.34540674  0.25432071  1.0
  O  O248  1  0.01839576  0.67298618  0.58765491  1.0
  O  O249  1  0.37059860  0.21391500  0.18822296  1.0
  O  O250  1  0.84331387  0.62940245  0.52155627  1.0
  O  O251  1  0.78609278  0.15668581  0.85489293  1.0
  O  O252  1  0.15668367  0.78608508  0.81177699  1.0
  O  O253  1  0.62940808  0.84331426  0.14510704  1.0
  O  O254  1  0.21391352  0.37059952  0.47844409  1.0
  O  O255  1  0.20997411  0.21143307  0.16441982  1.0
  O  O256  1  0.00145968  0.79002027  0.49775416  1.0
  O  O257  1  0.78856234  0.99853711  0.83108770  1.0
  O  O258  1  0.99854162  0.78856699  0.83558015  1.0
  O  O259  1  0.79002413  0.00146294  0.16891187  1.0
  O  O260  1  0.21143542  0.20997727  0.50224579  1.0
  O  O261  1  0.79395399  0.08766696  0.96988035  1.0
  O  O262  1  0.29371036  0.20604594  0.30321515  1.0
  O  O263  1  0.91232486  0.70627803  0.63654838  1.0
  O  O264  1  0.70628875  0.91233436  0.03011842  1.0
  O  O265  1  0.20604632  0.29372203  0.36345159  1.0
  O  O266  1  0.08766283  0.79395414  0.69678520  1.0
  O  O267  1  0.91634881  0.07889341  0.91962379  1.0
  O  O268  1  0.16254053  0.08364878  0.25295992  1.0
  O  O269  1  0.92110879  0.83745231  0.58629087  1.0
  O  O270  1  0.83745562  0.92110599  0.08037578  1.0
  O  O271  1  0.08365638  0.16254966  0.41370869  1.0
  O  O272  1  0.07889095  0.91635067  0.74704164  1.0
