# generated using pymatgen
data_Zn2H19C35N7O8
_symmetry_space_group_name_H-M   'P 1'
_cell_length_a   9.82571734
_cell_length_b   10.96006026
_cell_length_c   15.81746076
_cell_angle_alpha   92.01316957
_cell_angle_beta   90.11878488
_cell_angle_gamma   90.95639223
_symmetry_Int_Tables_number   1
_chemical_formula_structural   Zn2H19C35N7O8
_chemical_formula_sum   'Zn2 H19 C35 N7 O8'
_cell_volume   1702.09498077
_cell_formula_units_Z   1
loop_
 _symmetry_equiv_pos_site_id
 _symmetry_equiv_pos_as_xyz
  1  'x, y, z'
loop_
 _atom_site_type_symbol
 _atom_site_label
 _atom_site_symmetry_multiplicity
 _atom_site_fract_x
 _atom_site_fract_y
 _atom_site_fract_z
 _atom_site_occupancy
  Zn  Zn0  1  0.63186457  0.49346827  0.49950337  1.0
  Zn  Zn1  1  0.35470967  0.49041508  0.50056462  1.0
  H  H2  1  0.43553965  0.69589877  0.94525624  1.0
  H  H3  1  0.80288727  0.87321310  0.51154187  1.0
  H  H4  1  0.38540934  0.63663263  0.08372947  1.0
  H  H5  1  0.86243816  0.54441042  0.30690078  1.0
  H  H6  1  0.86415766  0.68557339  0.36724936  1.0
  H  H7  1  0.12042186  0.68824894  0.37204069  1.0
  H  H8  1  0.29119693  0.42895186  0.06943921  1.0
  H  H9  1  0.28944268  0.49969739  0.93227459  1.0
  H  H10  1  0.36411550  0.36082136  0.89867174  1.0
  H  H11  1  0.65218349  0.33080303  0.05681199  1.0
  H  H12  1  0.72758469  0.48219418  0.91930899  1.0
  H  H13  1  0.56023626  0.66429255  0.10429126  1.0
  H  H14  1  0.61264722  0.67993579  0.96029622  1.0
  H  H15  1  0.62825677  0.34605688  0.91261848  1.0
  H  H16  1  0.25808747  0.87406100  0.51009825  1.0
  H  H17  1  0.26002944  0.09994075  0.53086417  1.0
  H  H18  1  0.77869582  0.12349106  0.42943743  1.0
  H  H19  1  0.80325819  0.10071419  0.53987108  1.0
  H  H20  1  0.77234571  0.89646384  0.40165967  1.0
  C  C21  1  0.47059902  0.72534435  0.47736459  1.0
  C  C22  1  0.47308275  0.86081910  0.48663789  1.0
  C  C23  1  0.35322922  0.92582098  0.50491838  1.0
  C  C24  1  0.51310915  0.45061115  0.33778163  1.0
  C  C25  1  0.35440598  0.05234925  0.51715002  1.0
  C  C26  1  0.47586295  0.12225627  0.51234082  1.0
  C  C27  1  0.59407342  0.05725596  0.49569452  1.0
  C  C28  1  0.74655094  0.06900467  0.48310069  1.0
  C  C29  1  0.74456027  0.92578675  0.46646815  1.0
  C  C30  1  0.06424336  0.52445580  0.43971215  1.0
  C  C31  1  0.06520757  0.42971652  0.56391885  1.0
  C  C32  1  0.51314853  0.63525375  0.96958259  1.0
  C  C33  1  0.92009163  0.42797388  0.56344888  1.0
  C  C34  1  0.92213674  0.52629099  0.44041786  1.0
  C  C35  1  0.91061896  0.59545831  0.36022275  1.0
  C  C36  1  0.47494586  0.25780718  0.51925745  1.0
  C  C37  1  0.07419525  0.59731792  0.35885781  1.0
  C  C38  1  0.51259650  0.54097180  0.66110464  1.0
  C  C39  1  0.48845766  0.61110652  0.06390233  1.0
  C  C40  1  0.38451905  0.40299954  0.03527623  1.0
  C  C41  1  0.37746241  0.44115187  0.94136375  1.0
  C  C42  1  0.51203579  0.54370882  0.75213716  1.0
  C  C43  1  0.50921092  0.51224213  0.91828272  1.0
  C  C44  1  0.50527094  0.47358410  0.08076922  1.0
  C  C45  1  0.13283922  0.37960529  0.63448423  1.0
  C  C46  1  0.85157109  0.36775661  0.63021302  1.0
  C  C47  1  0.13371230  0.54298025  0.28277298  1.0
  C  C48  1  0.39931138  0.27146756  0.04209495  1.0
  C  C49  1  0.75614305  0.49420353  0.08000111  1.0
  C  C50  1  0.63513054  0.43763234  0.94291547  1.0
  C  C51  1  0.64163233  0.42718321  0.04074908  1.0
  C  C52  1  0.51113341  0.53169827  0.82814461  1.0
  C  C53  1  0.50494321  0.45560607  0.17081522  1.0
  C  C54  1  0.50895428  0.44648432  0.24690406  1.0
  C  C55  1  0.59258807  0.93060585  0.48253023  1.0
  N  N56  1  0.13921583  0.48001598  0.50061514  1.0
  N  N57  1  0.84686908  0.48029824  0.50147288  1.0
  N  N58  1  0.17695542  0.33830597  0.69557835  1.0
  N  N59  1  0.80739904  0.31253766  0.68594610  1.0
  N  N60  1  0.17376850  0.50395314  0.21824661  1.0
  N  N61  1  0.41502137  0.16660784  0.04637332  1.0
  N  N62  1  0.84520687  0.54922718  0.11302336  1.0
  O  O63  1  0.58544276  0.67253755  0.47522573  1.0
  O  O64  1  0.35419020  0.67112838  0.47422600  1.0
  O  O65  1  0.63110152  0.45801531  0.37182475  1.0
  O  O66  1  0.39936703  0.44953545  0.37611046  1.0
  O  O67  1  0.59024237  0.31318522  0.51836043  1.0
  O  O68  1  0.35960152  0.30944378  0.52284379  1.0
  O  O69  1  0.62864531  0.53881397  0.62501151  1.0
  O  O70  1  0.39705164  0.53785216  0.62415810  1.0
