# generated using pymatgen
data_Cu3H14C17O12
_symmetry_space_group_name_H-M   'P 1'
_cell_length_a   7.50410495
_cell_length_b   18.15019282
_cell_length_c   20.13623709
_cell_angle_alpha   89.99574154
_cell_angle_beta   90.00377330
_cell_angle_gamma   89.99317896
_symmetry_Int_Tables_number   1
_chemical_formula_structural   Cu3H14C17O12
_chemical_formula_sum   'Cu12 H56 C68 O48'
_cell_volume   2742.57462405
_cell_formula_units_Z   4
loop_
 _symmetry_equiv_pos_site_id
 _symmetry_equiv_pos_as_xyz
  1  'x, y, z'
loop_
 _atom_site_type_symbol
 _atom_site_label
 _atom_site_symmetry_multiplicity
 _atom_site_fract_x
 _atom_site_fract_y
 _atom_site_fract_z
 _atom_site_occupancy
  Cu  Cu0  1  0.16663390  0.94438059  0.56477765  1.0
  Cu  Cu1  1  0.16729102  0.55546373  0.93538828  1.0
  Cu  Cu2  1  0.33298953  0.05543152  0.06456771  1.0
  Cu  Cu3  1  0.33333333  0.44436702  0.43524057  1.0
  Cu  Cu4  1  0.83331928  0.05561430  0.43525951  1.0
  Cu  Cu5  1  0.83262084  0.44460499  0.06461858  1.0
  Cu  Cu6  1  0.66711024  0.94443059  0.93518290  1.0
  Cu  Cu7  1  0.66666667  0.55560859  0.56476579  1.0
  Cu  Cu8  1  0.00003022  0.49998046  0.50001297  1.0
  Cu  Cu9  1  0.99860286  0.99978447  0.99977289  1.0
  Cu  Cu10  1  0.49995579  0.50008524  0.00000931  1.0
  Cu  Cu11  1  0.49997288  0.00000579  0.50003429  1.0
  H  H12  1  0.18527680  0.72676857  0.48331101  1.0
  H  H13  1  0.43846443  0.62673142  0.31431296  1.0
  H  H14  1  0.41330049  0.86322254  0.33089532  1.0
  H  H15  1  0.62875025  0.70175219  0.24776148  1.0
  H  H16  1  0.04854813  0.46822759  0.38657254  1.0
  H  H17  1  0.84863082  0.99338443  0.58092850  1.0
  H  H18  1  0.83230851  0.91533242  0.54828933  1.0
  H  H19  1  0.18509323  0.77310056  0.01676790  1.0
  H  H20  1  0.43830841  0.87326171  0.18568996  1.0
  H  H21  1  0.41319056  0.63674373  0.16930203  1.0
  H  H22  1  0.62861694  0.79832454  0.25231258  1.0
  H  H23  1  0.04812829  0.03134938  0.11304959  1.0
  H  H24  1  0.84921427  0.50642527  0.91924854  1.0
  H  H25  1  0.83327555  0.58456129  0.95187580  1.0
  H  H26  1  0.31485237  0.27320165  0.98328412  1.0
  H  H27  1  0.06168474  0.37335077  0.81429946  1.0
  H  H28  1  0.08685903  0.13683575  0.83079627  1.0
  H  H29  1  0.87135551  0.29838136  0.74770769  1.0
  H  H30  1  0.45188718  0.53159599  0.88656888  1.0
  H  H31  1  0.65131005  0.00660692  0.08085320  1.0
  H  H32  1  0.66729324  0.08470671  0.04822048  1.0
  H  H33  1  0.31467397  0.22676658  0.51672588  1.0
  H  H34  1  0.06149206  0.12676123  0.68574333  1.0
  H  H35  1  0.08673550  0.36325516  0.66913701  1.0
  H  H36  1  0.87129091  0.20180314  0.75230377  1.0
  H  H37  1  0.45141011  0.96820821  0.61347083  1.0
  H  H38  1  0.65136759  0.49339060  0.41909057  1.0
  H  H39  1  0.66772670  0.41533794  0.45173916  1.0
  H  H40  1  0.81473768  0.27320208  0.51672217  1.0
  H  H41  1  0.56154072  0.37325686  0.68570731  1.0
  H  H42  1  0.58664470  0.13676243  0.66913935  1.0
  H  H43  1  0.37126422  0.29827025  0.75226376  1.0
  H  H44  1  0.95147301  0.53176620  0.61345121  1.0
  H  H45  1  0.15132770  0.00658567  0.41910021  1.0
  H  H46  1  0.16764467  0.08463879  0.45174832  1.0
  H  H47  1  0.81481732  0.22679516  0.98325833  1.0
  H  H48  1  0.56156614  0.12671556  0.81428313  1.0
  H  H49  1  0.58686790  0.36321865  0.83076542  1.0
  H  H50  1  0.37130292  0.20169295  0.74770620  1.0
  H  H51  1  0.95161304  0.96802407  0.88619796  1.0
  H  H52  1  0.15076157  0.49354704  0.08076230  1.0
  H  H53  1  0.16662033  0.41542589  0.04811020  1.0
  H  H54  1  0.68509812  0.72693319  0.01679027  1.0
  H  H55  1  0.93828175  0.62677139  0.18575309  1.0
  H  H56  1  0.91335399  0.86328476  0.16925529  1.0
  H  H57  1  0.12866163  0.70169012  0.25232102  1.0
  H  H58  1  0.54808730  0.46857025  0.11342804  1.0
  H  H59  1  0.34923077  0.99364250  0.91921027  1.0
  H  H60  1  0.33314631  0.91554327  0.95186981  1.0
  H  H61  1  0.68527388  0.77320848  0.48331078  1.0
  H  H62  1  0.93844246  0.87327829  0.31432313  1.0
  H  H63  1  0.91330696  0.63678106  0.33087333  1.0
  H  H64  1  0.12876488  0.79826503  0.24777013  1.0
  H  H65  1  0.54851909  0.03176684  0.38660009  1.0
  H  H66  1  0.34869752  0.50659713  0.58091878  1.0
  H  H67  1  0.33230510  0.58464979  0.54827863  1.0
  C  C68  1  0.29405345  0.80183735  0.41052727  1.0
  C  C69  1  0.25472402  0.73208600  0.43613024  1.0
  C  C70  1  0.30474565  0.66944000  0.40024264  1.0
  C  C71  1  0.39616234  0.67654966  0.34008503  1.0
  C  C72  1  0.43598222  0.74565530  0.31386430  1.0
  C  C73  1  0.38308615  0.80814987  0.34941218  1.0
  C  C74  1  0.24397385  0.87004906  0.44818015  1.0
  C  C75  1  0.26517576  0.59399179  0.42478255  1.0
  C  C76  1  0.29382820  0.69808144  0.08964522  1.0
  C  C77  1  0.25453000  0.76780556  0.06395717  1.0
  C  C78  1  0.30457225  0.83047275  0.09979856  1.0
  C  C79  1  0.39601014  0.82341527  0.15996531  1.0
  C  C80  1  0.43591597  0.75433904  0.18624283  1.0
  C  C81  1  0.38296064  0.69180909  0.15074903  1.0
  C  C82  1  0.24372931  0.62984578  0.05206636  1.0
  C  C83  1  0.26503611  0.90589099  0.07516910  1.0
  C  C84  1  0.20600809  0.19818655  0.91046419  1.0
  C  C85  1  0.24535848  0.26791219  0.93610119  1.0
  C  C86  1  0.19538906  0.33056543  0.90022165  1.0
  C  C87  1  0.10392519  0.32350791  0.84006234  1.0
  C  C88  1  0.06407761  0.25442582  0.81381199  1.0
  C  C89  1  0.11697338  0.19190806  0.84934542  1.0
  C  C90  1  0.25618898  0.12993826  0.94806619  1.0
  C  C91  1  0.23526227  0.40600509  0.92470928  1.0
  C  C92  1  0.20595198  0.30185047  0.58950984  1.0
  C  C93  1  0.24525056  0.23209091  0.56391125  1.0
  C  C94  1  0.19520272  0.16945394  0.59980322  1.0
  C  C95  1  0.10380666  0.17658270  0.65996629  1.0
  C  C96  1  0.06402849  0.24569156  0.68618468  1.0
  C  C97  1  0.11693881  0.30817473  0.65063244  1.0
  C  C98  1  0.25603489  0.37005218  0.55183085  1.0
  C  C99  1  0.23475404  0.09400734  0.57524822  1.0
  C  C100  1  0.70593971  0.19813991  0.58951386  1.0
  C  C101  1  0.74529712  0.26789457  0.56390692  1.0
  C  C102  1  0.69528082  0.33054332  0.59979104  1.0
  C  C103  1  0.60384414  0.32342926  0.65994319  1.0
  C  C104  1  0.56403626  0.25433463  0.68616838  1.0
  C  C105  1  0.61688568  0.19183620  0.65062846  1.0
  C  C106  1  0.75600465  0.12993371  0.55184509  1.0
  C  C107  1  0.73487070  0.40598162  0.57523773  1.0
  C  C108  1  0.70606369  0.30183853  0.91041677  1.0
  C  C109  1  0.74532991  0.23209953  0.93607601  1.0
  C  C110  1  0.69532363  0.16944942  0.90019539  1.0
  C  C111  1  0.60384976  0.17654161  0.84004155  1.0
  C  C112  1  0.56401456  0.24563161  0.81378439  1.0
  C  C113  1  0.61697922  0.30813842  0.84930650  1.0
  C  C114  1  0.75611861  0.37008520  0.94802841  1.0
  C  C115  1  0.73514228  0.09398490  0.92463962  1.0
  C  C116  1  0.79392108  0.80194498  0.08961766  1.0
  C  C117  1  0.75456270  0.73221714  0.06396874  1.0
  C  C118  1  0.80456277  0.66956059  0.09984132  1.0
  C  C119  1  0.89601198  0.67661536  0.16000163  1.0
  C  C120  1  0.93595551  0.74569469  0.18624204  1.0
  C  C121  1  0.88304774  0.80822292  0.15071954  1.0
  C  C122  1  0.74403203  0.87016627  0.05194514  1.0
  C  C123  1  0.76477618  0.59413305  0.07531396  1.0
  C  C124  1  0.79405316  0.69815875  0.41051490  1.0
  C  C125  1  0.75471195  0.76790564  0.43612442  1.0
  C  C126  1  0.80471714  0.83055363  0.40024735  1.0
  C  C127  1  0.89614118  0.82345297  0.34009073  1.0
  C  C128  1  0.93597666  0.75435291  0.31386390  1.0
  C  C129  1  0.88309166  0.69184991  0.34940173  1.0
  C  C130  1  0.74398359  0.62993499  0.44816906  1.0
  C  C131  1  0.76513118  0.90599582  0.42479936  1.0
  C  C132  1  0.54112219  0.75002374  0.25005586  1.0
  C  C133  1  0.95889061  0.25007656  0.75000503  1.0
  C  C134  1  0.45883632  0.24998162  0.74996888  1.0
  C  C135  1  0.04114118  0.74999822  0.25006291  1.0
  O  O136  1  0.28420790  0.93263292  0.42399876  1.0
  O  O137  1  0.16379240  0.86040709  0.50403185  1.0
  O  O138  1  0.17253389  0.58697169  0.47780375  1.0
  O  O139  1  0.33002279  0.54049951  0.39088727  1.0
  O  O140  1  0.07700606  0.44001954  0.42654119  1.0
  O  O141  1  0.90608909  0.94323205  0.58010621  1.0
  O  O142  1  0.28365672  0.56728911  0.07637059  1.0
  O  O143  1  0.16390393  0.63943683  0.99614044  1.0
  O  O144  1  0.17261127  0.91289587  0.02210147  1.0
  O  O145  1  0.32990608  0.95941253  0.10904939  1.0
  O  O146  1  0.07651525  0.05961606  0.07311107  1.0
  O  O147  1  0.90702091  0.55653620  0.92015347  1.0
  O  O148  1  0.21652850  0.06739872  0.92371816  1.0
  O  O149  1  0.33590770  0.13955416  0.00402719  1.0
  O  O150  1  0.32783704  0.41300006  0.97774861  1.0
  O  O151  1  0.17080354  0.45950775  0.89072445  1.0
  O  O152  1  0.42381464  0.56016452  0.92635147  1.0
  O  O153  1  0.59357981  0.05671310  0.07997109  1.0
  O  O154  1  0.21579774  0.43264165  0.57599743  1.0
  O  O155  1  0.33623374  0.36038858  0.49598628  1.0
  O  O156  1  0.32739657  0.08699232  0.52222552  1.0
  O  O157  1  0.16988887  0.04051453  0.60913977  1.0
  O  O158  1  0.42298949  0.94002623  0.57348975  1.0
  O  O159  1  0.59392088  0.44323551  0.41991983  1.0
  O  O160  1  0.71574395  0.06734820  0.57601356  1.0
  O  O161  1  0.83618610  0.13958174  0.49599836  1.0
  O  O162  1  0.82751391  0.41299565  0.52221603  1.0
  O  O163  1  0.66999169  0.45947445  0.60912505  1.0
  O  O164  1  0.92303108  0.55995827  0.57346915  1.0
  O  O165  1  0.09386009  0.05674466  0.41992548  1.0
  O  O166  1  0.71639242  0.43263140  0.92367551  1.0
  O  O167  1  0.83574943  0.36048644  0.00399355  1.0
  O  O168  1  0.82782431  0.08697726  0.97767398  1.0
  O  O169  1  0.67071872  0.04052286  0.89064412  1.0
  O  O170  1  0.92345931  0.93952598  0.92601085  1.0
  O  O171  1  0.09286430  0.44345704  0.07982807  1.0
  O  O172  1  0.78453470  0.93274491  0.07610050  1.0
  O  O173  1  0.66388423  0.86054817  0.99610531  1.0
  O  O174  1  0.67210146  0.58715296  0.02228804  1.0
  O  O175  1  0.82931619  0.54061056  0.10923821  1.0
  O  O176  1  0.57611719  0.43999126  0.07365042  1.0
  O  O177  1  0.40692504  0.94349610  0.92008146  1.0
  O  O178  1  0.78424872  0.56735159  0.42399006  1.0
  O  O179  1  0.66379673  0.63958317  0.50401611  1.0
  O  O180  1  0.67248732  0.91300809  0.47781809  1.0
  O  O181  1  0.83000301  0.95949139  0.39090930  1.0
  O  O182  1  0.57694503  0.05997527  0.42656578  1.0
  O  O183  1  0.40611759  0.55675112  0.58009497  1.0
