# generated using pymatgen
data_Zn4H6C24S6O13
_symmetry_space_group_name_H-M   'P 1'
_cell_length_a   20.81219659
_cell_length_b   20.82625599
_cell_length_c   20.82455859
_cell_angle_alpha   60.04135102
_cell_angle_beta   60.01866298
_cell_angle_gamma   60.01727648
_symmetry_Int_Tables_number   1
_chemical_formula_structural   Zn4H6C24S6O13
_chemical_formula_sum   'Zn8 H12 C48 S12 O26'
_cell_volume   6386.21368799
_cell_formula_units_Z   2
loop_
 _symmetry_equiv_pos_site_id
 _symmetry_equiv_pos_as_xyz
  1  'x, y, z'
loop_
 _atom_site_type_symbol
 _atom_site_label
 _atom_site_symmetry_multiplicity
 _atom_site_fract_x
 _atom_site_fract_y
 _atom_site_fract_z
 _atom_site_occupancy
  Zn  Zn0  1  0.21178666  0.36557546  0.21085316  1.0
  Zn  Zn1  1  0.21200004  0.21109149  0.21110061  1.0
  Zn  Zn2  1  0.21077539  0.21185850  0.36558856  1.0
  Zn  Zn3  1  0.36581385  0.21109992  0.21207164  1.0
  Zn  Zn4  1  0.78821226  0.63442667  0.78914518  1.0
  Zn  Zn5  1  0.78800247  0.78890801  0.78890087  1.0
  Zn  Zn6  1  0.78922427  0.78814114  0.63441210  1.0
  Zn  Zn7  1  0.63418712  0.78889937  0.78792866  1.0
  H  H8  1  0.54196175  0.06074384  0.06091869  1.0
  H  H9  1  0.06086272  0.54186124  0.33645365  1.0
  H  H10  1  0.33633258  0.06073741  0.54218827  1.0
  H  H11  1  0.06100401  0.33650123  0.06086874  1.0
  H  H12  1  0.54163413  0.33650300  0.06103547  1.0
  H  H13  1  0.06104192  0.06083457  0.33649238  1.0
  H  H14  1  0.45803733  0.93925617  0.93908041  1.0
  H  H15  1  0.93913639  0.45813868  0.66354728  1.0
  H  H16  1  0.66366764  0.93926196  0.45781211  1.0
  H  H17  1  0.93899527  0.66349803  0.93913152  1.0
  H  H18  1  0.45836589  0.66349617  0.93896471  1.0
  H  H19  1  0.93895775  0.93916603  0.66350731  1.0
  C  C20  1  0.50508602  0.04842910  0.04852960  1.0
  C  C21  1  0.04853329  0.50497274  0.39797500  1.0
  C  C22  1  0.39787318  0.04844641  0.50521668  1.0
  C  C23  1  0.04859819  0.39806377  0.04849419  1.0
  C  C24  1  0.50485009  0.39806454  0.04859315  1.0
  C  C25  1  0.04861057  0.04848359  0.39805810  1.0
  C  C26  1  0.12706210  0.37443702  0.37103127  1.0
  C  C27  1  0.07731177  0.42364580  0.42163486  1.0
  C  C28  1  0.37457841  0.12695706  0.12734931  1.0
  C  C29  1  0.42371430  0.07724616  0.07733387  1.0
  C  C30  1  0.37084443  0.12722038  0.37473189  1.0
  C  C31  1  0.42145239  0.07731077  0.42390098  1.0
  C  C32  1  0.12762408  0.37132101  0.12679532  1.0
  C  C33  1  0.07744349  0.42187739  0.07721635  1.0
  C  C34  1  0.37426184  0.37132699  0.12721100  1.0
  C  C35  1  0.42346547  0.42188179  0.07730927  1.0
  C  C36  1  0.12719531  0.12721453  0.37132181  1.0
  C  C37  1  0.07733049  0.07732076  0.42188177  1.0
  C  C38  1  0.99728066  0.46895988  0.53643852  1.0
  C  C39  1  0.53110304  0.00266012  0.00269814  1.0
  C  C40  1  0.53643068  0.99733850  0.46889055  1.0
  C  C41  1  0.99728356  0.53646990  0.99728430  1.0
  C  C42  1  0.46896098  0.53647141  0.99724845  1.0
  C  C43  1  0.99724822  0.99731361  0.53647475  1.0
  C  C44  1  0.49491382  0.95156987  0.95147038  1.0
  C  C45  1  0.95146637  0.49502738  0.60202517  1.0
  C  C46  1  0.60212668  0.95155391  0.49478369  1.0
  C  C47  1  0.95140203  0.60193511  0.95150667  1.0
  C  C48  1  0.49514994  0.60193511  0.95140656  1.0
  C  C49  1  0.95138946  0.95151606  0.60194160  1.0
  C  C50  1  0.87293721  0.62556549  0.62896745  1.0
  C  C51  1  0.92268845  0.57635500  0.57836408  1.0
  C  C52  1  0.62542217  0.87304231  0.87265011  1.0
  C  C53  1  0.57628609  0.92275350  0.92266488  1.0
  C  C54  1  0.62915524  0.87277878  0.62526925  1.0
  C  C55  1  0.57854764  0.92268792  0.57609968  1.0
  C  C56  1  0.87237716  0.62868404  0.87320307  1.0
  C  C57  1  0.92255729  0.57812074  0.92278471  1.0
  C  C58  1  0.62573747  0.62867265  0.87279061  1.0
  C  C59  1  0.57653381  0.57811746  0.92269099  1.0
  C  C60  1  0.87280472  0.87278464  0.62867837  1.0
  C  C61  1  0.92266843  0.92267944  0.57811849  1.0
  C  C62  1  0.00271957  0.53103997  0.46356138  1.0
  C  C63  1  0.46889640  0.99733942  0.99730049  1.0
  C  C64  1  0.46356993  0.00266174  0.53110973  1.0
  C  C65  1  0.00271480  0.46352866  0.00271815  1.0
  C  C66  1  0.53103830  0.46352784  0.00275181  1.0
  C  C67  1  0.00275089  0.00268727  0.46352523  1.0
  S  S68  1  0.04898155  0.37864426  0.52322885  1.0
  S  S69  1  0.37855097  0.04908724  0.04902744  1.0
  S  S70  1  0.52309111  0.04910864  0.37867384  1.0
  S  S71  1  0.04905992  0.52347667  0.04894341  1.0
  S  S72  1  0.37851488  0.52348377  0.04888252  1.0
  S  S73  1  0.04889190  0.04909717  0.52348988  1.0
  S  S74  1  0.95101848  0.62135587  0.47677037  1.0
  S  S75  1  0.62144887  0.95091221  0.95097207  1.0
  S  S76  1  0.47690856  0.95089149  0.62132633  1.0
  S  S77  1  0.95094046  0.47652059  0.95105773  1.0
  S  S78  1  0.62148365  0.47651556  0.95111783  1.0
  S  S79  1  0.95110721  0.95090371  0.47651009  1.0
  O  O80  1  0.25010551  0.24989187  0.24989526  1.0
  O  O81  1  0.14661369  0.40994847  0.29680502  1.0
  O  O82  1  0.30009506  0.14661310  0.14660274  1.0
  O  O83  1  0.14620832  0.29999641  0.40650198  1.0
  O  O84  1  0.41022140  0.14590809  0.14701015  1.0
  O  O85  1  0.29655342  0.14663505  0.41021196  1.0
  O  O86  1  0.14701743  0.29711943  0.14591709  1.0
  O  O87  1  0.40647706  0.14662824  0.30030886  1.0
  O  O88  1  0.14730292  0.40673472  0.14619814  1.0
  O  O89  1  0.40994948  0.29712662  0.14703183  1.0
  O  O90  1  0.14699831  0.14592504  0.29712084  1.0
  O  O91  1  0.29976616  0.40673935  0.14621409  1.0
  O  O92  1  0.14617629  0.14731902  0.40673354  1.0
  O  O93  1  0.74989514  0.75011019  0.75010493  1.0
  O  O94  1  0.85338742  0.59005311  0.70318990  1.0
  O  O95  1  0.69990738  0.85338612  0.85339557  1.0
  O  O96  1  0.85379028  0.70000849  0.59349626  1.0
  O  O97  1  0.58977830  0.85409385  0.85298993  1.0
  O  O98  1  0.70344683  0.85336518  0.58978928  1.0
  O  O99  1  0.85298149  0.70288462  0.85407933  1.0
  O  O100  1  0.59352127  0.85337042  0.69969177  1.0
  O  O101  1  0.85270168  0.59326426  0.85380473  1.0
  O  O102  1  0.59005153  0.70287305  0.85296981  1.0
  O  O103  1  0.85300338  0.85407137  0.70288043  1.0
  O  O104  1  0.70023256  0.59325970  0.85378693  1.0
  O  O105  1  0.85382393  0.85268178  0.59326540  1.0
