# generated using pymatgen
data_AlH27C45(SO5)3
_symmetry_space_group_name_H-M   'P 1'
_cell_length_a   4.17959111
_cell_length_b   23.45293806
_cell_length_c   23.52394494
_cell_angle_alpha   119.87704005
_cell_angle_beta   90.02959166
_cell_angle_gamma   91.69411179
_symmetry_Int_Tables_number   1
_chemical_formula_structural   AlH27C45(SO5)3
_chemical_formula_sum   'Al1 H27 C45 S3 O15'
_cell_volume   1998.25800668
_cell_formula_units_Z   1
loop_
 _symmetry_equiv_pos_site_id
 _symmetry_equiv_pos_as_xyz
  1  'x, y, z'
loop_
 _atom_site_type_symbol
 _atom_site_label
 _atom_site_symmetry_multiplicity
 _atom_site_fract_x
 _atom_site_fract_y
 _atom_site_fract_z
 _atom_site_occupancy
  Al  Al0  1  0.90700061  0.99866325  0.49984287  1.0
  H  H1  1  0.40866644  0.98987432  0.31900529  1.0
  H  H2  1  0.44867010  0.04052646  0.25024175  1.0
  H  H3  1  0.20845501  0.17849629  0.15427182  1.0
  H  H4  1  0.44028509  0.00558653  0.68885854  1.0
  H  H5  1  0.42426988  0.07432824  0.80903763  1.0
  H  H6  1  0.74095648  0.13287854  0.88595998  1.0
  H  H7  1  0.78066129  0.18388903  0.00489555  1.0
  H  H8  1  0.52459773  0.21059989  0.10019519  1.0
  H  H9  1  0.42739221  0.17973993  0.67154857  1.0
  H  H10  1  0.47236803  0.24852063  0.79057818  1.0
  H  H11  1  0.22208514  0.34292175  0.02312395  1.0
  H  H12  1  0.34631755  0.80944060  0.31846111  1.0
  H  H13  1  0.33060617  0.68837507  0.26652886  1.0
  H  H14  1  0.69525212  0.61696900  0.24748563  1.0
  H  H15  1  0.75001192  0.49808565  0.17923130  1.0
  H  H16  1  0.49600466  0.39864759  0.11008251  1.0
  H  H17  1  0.44233166  0.82549561  0.50817524  1.0
  H  H18  1  0.47141759  0.70571651  0.45627653  1.0
  H  H19  1  0.18585660  0.46962380  0.31639345  1.0
  H  H20  1  0.45525489  0.18125029  0.49228013  1.0
  H  H21  1  0.43704424  0.23281347  0.42330095  1.0
  H  H22  1  0.75350901  0.25221481  0.36621446  1.0
  H  H23  1  0.79692351  0.32084683  0.31534408  1.0
  H  H24  1  0.50333441  0.38817020  0.28743917  1.0
  H  H25  1  0.54804083  0.56658821  0.43845060  1.0
  H  H26  1  0.56588429  0.05613320  0.13075248  1.0
  H  H27  1  0.61126600  0.36777678  0.92507489  1.0
  C  C28  1  0.41726102  0.04892346  0.45024009  1.0
  C  C29  1  0.39230623  0.89867884  0.44990270  1.0
  C  C30  1  0.41761835  0.04809014  0.59930639  1.0
  C  C31  1  0.41966789  0.04330508  0.34176289  1.0
  C  C32  1  0.43392027  0.07225128  0.30272698  1.0
  C  C33  1  0.31098981  0.15528722  0.22941550  1.0
  C  C34  1  0.33406951  0.19493637  0.20065721  1.0
  C  C35  1  0.43939713  0.05900829  0.71157023  1.0
  C  C36  1  0.43592814  0.09830321  0.77949093  1.0
  C  C37  1  0.61900201  0.17862003  0.91587250  1.0
  C  C38  1  0.64224050  0.20758933  0.98360239  1.0
  C  C39  1  0.42940356  0.08202794  0.41008183  1.0
  C  C40  1  0.43818655  0.14094878  0.33056038  1.0
  C  C41  1  0.45322073  0.17511360  0.29176958  1.0
  C  C42  1  0.50310883  0.25533048  0.23033765  1.0
  C  C43  1  0.51561064  0.29501728  0.19752438  1.0
  C  C44  1  0.51997848  0.26413322  0.12885549  1.0
  C  C45  1  0.43180221  0.15675336  0.70196169  1.0
  C  C46  1  0.44857184  0.19577710  0.76973302  1.0
  C  C47  1  0.32461423  0.26853051  0.92541613  1.0
  C  C48  1  0.34247506  0.29702909  0.99356618  1.0
  C  C49  1  0.36768011  0.78636897  0.34860745  1.0
  C  C50  1  0.36303060  0.71814468  0.31959861  1.0
  C  C51  1  0.57728056  0.58455760  0.26237629  1.0
  C  C52  1  0.60796131  0.51708841  0.22352395  1.0
  C  C53  1  0.43103235  0.08821924  0.67228103  1.0
  C  C54  1  0.44340616  0.16766369  0.81032257  1.0
  C  C55  1  0.45797840  0.20648625  0.88304108  1.0
  C  C56  1  0.50061677  0.26789807  0.02439005  1.0
  C  C57  1  0.51236968  0.30076374  0.09665672  1.0
  C  C58  1  0.50339587  0.36955988  0.13450865  1.0
  C  C59  1  0.42031363  0.79523704  0.45501525  1.0
  C  C60  1  0.42998333  0.72721330  0.42559907  1.0
  C  C61  1  0.28019842  0.56955083  0.34085378  1.0
  C  C62  1  0.30450045  0.50153582  0.30106116  1.0
  C  C63  1  0.44632348  0.15058307  0.43903856  1.0
  C  C64  1  0.44124781  0.17932734  0.39965360  1.0
  C  C65  1  0.62584928  0.23620230  0.32004905  1.0
  C  C66  1  0.65162992  0.27526737  0.29117882  1.0
  C  C67  1  0.39281815  0.82534793  0.41685346  1.0
  C  C68  1  0.39681536  0.68705704  0.35731079  1.0
  C  C69  1  0.41322607  0.61430544  0.32246297  1.0
  C  C70  1  0.47061356  0.47370490  0.24224083  1.0
  C  C71  1  0.49765555  0.40162429  0.20306515  1.0
  C  C72  1  0.50737419  0.36374447  0.23404809  1.0
  S  S73  1  0.08284900  0.59124079  0.41592086  1.0
  S  S74  1  0.09929426  0.07910586  0.17746349  1.0
  S  S75  1  0.13327551  0.32073985  0.90145252  1.0
  O  O76  1  0.64131826  0.00801051  0.57095243  1.0
  O  O77  1  0.64995437  0.06048020  0.49016212  1.0
  O  O78  1  0.62644254  0.92756525  0.43851820  1.0
  O  O79  1  0.18256265  0.05825282  0.57122814  1.0
  O  O80  1  0.15860409  0.92627620  0.48760021  1.0
  O  O81  1  0.17407568  0.01067275  0.44016928  1.0
  O  O82  1  0.35350488  0.59362992  0.46278612  1.0
  O  O83  1  0.94373738  0.65453787  0.44512348  1.0
  O  O84  1  0.86192946  0.53580198  0.40311877  1.0
  O  O85  1  0.36175730  0.03192828  0.13375201  1.0
  O  O86  1  0.94539920  0.05086403  0.21246316  1.0
  O  O87  1  0.88766347  0.09057858  0.13422158  1.0
  O  O88  1  0.41134417  0.36442498  0.89770239  1.0
  O  O89  1  0.97703795  0.28572613  0.83850694  1.0
  O  O90  1  0.92838027  0.36428421  0.95611265  1.0
