# generated using pymatgen
data_InH6C8O5
_symmetry_space_group_name_H-M   'P 1'
_cell_length_a   12.42250261
_cell_length_b   12.66936935
_cell_length_c   12.66924278
_cell_angle_alpha   76.09426124
_cell_angle_beta   60.64327145
_cell_angle_gamma   60.64180633
_symmetry_Int_Tables_number   1
_chemical_formula_structural   InH6C8O5
_chemical_formula_sum   'In4 H24 C32 O20'
_cell_volume   1514.70238884
_cell_formula_units_Z   4
loop_
 _symmetry_equiv_pos_site_id
 _symmetry_equiv_pos_as_xyz
  1  'x, y, z'
loop_
 _atom_site_type_symbol
 _atom_site_label
 _atom_site_symmetry_multiplicity
 _atom_site_fract_x
 _atom_site_fract_y
 _atom_site_fract_z
 _atom_site_occupancy
  In  In0  1  0.18641257  0.99999662  0.62718221  1.0
  In  In1  1  0.93640994  0.12717999  0.49999786  1.0
  In  In2  1  0.81359834  0.99998869  0.37281362  1.0
  In  In3  1  0.56359920  0.87281220  0.49999132  1.0
  H  H4  1  0.19166399  0.93334061  0.43333717  1.0
  H  H5  1  0.87492770  0.93338025  0.56670064  1.0
  H  H6  1  0.55833796  0.06666231  0.56666276  1.0
  H  H7  1  0.37499103  0.06669692  0.43337877  1.0
  H  H8  1  0.87454881  0.00001593  0.99999356  1.0
  H  H9  1  0.62455965  0.49999540  0.49999418  1.0
  H  H10  1  0.87544467  0.49999116  0.50001220  1.0
  H  H11  1  0.12545166  0.99999090  0.00000083  1.0
  H  H12  1  0.63892541  0.06029016  0.81359580  1.0
  H  H13  1  0.44922030  0.31359264  0.43971369  1.0
  H  H14  1  0.51281889  0.93972181  0.18641014  1.0
  H  H15  1  0.20252991  0.68641233  0.56028389  1.0
  H  H16  1  0.23718576  0.31359599  0.56029101  1.0
  H  H17  1  0.30077388  0.06028317  0.18641382  1.0
  H  H18  1  0.11105105  0.68640492  0.43971880  1.0
  H  H19  1  0.54746960  0.93971853  0.81359530  1.0
  H  H20  1  0.31892586  0.78367287  0.27027958  1.0
  H  H21  1  0.85260493  0.77026405  0.71633725  1.0
  H  H22  1  0.37287486  0.21633655  0.72971432  1.0
  H  H23  1  0.33920378  0.22971838  0.28366005  1.0
  H  H24  1  0.37712392  0.77027967  0.28367207  1.0
  H  H25  1  0.89741525  0.78366349  0.72971664  1.0
  H  H26  1  0.43107704  0.22971664  0.71633482  1.0
  H  H27  1  0.41079166  0.21633943  0.27026196  1.0
  C  C28  1  0.87446606  0.05213137  0.77939944  1.0
  C  C29  1  0.67659380  0.27939645  0.44788251  1.0
  C  C30  1  0.70600568  0.94788308  0.22059468  1.0
  C  C31  1  0.40388483  0.72059965  0.55211182  1.0
  C  C32  1  0.04400355  0.27939828  0.55212863  1.0
  C  C33  1  0.07340516  0.05211417  0.22060354  1.0
  C  C34  1  0.87551022  0.72059107  0.44788756  1.0
  C  C35  1  0.34612829  0.94787716  0.77939838  1.0
  C  C36  1  0.76866660  0.02859635  0.89458259  1.0
  C  C37  1  0.54725891  0.39458273  0.47141072  1.0
  C  C38  1  0.69184582  0.97142122  0.10541571  1.0
  C  C39  1  0.41325604  0.60541990  0.52858416  1.0
  C  C40  1  0.05815712  0.39458143  0.52859278  1.0
  C  C41  1  0.20274192  0.02858314  0.10541955  1.0
  C  C42  1  0.98132279  0.60541550  0.47141561  1.0
  C  C43  1  0.33674626  0.97141201  0.89458272  1.0
  C  C44  1  0.78695816  0.00000577  0.99999808  1.0
  C  C45  1  0.53696143  0.50000018  0.49999689  1.0
  C  C46  1  0.96303884  0.49999684  0.50000406  1.0
  C  C47  1  0.21304444  0.99999712  0.99999994  1.0
  C  C48  1  0.65380592  0.03197273  0.89568541  1.0
  C  C49  1  0.43577893  0.39568399  0.46803122  1.0
  C  C50  1  0.58146314  0.96804192  0.10431687  1.0
  C  C51  1  0.29949655  0.60431669  0.53196632  1.0
  C  C52  1  0.16853413  0.39568432  0.53197461  1.0
  C  C53  1  0.31422054  0.03196680  0.10431957  1.0
  C  C54  1  0.09618141  0.60431368  0.46803794  1.0
  C  C55  1  0.45050389  0.96803523  0.89568505  1.0
  C  C56  1  0.55962329  0.00000451  0.00000031  1.0
  C  C57  1  0.30962430  0.49999942  0.50000043  1.0
  C  C58  1  0.19037075  0.49999942  0.50000281  1.0
  C  C59  1  0.44037053  0.00000372  0.00000269  1.0
  O  O60  1  0.12954274  0.99546070  0.49545933  1.0
  O  O61  1  0.87506710  0.99541967  0.50450283  1.0
  O  O62  1  0.62045920  0.00454222  0.50454061  1.0
  O  O63  1  0.37500891  0.00450791  0.49542806  1.0
  O  O64  1  0.99558606  0.00316845  0.77207498  1.0
  O  O65  1  0.74874096  0.27207230  0.49685316  1.0
  O  O66  1  0.77082135  0.99686688  0.22792017  1.0
  O  O67  1  0.51767558  0.72792175  0.50313630  1.0
  O  O68  1  0.97917312  0.27207449  0.50316587  1.0
  O  O69  1  0.00126474  0.00313634  0.22792353  1.0
  O  O70  1  0.75439430  0.72792008  0.49686469  1.0
  O  O71  1  0.23232716  0.99685709  0.77207645  1.0
  O  O72  1  0.83571937  0.11605458  0.69931452  1.0
  O  O73  1  0.70179886  0.19931587  0.38393384  1.0
  O  O74  1  0.65113775  0.88393520  0.30066503  1.0
  O  O75  1  0.28505531  0.80067805  0.61606495  1.0
  O  O76  1  0.09891023  0.19931464  0.61605451  1.0
  O  O77  1  0.04820359  0.11606372  0.30067989  1.0
  O  O78  1  0.91426109  0.80066289  0.38392644  1.0
  O  O79  1  0.46494933  0.88394079  0.69931848  1.0
