# generated using pymatgen
data_AlH11C16N4O7
_symmetry_space_group_name_H-M   'P 1'
_cell_length_a   6.77516749
_cell_length_b   19.85707630
_cell_length_c   23.90477732
_cell_angle_alpha   90.00004443
_cell_angle_beta   90.00114581
_cell_angle_gamma   89.99686739
_symmetry_Int_Tables_number   1
_chemical_formula_structural   AlH11C16N4O7
_chemical_formula_sum   'Al4 H44 C64 N16 O28'
_cell_volume   3216.02963666
_cell_formula_units_Z   4
loop_
 _symmetry_equiv_pos_site_id
 _symmetry_equiv_pos_as_xyz
  1  'x, y, z'
loop_
 _atom_site_type_symbol
 _atom_site_label
 _atom_site_symmetry_multiplicity
 _atom_site_fract_x
 _atom_site_fract_y
 _atom_site_fract_z
 _atom_site_occupancy
  Al  Al0  1  0.86148286  0.75041787  0.75040856  1.0
  Al  Al1  1  0.13851018  0.24958813  0.25040896  1.0
  Al  Al2  1  0.36148616  0.74957575  0.74959165  1.0
  Al  Al3  1  0.63850972  0.25042518  0.24958854  1.0
  H  H4  1  0.27544439  0.59965704  0.42510470  1.0
  H  H5  1  0.28064844  0.63023550  0.49026204  1.0
  H  H6  1  0.79460621  0.38730579  0.59033807  1.0
  H  H7  1  0.66684110  0.37826710  0.53062503  1.0
  H  H8  1  0.72453703  0.40035011  0.92510198  1.0
  H  H9  1  0.71934536  0.36976237  0.99025458  1.0
  H  H10  1  0.20541238  0.61268397  0.09033759  1.0
  H  H11  1  0.33317476  0.62172960  0.03062680  1.0
  H  H12  1  0.77540341  0.90032813  0.07490672  1.0
  H  H13  1  0.78069800  0.86976638  0.00974562  1.0
  H  H14  1  0.29457130  0.11269187  0.90966201  1.0
  H  H15  1  0.16677963  0.12172845  0.96937049  1.0
  H  H16  1  0.22471775  0.09970791  0.57491319  1.0
  H  H17  1  0.21928385  0.13023916  0.50974176  1.0
  H  H18  1  0.70544035  0.88730516  0.40966883  1.0
  H  H19  1  0.83320672  0.87827975  0.46938000  1.0
  H  H20  1  0.80299759  0.60583852  0.41274301  1.0
  H  H21  1  0.79187990  0.53124382  0.38119160  1.0
  H  H22  1  0.37069687  0.44543392  0.57815998  1.0
  H  H23  1  0.18600241  0.44723626  0.62300792  1.0
  H  H24  1  0.19701894  0.39415459  0.91274560  1.0
  H  H25  1  0.20811140  0.46874766  0.88118954  1.0
  H  H26  1  0.62928307  0.55460576  0.07811595  1.0
  H  H27  1  0.81387183  0.55270681  0.12300279  1.0
  H  H28  1  0.30301638  0.89416413  0.08726129  1.0
  H  H29  1  0.29192059  0.96875768  0.11881479  1.0
  H  H30  1  0.87064072  0.05454720  0.92182670  1.0
  H  H31  1  0.68590520  0.05275981  0.87698885  1.0
  H  H32  1  0.69700030  0.10583911  0.58725660  1.0
  H  H33  1  0.70807555  0.03124567  0.61881350  1.0
  H  H34  1  0.12939041  0.94552529  0.42175327  1.0
  H  H35  1  0.31432459  0.94714389  0.37698184  1.0
  H  H36  1  0.32864006  0.41939860  0.41303639  1.0
  H  H37  1  0.52841793  0.57170984  0.52990915  1.0
  H  H38  1  0.67136471  0.58061517  0.91304290  1.0
  H  H39  1  0.47159783  0.42828583  0.02991536  1.0
  H  H40  1  0.82864203  0.08058675  0.08696357  1.0
  H  H41  1  0.02842438  0.92828565  0.97010748  1.0
  H  H42  1  0.17131852  0.91946634  0.58697452  1.0
  H  H43  1  0.97156650  0.07170345  0.47011552  1.0
  H  H44  1  0.61326604  0.66701610  0.72742503  1.0
  H  H45  1  0.38673991  0.33298858  0.22741800  1.0
  H  H46  1  0.11323701  0.83297880  0.77257525  1.0
  H  H47  1  0.88676514  0.16702244  0.27257526  1.0
  C  C48  1  0.61205251  0.83015000  0.67430448  1.0
  C  C49  1  0.38922231  0.17304123  0.32742120  1.0
  C  C50  1  0.38794576  0.16984122  0.17431251  1.0
  C  C51  1  0.61075973  0.82696900  0.82742119  1.0
  C  C52  1  0.11208899  0.66983694  0.82569413  1.0
  C  C53  1  0.88923169  0.32696758  0.17256996  1.0
  C  C54  1  0.88789724  0.33017323  0.32568284  1.0
  C  C55  1  0.11078551  0.67302055  0.67258077  1.0
  C  C56  1  0.88214408  0.52731517  0.46197633  1.0
  C  C57  1  0.10650819  0.46612493  0.54320359  1.0
  C  C58  1  0.11785891  0.47267817  0.96197545  1.0
  C  C59  1  0.89351392  0.53387172  0.04320221  1.0
  C  C60  1  0.38215380  0.97268331  0.03802712  1.0
  C  C61  1  0.60647198  0.03387031  0.95679655  1.0
  C  C62  1  0.61783214  0.02731668  0.53802552  1.0
  C  C63  1  0.39350222  0.96612939  0.45679453  1.0
  C  C64  1  0.09708098  0.54988526  0.48072138  1.0
  C  C65  1  0.89214998  0.44368022  0.52562566  1.0
  C  C66  1  0.90292620  0.45011176  0.98071746  1.0
  C  C67  1  0.10786516  0.55631580  0.02562357  1.0
  C  C68  1  0.59708339  0.95011184  0.01928256  1.0
  C  C69  1  0.39211939  0.05631836  0.97437566  1.0
  C  C70  1  0.40291312  0.04989857  0.51927548  1.0
  C  C71  1  0.60785144  0.94368247  0.47437493  1.0
  C  C72  1  0.10250730  0.62832413  0.62540536  1.0
  C  C73  1  0.89178560  0.37237553  0.37484700  1.0
  C  C74  1  0.89750161  0.37167089  0.12539561  1.0
  C  C75  1  0.10821512  0.62763235  0.87484798  1.0
  C  C76  1  0.60249076  0.87166959  0.87459869  1.0
  C  C77  1  0.39180629  0.12764063  0.12515169  1.0
  C  C78  1  0.39750992  0.12833576  0.37459387  1.0
  C  C79  1  0.60814502  0.87234985  0.62514520  1.0
  C  C80  1  0.81973446  0.52188791  0.52489813  1.0
  C  C81  1  0.16440696  0.47012415  0.48011321  1.0
  C  C82  1  0.18027024  0.47810708  0.02489658  1.0
  C  C83  1  0.83561489  0.52987285  0.98010746  1.0
  C  C84  1  0.31971781  0.97810897  0.97510837  1.0
  C  C85  1  0.66439469  0.02987153  0.01988931  1.0
  C  C86  1  0.68027084  0.02188886  0.47510803  1.0
  C  C87  1  0.33557091  0.97013638  0.51988188  1.0
  C  C88  1  0.03446604  0.54367441  0.54342650  1.0
  C  C89  1  0.94902645  0.45122229  0.46164253  1.0
  C  C90  1  0.96554429  0.45632325  0.04342356  1.0
  C  C91  1  0.05097206  0.54877305  0.96164075  1.0
  C  C92  1  0.53445272  0.95632212  0.95657840  1.0
  C  C93  1  0.44902312  0.04877933  0.03835949  1.0
  C  C94  1  0.46554358  0.04367909  0.45657469  1.0
  C  C95  1  0.55094220  0.95122269  0.53835955  1.0
  C  C96  1  0.07542095  0.59027207  0.58613750  1.0
  C  C97  1  0.91047765  0.40715307  0.41648429  1.0
  C  C98  1  0.92459113  0.40972207  0.08613649  1.0
  C  C99  1  0.08951875  0.59283917  0.91648734  1.0
  C  C100  1  0.57540722  0.90971824  0.91386488  1.0
  C  C101  1  0.41047862  0.09285257  0.08351690  1.0
  C  C102  1  0.42459323  0.09028297  0.41386219  1.0
  C  C103  1  0.58948290  0.90714701  0.58351462  1.0
  C  C104  1  0.34264681  0.44238607  0.45536448  1.0
  C  C105  1  0.63978892  0.54246899  0.55416989  1.0
  C  C106  1  0.65736407  0.55761710  0.95536567  1.0
  C  C107  1  0.36021559  0.45752855  0.05416835  1.0
  C  C108  1  0.84264344  0.05760422  0.04463422  1.0
  C  C109  1  0.13977409  0.95752434  0.94584168  1.0
  C  C110  1  0.15731689  0.94242068  0.54463460  1.0
  C  C111  1  0.86023394  0.04246339  0.44584541  1.0
  N  N112  1  0.19646714  0.60674539  0.46082971  1.0
  N  N113  1  0.80260130  0.38640781  0.54777128  1.0
  N  N114  1  0.80352387  0.39325698  0.96082587  1.0
  N  N115  1  0.19741704  0.61358497  0.04777203  1.0
  N  N116  1  0.69647017  0.89324797  0.03917169  1.0
  N  N117  1  0.30255072  0.11358972  0.95222881  1.0
  N  N118  1  0.30357497  0.10677170  0.53916292  1.0
  N  N119  1  0.69743167  0.88640730  0.45223481  1.0
  N  N120  1  0.76920410  0.55612314  0.41803165  1.0
  N  N121  1  0.22483608  0.43388867  0.58325368  1.0
  N  N122  1  0.23079843  0.44387166  0.91803058  1.0
  N  N123  1  0.77516377  0.56610184  0.08324908  1.0
  N  N124  1  0.26923073  0.94388215  0.08197475  1.0
  N  N125  1  0.72477735  0.06610336  0.91674099  1.0
  N  N126  1  0.73076452  0.05611889  0.58197204  1.0
  N  N127  1  0.27523090  0.93388636  0.41673598  1.0
  O  O128  1  0.44379697  0.80930843  0.80768938  1.0
  O  O129  1  0.55690529  0.18648040  0.19326666  1.0
  O  O130  1  0.55617336  0.19068448  0.30767638  1.0
  O  O131  1  0.44310310  0.81352962  0.69327371  1.0
  O  O132  1  0.94380709  0.69068429  0.69231081  1.0
  O  O133  1  0.05683452  0.31357152  0.30669573  1.0
  O  O134  1  0.05620263  0.30928642  0.19228601  1.0
  O  O135  1  0.94315191  0.68646215  0.80671895  1.0
  O  O136  1  0.78077766  0.81465254  0.69394004  1.0
  O  O137  1  0.21978910  0.19029730  0.30926524  1.0
  O  O138  1  0.21922640  0.18532376  0.19396366  1.0
  O  O139  1  0.78018442  0.80973495  0.80924843  1.0
  O  O140  1  0.28082708  0.68533882  0.80606062  1.0
  O  O141  1  0.71982162  0.30975044  0.19075776  1.0
  O  O142  1  0.71915188  0.31466008  0.30606395  1.0
  O  O143  1  0.28019231  0.69025193  0.69075641  1.0
  O  O144  1  0.61188604  0.70921910  0.74791794  1.0
  O  O145  1  0.38810516  0.29078177  0.24790644  1.0
  O  O146  1  0.11188350  0.79077137  0.75208904  1.0
  O  O147  1  0.88811716  0.20923217  0.25209016  1.0
  O  O148  1  0.50461532  0.44416340  0.47915048  1.0
  O  O149  1  0.60945252  0.52712085  0.60339705  1.0
  O  O150  1  0.49540048  0.55584263  0.97915301  1.0
  O  O151  1  0.39053549  0.47287038  0.10339933  1.0
  O  O152  1  0.00460308  0.05583369  0.02084414  1.0
  O  O153  1  0.10940202  0.97287032  0.89661536  1.0
  O  O154  1  0.99535085  0.94419188  0.52084507  1.0
  O  O155  1  0.89061218  0.02710761  0.39662153  1.0
