# generated using pymatgen
data_Al3H23C42Br4(ClO2)7
_symmetry_space_group_name_H-M   'P 1'
_cell_length_a   13.57273767
_cell_length_b   13.92252180
_cell_length_c   28.06989502
_cell_angle_alpha   89.58292503
_cell_angle_beta   88.79292430
_cell_angle_gamma   61.15434290
_symmetry_Int_Tables_number   1
_chemical_formula_structural   Al3H23C42Br4(ClO2)7
_chemical_formula_sum   'Al6 H46 C84 Br8 Cl14 O28'
_cell_volume   4645.07891307
_cell_formula_units_Z   2
loop_
 _symmetry_equiv_pos_site_id
 _symmetry_equiv_pos_as_xyz
  1  'x, y, z'
loop_
 _atom_site_type_symbol
 _atom_site_label
 _atom_site_symmetry_multiplicity
 _atom_site_fract_x
 _atom_site_fract_y
 _atom_site_fract_z
 _atom_site_occupancy
  Al  Al0  1  0.59029621  0.58516800  0.49709951  1.0
  Al  Al1  1  0.36015229  0.57279789  0.49926228  1.0
  Al  Al2  1  0.57708909  0.36096338  0.50044894  1.0
  Al  Al3  1  0.07484305  0.07797688  0.99737248  1.0
  Al  Al4  1  0.08119813  0.30590843  0.00070579  1.0
  Al  Al5  1  0.30144853  0.09754965  0.00083254  1.0
  H  H6  1  0.99687538  0.16803888  0.30229327  1.0
  H  H7  1  0.31970560  0.01807575  0.21722174  1.0
  H  H8  1  0.19059591  0.02548467  0.23482105  1.0
  H  H9  1  0.28291954  0.72790428  0.21324698  1.0
  H  H10  1  0.33474653  0.50541184  0.26115092  1.0
  H  H11  1  0.49534276  0.20689020  0.79262254  1.0
  H  H12  1  0.24494287  0.28017961  0.69356020  1.0
  H  H13  1  0.34757733  0.16541469  0.78116111  1.0
  H  H14  1  0.20662586  0.26871674  0.77302160  1.0
  H  H15  1  0.27109600  0.52266189  0.71772257  1.0
  H  H16  1  0.17914133  0.46808925  0.70894263  1.0
  H  H17  1  0.99257834  0.14757469  0.21959010  1.0
  H  H18  1  0.48066839  0.32802533  0.20156196  1.0
  H  H19  1  0.46153609  0.40485014  0.73629104  1.0
  H  H20  1  0.47360040  0.33616308  0.81311996  1.0
  H  H21  1  0.66613373  0.50389241  0.73267262  1.0
  H  H22  1  0.97965826  0.37634081  0.78186503  1.0
  H  H23  1  0.81750508  0.20189445  0.71328681  1.0
  H  H24  1  0.50385238  0.17851860  0.27549631  1.0
  H  H25  1  0.94712851  0.18998313  0.69307726  1.0
  H  H26  1  0.90207881  0.16169323  0.78893173  1.0
  H  H27  1  0.63782349  0.39578502  0.71761487  1.0
  H  H28  1  0.70219675  0.48574045  0.28713743  1.0
  H  H29  1  0.71093346  0.30050067  0.78926431  1.0
  H  H30  1  0.00486452  0.19850821  0.77068026  1.0
  H  H31  1  0.28103313  0.75136941  0.80811430  1.0
  H  H32  1  0.28240085  0.70375898  0.72840638  1.0
  H  H33  1  0.15219522  0.89456676  0.70941603  1.0
  H  H34  1  0.14714692  0.95165389  0.78791459  1.0
  H  H35  1  0.31488631  0.16688226  0.24073395  1.0
  H  H36  1  0.20370778  0.03674867  0.76890034  1.0
  H  H37  1  0.50849824  0.77743603  0.70320384  1.0
  H  H38  1  0.41965232  0.91545652  0.68717236  1.0
  H  H39  1  0.73829205  0.48631891  0.20559801  1.0
  H  H40  1  0.42948634  0.65304965  0.72490678  1.0
  H  H41  1  0.42840188  0.69964420  0.80457065  1.0
  H  H42  1  0.40405062  0.97192880  0.76543232  1.0
  H  H43  1  0.79230286  0.19478117  0.20439703  1.0
  H  H44  1  0.00210679  0.29182780  0.29585193  1.0
  H  H45  1  0.68767567  0.33459517  0.20784965  1.0
  H  H46  1  0.87930733  0.45361492  0.21550234  1.0
  H  H47  1  0.48525448  0.82902769  0.21417828  1.0
  H  H48  1  0.17048478  0.34315634  0.29982512  1.0
  H  H49  1  0.41302402  0.92631881  0.28683004  1.0
  H  H50  1  0.70302189  0.65923719  0.52240690  1.0
  H  H51  1  0.99670440  0.96874863  0.02423560  1.0
  C  C52  1  0.39247722  0.70413721  0.43276053  1.0
  C  C53  1  0.36194452  0.36186899  0.34653188  1.0
  C  C54  1  0.76560404  0.26548353  0.27547504  1.0
  C  C55  1  0.40482526  0.40004105  0.43388473  1.0
  C  C56  1  0.95890258  0.24718946  0.28410986  1.0
  C  C57  1  0.96997348  0.23182686  0.22974726  1.0
  C  C58  1  0.89444947  0.29453521  0.11219659  1.0
  C  C59  1  0.83371543  0.31722344  0.29905300  1.0
  C  C60  1  0.77032840  0.27394194  0.22083128  1.0
  C  C61  1  0.85687299  0.31156875  0.20584925  1.0
  C  C62  1  0.81516786  0.42952961  0.22419558  1.0
  C  C63  1  0.37819335  0.37574656  0.38790525  1.0
  C  C64  1  0.79146791  0.43455921  0.27808580  1.0
  C  C65  1  0.87273309  0.30471460  0.15459975  1.0
  C  C66  1  0.81413056  0.32477385  0.35006902  1.0
  C  C67  1  0.71836316  0.38383113  0.43503151  1.0
  C  C68  1  0.78193227  0.34423996  0.39123709  1.0
  C  C69  1  0.44561767  0.74365197  0.26976696  1.0
  C  C70  1  0.32677351  0.93990434  0.28513049  1.0
  C  C71  1  0.28191894  0.97282605  0.23487074  1.0
  C  C72  1  0.29180009  0.92157379  0.11407444  1.0
  C  C73  1  0.33424186  0.82669651  0.29839930  1.0
  C  C74  1  0.32101008  0.24144248  0.24550177  1.0
  C  C75  1  0.43767612  0.78415354  0.21716480  1.0
  C  C76  1  0.31245237  0.86703842  0.20570056  1.0
  C  C77  1  0.23914992  0.81506175  0.22304503  1.0
  C  C78  1  0.22668101  0.82270702  0.27806060  1.0
  C  C79  1  0.39051361  0.70075578  0.56593966  1.0
  C  C80  1  0.30147412  0.89371991  0.15550123  1.0
  C  C81  1  0.34622920  0.80018744  0.34842878  1.0
  C  C82  1  0.36066049  0.76473819  0.38871885  1.0
  C  C83  1  0.45933674  0.32703010  0.73648071  1.0
  C  C84  1  0.31999165  0.25685806  0.71466741  1.0
  C  C85  1  0.30836361  0.32324201  0.20334032  1.0
  C  C86  1  0.29485597  0.24875981  0.76786069  1.0
  C  C87  1  0.28813202  0.29735755  0.88984763  1.0
  C  C88  1  0.35655908  0.34539703  0.70649416  1.0
  C  C89  1  0.44501811  0.29584141  0.78772170  1.0
  C  C90  1  0.32001803  0.32731656  0.79817054  1.0
  C  C91  1  0.39960752  0.40192007  0.56613685  1.0
  C  C92  1  0.24174498  0.44665630  0.78107264  1.0
  C  C93  1  0.25631949  0.45385751  0.72665693  1.0
  C  C94  1  0.30245520  0.31292171  0.84827481  1.0
  C  C95  1  0.37125770  0.36037358  0.65607744  1.0
  C  C96  1  0.42493368  0.24802812  0.26427296  1.0
  C  C97  1  0.37851056  0.37715973  0.61395592  1.0
  C  C98  1  0.69935935  0.41474842  0.73364289  1.0
  C  C99  1  0.88001745  0.41608156  0.71787774  1.0
  C  C100  1  0.89014475  0.41254359  0.77393975  1.0
  C  C101  1  0.90335150  0.30269995  0.88692727  1.0
  C  C102  1  0.81125659  0.35769438  0.70368250  1.0
  C  C103  1  0.70438853  0.39808291  0.56676640  1.0
  C  C104  1  0.72234687  0.37290891  0.78485302  1.0
  C  C105  1  0.84755493  0.33562776  0.79581066  1.0
  C  C106  1  0.91481954  0.22350296  0.76937080  1.0
  C  C107  1  0.34461192  0.34661647  0.29824736  1.0
  C  C108  1  0.87572403  0.23484212  0.71768781  1.0
  C  C109  1  0.87277634  0.32039228  0.84599515  1.0
  C  C110  1  0.78481357  0.36886552  0.65365588  1.0
  C  C111  1  0.75555867  0.37520206  0.61270560  1.0
  C  C112  1  0.34924653  0.72485022  0.73502081  1.0
  C  C113  1  0.21687435  0.91875176  0.71518981  1.0
  C  C114  1  0.21638433  0.95277462  0.76738609  1.0
  C  C115  1  0.23997308  0.33918294  0.27804471  1.0
  C  C116  1  0.30691129  0.93055175  0.88309445  1.0
  C  C117  1  0.33308193  0.82117575  0.70182167  1.0
  C  C118  1  0.41252399  0.33078475  0.22394723  1.0
  C  C119  1  0.34871055  0.75562088  0.78770980  1.0
  C  C120  1  0.32953446  0.87414935  0.79157402  1.0
  C  C121  1  0.42172828  0.88646474  0.76342237  1.0
  C  C122  1  0.42765779  0.85003431  0.71145646  1.0
  C  C123  1  0.32142695  0.90502682  0.84125052  1.0
  C  C124  1  0.34098229  0.78717416  0.65256658  1.0
  C  C125  1  0.35801829  0.75291784  0.61190593  1.0
  C  C126  1  0.94809114  0.26758918  0.06581178  1.0
  C  C127  1  0.22836927  0.42176751  0.23777558  1.0
  C  C128  1  0.25108470  0.27111659  0.06729537  1.0
  C  C129  1  0.33196811  0.42905151  0.25637114  1.0
  C  C130  1  0.26737543  0.96813717  0.06699683  1.0
  C  C131  1  0.95569115  0.27243099  0.93262762  1.0
  C  C132  1  0.26122198  0.27111312  0.93624509  1.0
  C  C133  1  0.27568740  0.97370771  0.93066187  1.0
  C  C134  1  0.27513132  0.29701164  0.11342215  1.0
  C  C135  1  0.29094231  0.30938544  0.15504615  1.0
  Br  Br136  1  0.86303839  0.50904265  0.31099551  1.0
  Br  Br137  1  0.57858387  0.74263933  0.29848277  1.0
  Br  Br138  1  0.25284972  0.05901198  0.33179341  1.0
  Br  Br139  1  0.47722807  0.59157903  0.27557972  1.0
  Br  Br140  1  0.09622752  0.87279037  0.19065904  1.0
  Br  Br141  1  0.42743484  0.11284509  0.68746580  1.0
  Br  Br142  1  0.28274630  0.54695751  0.81491605  1.0
  Br  Br143  1  0.56961889  0.80493027  0.79352364  1.0
  Cl  Cl144  1  0.10331560  0.53425571  0.22085529  1.0
  Cl  Cl145  1  0.02087176  0.34125098  0.69227219  1.0
  Cl  Cl146  1  0.81824139  0.55015911  0.69380666  1.0
  Cl  Cl147  1  0.82656402  0.54272185  0.80242043  1.0
  Cl  Cl148  1  0.18022411  0.03320168  0.67560577  1.0
  Cl  Cl149  1  0.82446632  0.12435280  0.29307411  1.0
  Cl  Cl150  1  0.08277646  0.25240351  0.20624634  1.0
  Cl  Cl151  1  0.62183907  0.33183914  0.29712746  1.0
  Cl  Cl152  1  0.20941280  0.71125466  0.30030421  1.0
  Cl  Cl153  1  0.10348097  0.94207514  0.29883924  1.0
  Cl  Cl154  1  0.50143270  0.67787069  0.17409328  1.0
  Cl  Cl155  1  0.59302583  0.22940504  0.71138850  1.0
  Cl  Cl156  1  0.09831490  0.48962062  0.79627611  1.0
  Cl  Cl157  1  0.62022886  0.47146342  0.82527049  1.0
  O  O158  1  0.68474221  0.48261080  0.44588270  1.0
  O  O159  1  0.32458266  0.18051235  0.04833787  1.0
  O  O160  1  0.34034013  0.99196644  0.04816439  1.0
  O  O161  1  0.48848929  0.67904266  0.44801862  1.0
  O  O162  1  0.17938785  0.99370932  0.94567024  1.0
  O  O163  1  0.97967440  0.17870174  0.94826668  1.0
  O  O164  1  0.97750763  0.34319435  0.95243859  1.0
  O  O165  1  0.16592555  0.33851937  0.95475752  1.0
  O  O166  1  0.33254489  0.17964105  0.95414919  1.0
  O  O167  1  0.34699435  0.99174026  0.95335270  1.0
  O  O168  1  0.15332890  0.16132576  0.99992681  1.0
  O  O169  1  0.32986429  0.49503310  0.54917745  1.0
  O  O170  1  0.32140868  0.67728770  0.45106745  1.0
  O  O171  1  0.33215360  0.48948054  0.45410654  1.0
  O  O172  1  0.50091327  0.33301768  0.45067090  1.0
  O  O173  1  0.69661995  0.31512978  0.45792590  1.0
  O  O174  1  0.68831005  0.48582610  0.54671388  1.0
  O  O175  1  0.48836761  0.67453644  0.55069147  1.0
  O  O176  1  0.31762332  0.68198879  0.54489614  1.0
  O  O177  1  0.48984608  0.33053262  0.54530616  1.0
  O  O178  1  0.67550126  0.32873768  0.55109103  1.0
  O  O179  1  0.50828741  0.50546526  0.49918174  1.0
  O  O180  1  0.17578331  0.98538815  0.04926288  1.0
  O  O181  1  0.97635774  0.17332853  0.04968936  1.0
  O  O182  1  0.96771388  0.34087203  0.04618724  1.0
  O  O183  1  0.15643453  0.33773853  0.04917617  1.0
  O  O184  1  0.66177063  0.66116992  0.49443220  1.0
  O  O185  1  0.00553492  0.00011248  0.99468274  1.0
