# generated using pymatgen
data_Zn2H25C40N8F
_symmetry_space_group_name_H-M   'P 1'
_cell_length_a   14.73684891
_cell_length_b   15.00213555
_cell_length_c   16.88173828
_cell_angle_alpha   105.27604478
_cell_angle_beta   107.10174913
_cell_angle_gamma   111.21643374
_symmetry_Int_Tables_number   1
_chemical_formula_structural   Zn2H25C40N8F
_chemical_formula_sum   'Zn4 H50 C80 N16 F2'
_cell_volume   3025.37012382
_cell_formula_units_Z   2
loop_
 _symmetry_equiv_pos_site_id
 _symmetry_equiv_pos_as_xyz
  1  'x, y, z'
loop_
 _atom_site_type_symbol
 _atom_site_label
 _atom_site_symmetry_multiplicity
 _atom_site_fract_x
 _atom_site_fract_y
 _atom_site_fract_z
 _atom_site_occupancy
  Zn  Zn0  1  0.36893561  0.01036674  0.88842069  1.0
  Zn  Zn1  1  0.61677880  0.99556278  0.12797065  1.0
  Zn  Zn2  1  0.35550085  0.86006017  0.00014727  1.0
  Zn  Zn3  1  0.62881786  0.12246843  0.99990187  1.0
  H  H4  1  0.33175351  0.18744418  0.01315164  1.0
  H  H5  1  0.55588318  0.66742917  0.12878466  1.0
  H  H6  1  0.25279277  0.35129189  0.72639287  1.0
  H  H7  1  0.82899044  0.72508640  0.06623590  1.0
  H  H8  1  0.13052056  0.19983602  0.57579539  1.0
  H  H9  1  0.95058998  0.86438631  0.22393182  1.0
  H  H10  1  0.41824283  0.53137987  0.78495832  1.0
  H  H11  1  0.65988736  0.49572136  0.03370964  1.0
  H  H12  1  0.97269796  0.72351963  0.58774933  1.0
  H  H13  1  0.69985931  0.29423444  0.42105605  1.0
  H  H14  1  0.84410410  0.65036277  0.42228863  1.0
  H  H15  1  0.88691596  0.05669485  0.22151754  1.0
  H  H16  1  0.80358056  0.37057191  0.58917303  1.0
  H  H17  1  0.61118951  0.15178903  0.29397817  1.0
  H  H18  1  0.12317667  0.85745693  0.71053813  1.0
  H  H19  1  0.47728814  0.14193499  0.42329497  1.0
  H  H20  1  0.96116527  0.28419768  0.85402546  1.0
  H  H21  1  0.61350973  0.87238851  0.41052301  1.0
  H  H22  1  0.33949268  0.77126294  0.57489160  1.0
  H  H23  1  0.26646999  0.72706580  0.26986105  1.0
  H  H24  1  0.68670114  0.91467219  0.71515241  1.0
  H  H25  1  0.69973205  0.89714783  0.57047236  1.0
  H  H26  1  0.38874526  0.20407858  0.31707208  1.0
  H  H27  1  0.25099012  0.71052993  0.40720891  1.0
  H  H28  1  0.37255710  0.96563453  0.41846951  1.0
  H  H29  1  0.95115639  0.43452891  0.95034249  1.0
  H  H30  1  0.17887347  0.85430291  0.30875161  1.0
  H  H31  1  0.01441489  0.48354681  0.11757001  1.0
  H  H32  1  0.09097158  0.91715095  0.20210697  1.0
  H  H33  1  0.08148590  0.37926140  0.18619835  1.0
  H  H34  1  0.28473713  0.74770922  0.13942460  1.0
  H  H35  1  0.68012000  0.98461675  0.85230452  1.0
  H  H36  1  0.69582847  0.34314717  0.96930083  1.0
  H  H37  1  0.02892481  0.18044564  0.92350840  1.0
  H  H38  1  0.34810258  0.64928844  0.87334288  1.0
  H  H39  1  0.62776937  0.94719455  0.30917003  1.0
  H  H40  1  0.33038590  0.83042746  0.71158898  1.0
  H  H41  1  0.34828012  0.19870273  0.82423520  1.0
  H  H42  1  0.69340560  0.84508518  0.03634229  1.0
  H  H43  1  0.65393165  0.34057257  0.13902827  1.0
  H  H44  1  0.11827743  0.65324537  0.85068744  1.0
  H  H45  1  0.29851424  0.97701944  0.14905958  1.0
  H  H46  1  0.86938481  0.18747685  0.02073811  1.0
  H  H47  1  0.05315692  0.07536331  0.23297374  1.0
  H  H48  1  0.20272587  0.09652053  0.49679914  1.0
  H  H49  1  0.21593579  0.22873918  0.05296500  1.0
  H  H50  1  0.87516711  0.90356010  0.33446269  1.0
  H  H51  1  0.39697726  0.14638027  0.56963151  1.0
  H  H52  1  0.67674200  0.80243631  0.28643024  1.0
  H  H53  1  0.51889326  0.29742211  0.72042403  1.0
  C  C54  1  0.33047943  0.12825017  0.03914713  1.0
  C  C55  1  0.18125658  0.19507971  0.09365607  1.0
  C  C56  1  0.03867989  0.15428920  0.14367401  1.0
  C  C57  1  0.22302526  0.13884850  0.13353763  1.0
  C  C58  1  0.09401053  0.20739999  0.10041913  1.0
  C  C59  1  0.18161817  0.10521548  0.19244289  1.0
  C  C60  1  0.34294248  0.12754007  0.31565912  1.0
  C  C61  1  0.02712829  0.24799665  0.96609636  1.0
  C  C62  1  0.33374833  0.99399108  0.37299170  1.0
  C  C63  1  0.98269098  0.39021978  0.98108212  1.0
  C  C64  1  0.36526722  0.19116454  0.60408511  1.0
  C  C65  1  0.86660974  0.08675560  0.17070057  1.0
  C  C66  1  0.71077925  0.78704548  0.23832400  1.0
  C  C67  1  0.43374386  0.27621854  0.68855503  1.0
  C  C68  1  0.64253946  0.71020399  0.14969398  1.0
  C  C69  1  0.61771293  0.18439365  0.24438688  1.0
  C  C70  1  0.13733025  0.82025051  0.75667187  1.0
  C  C71  1  0.39456960  0.33546139  0.73382748  1.0
  C  C72  1  0.68431883  0.68690970  0.08685183  1.0
  C  C73  1  0.28466258  0.30687375  0.69161819  1.0
  C  C74  1  0.79594725  0.74269786  0.11476402  1.0
  C  C75  1  0.21584276  0.22124994  0.60713111  1.0
  C  C76  1  0.64863747  0.28818115  0.25251939  1.0
  C  C77  1  0.86403550  0.82089390  0.20311384  1.0
  C  C78  1  0.25584091  0.16307086  0.56302936  1.0
  C  C79  1  0.82172205  0.84320808  0.26521178  1.0
  C  C80  1  0.47051239  0.52295297  0.84031126  1.0
  C  C81  1  0.60892766  0.50412010  0.97754113  1.0
  C  C82  1  0.53854487  0.61096594  0.92430825  1.0
  C  C83  1  0.53611691  0.41465940  0.89583613  1.0
  C  C84  1  0.61151927  0.60128671  0.99358869  1.0
  C  C85  1  0.46782989  0.42531796  0.82420249  1.0
  C  C86  1  0.39237746  0.09223343  0.37495323  1.0
  C  C87  1  0.07466661  0.71809060  0.74715737  1.0
  C  C88  1  0.98831254  0.30584428  0.92706504  1.0
  C  C89  1  0.97657155  0.63387874  0.66799539  1.0
  C  C90  1  0.70132258  0.38105709  0.33816187  1.0
  C  C91  1  0.81324172  0.57330357  0.42401422  1.0
  C  C92  1  0.83862710  0.44719064  0.58725020  1.0
  C  C93  1  0.37078372  0.80116803  0.16973396  1.0
  C  C94  1  0.59377874  0.95448317  0.83046578  1.0
  C  C95  1  0.74229679  0.48556753  0.34423956  1.0
  C  C96  1  0.92208357  0.53169817  0.66418513  1.0
  C  C97  1  0.72889620  0.37217576  0.42101457  1.0
  C  C98  1  0.45156928  0.83169708  0.25597068  1.0
  C  C99  1  0.93479953  0.64662530  0.58863255  1.0
  C  C100  1  0.80229255  0.45918504  0.50498512  1.0
  C  C101  1  0.84956309  0.56231195  0.50691440  1.0
  C  C102  1  0.44213043  0.80581174  0.33158919  1.0
  C  C103  1  0.51163266  0.84928369  0.65653822  1.0
  C  C104  1  0.62082990  0.87009222  0.57165374  1.0
  C  C105  1  0.33048623  0.74635873  0.40799770  1.0
  C  C106  1  0.61322930  0.87973606  0.65244926  1.0
  C  C107  1  0.33927465  0.75528933  0.33120253  1.0
  C  C108  1  0.41888274  0.79818388  0.57473365  1.0
  C  C109  1  0.50702522  0.88443737  0.74404435  1.0
  C  C110  1  0.53359746  0.83688183  0.40912364  1.0
  C  C111  1  0.42397433  0.78827485  0.49079621  1.0
  C  C112  1  0.52750630  0.83004813  0.48937719  1.0
  C  C113  1  0.22487085  0.93143830  0.31126891  1.0
  C  C114  1  0.01794019  0.41744058  0.07471439  1.0
  C  C115  1  0.17521281  0.96689484  0.25200040  1.0
  C  C116  1  0.05623717  0.35940949  0.11354143  1.0
  C  C117  1  0.60890811  0.29239505  0.93574161  1.0
  C  C118  1  0.43024109  0.71199669  0.91729170  1.0
  C  C119  1  0.23346593  0.06525423  0.25333277  1.0
  C  C120  1  0.52632260  0.31323356  0.89356021  1.0
  C  C121  1  0.05984372  0.27282279  0.05948353  1.0
  C  C122  1  0.54557019  0.90216514  0.25597583  1.0
  C  C123  1  0.41550789  0.87571505  0.75867311  1.0
  C  C124  1  0.43174339  0.21833925  0.86129037  1.0
  C  C125  1  0.60642057  0.81126840  0.00108350  1.0
  C  C126  1  0.63929105  0.28043006  0.16495356  1.0
  C  C127  1  0.13513168  0.71624366  0.82818352  1.0
  C  C128  1  0.31360928  0.02106796  0.10854611  1.0
  C  C129  1  0.85806128  0.15324192  0.06834925  1.0
  C  C130  1  0.29237652  0.10415105  0.10229837  1.0
  C  C131  1  0.52747188  0.70666174  0.94262356  1.0
  C  C132  1  0.93000365  0.13656473  0.13131822  1.0
  C  C133  1  0.08873767  0.10975381  0.19301377  1.0
  N  N134  1  0.36823512  0.06318066  0.00949127  1.0
  N  N135  1  0.44647231  0.93736773  0.84588231  1.0
  N  N136  1  0.45644606  0.14729027  0.88310115  1.0
  N  N137  1  0.55889731  0.87248138  0.01078184  1.0
  N  N138  1  0.60826058  0.18077184  0.11141020  1.0
  N  N139  1  0.22525911  0.80898314  0.88049070  1.0
  N  N140  1  0.35792744  0.99754768  0.05227746  1.0
  N  N141  1  0.76225277  0.11802269  0.07136799  1.0
  N  N142  1  0.76669544  0.07633537  0.13479435  1.0
  N  N143  1  0.59524669  0.12212171  0.16023882  1.0
  N  N144  1  0.22647604  0.87386974  0.83612078  1.0
  N  N145  1  0.41369595  0.84893460  0.12262523  1.0
  N  N146  1  0.55585715  0.98578899  0.88994778  1.0
  N  N147  1  0.56689769  0.19323137  0.92895724  1.0
  N  N148  1  0.45040929  0.81142539  0.95954951  1.0
  N  N149  1  0.52263125  0.91160819  0.17652526  1.0
  F  F150  1  0.95678244  0.51550164  0.74144863  1.0
  F  F151  1  0.71264867  0.49920469  0.26521490  1.0
