# generated using pymatgen
data_ZnH11C20NCl2O7
_symmetry_space_group_name_H-M   'P 1'
_cell_length_a   11.10285556
_cell_length_b   16.38350951
_cell_length_c   17.59995066
_cell_angle_alpha   95.51795789
_cell_angle_beta   90.97872847
_cell_angle_gamma   93.26999816
_symmetry_Int_Tables_number   1
_chemical_formula_structural   ZnH11C20NCl2O7
_chemical_formula_sum   'Zn2 H22 C40 N2 Cl4 O14'
_cell_volume   3180.65261577
_cell_formula_units_Z   2
loop_
 _symmetry_equiv_pos_site_id
 _symmetry_equiv_pos_as_xyz
  1  'x, y, z'
loop_
 _atom_site_type_symbol
 _atom_site_label
 _atom_site_symmetry_multiplicity
 _atom_site_fract_x
 _atom_site_fract_y
 _atom_site_fract_z
 _atom_site_occupancy
  Zn  Zn0  1  0.48980416  0.41697603  0.51320098  1.0
  Zn  Zn1  1  0.50862640  0.59218349  0.51378958  1.0
  H  H2  1  0.37526180  0.71399435  0.44471576  1.0
  H  H3  1  0.37246938  0.86366861  0.43893360  1.0
  H  H4  1  0.68644905  0.88972387  0.59128700  1.0
  H  H5  1  0.31555226  0.12296119  0.41338174  1.0
  H  H6  1  0.62884725  0.14006547  0.56595723  1.0
  H  H7  1  0.61850916  0.29096267  0.57427962  1.0
  H  H8  1  0.60939849  0.01042811  0.55674464  1.0
  H  H9  1  0.39391118  0.99813731  0.44253356  1.0
  H  H10  1  0.48922551  0.61321600  0.27747285  1.0
  H  H11  1  0.49102177  0.61028076  0.13682391  1.0
  H  H12  1  0.51823372  0.34732763  0.12283355  1.0
  H  H13  1  0.48685811  0.65447406  0.90259898  1.0
  H  H14  1  0.50736217  0.39099086  0.88815682  1.0
  H  H15  1  0.50946245  0.38819157  0.74771698  1.0
  H  H16  1  0.50721268  0.40682393  0.00891214  1.0
  H  H17  1  0.49478201  0.59473749  0.01642787  1.0
  H  H18  1  0.20161387  0.39837390  0.55324004  1.0
  H  H19  1  0.79047616  0.38019135  0.53529413  1.0
  H  H20  1  0.29451582  0.59445388  0.41223671  1.0
  H  H21  1  0.21726472  0.67830449  0.28940882  1.0
  H  H22  1  0.79781249  0.68395927  0.29601085  1.0
  H  H23  1  0.71556848  0.59447274  0.41538060  1.0
  C  C24  1  0.49664410  0.49521895  0.36580613  1.0
  C  C25  1  0.25840359  0.51326794  0.50262417  1.0
  C  C26  1  0.50427652  0.50716588  0.65900304  1.0
  C  C27  1  0.74181829  0.49731187  0.49365951  1.0
  C  C28  1  0.44284932  0.75549438  0.47610344  1.0
  C  C29  1  0.44226908  0.83945877  0.47312539  1.0
  C  C30  1  0.53061586  0.89130764  0.51514398  1.0
  C  C31  1  0.61563584  0.85346298  0.55765210  1.0
  C  C32  1  0.60976236  0.76825392  0.55756563  1.0
  C  C33  1  0.53799162  0.98049594  0.51858621  1.0
  C  C34  1  0.46536742  0.02743276  0.48102919  1.0
  C  C35  1  0.38532891  0.15732617  0.44945921  1.0
  C  C36  1  0.47157383  0.11684572  0.48845829  1.0
  C  C37  1  0.55825437  0.16646183  0.53420123  1.0
  C  C38  1  0.55370710  0.25083959  0.53897644  1.0
  C  C39  1  0.38723025  0.24295823  0.45741964  1.0
  C  C40  1  0.50139094  0.48414177  0.28075432  1.0
  C  C41  1  0.49521997  0.55538777  0.24213040  1.0
  C  C42  1  0.49622557  0.55323208  0.16351515  1.0
  C  C43  1  0.50337843  0.47777568  0.11837332  1.0
  C  C44  1  0.51118050  0.40646885  0.15612580  1.0
  C  C45  1  0.51094961  0.40895759  0.23563264  1.0
  C  C46  1  0.50323039  0.46978614  0.03535738  1.0
  C  C47  1  0.49850784  0.53175913  0.99001819  1.0
  C  C48  1  0.49229742  0.59520198  0.86927982  1.0
  C  C49  1  0.49836200  0.52373949  0.90698942  1.0
  C  C50  1  0.50381795  0.44825895  0.86162033  1.0
  C  C51  1  0.50495316  0.44628800  0.78294459  1.0
  C  C52  1  0.50030380  0.51771628  0.74430487  1.0
  C  C53  1  0.49245389  0.59295464  0.78978946  1.0
  C  C54  1  0.87145955  0.49464633  0.47502900  1.0
  C  C55  1  0.93681339  0.55192972  0.43032154  1.0
  C  C56  1  0.93365913  0.43465212  0.50883497  1.0
  C  C57  1  0.87935684  0.60096577  0.37979130  1.0
  C  C58  1  0.94404455  0.65093182  0.33260655  1.0
  C  C59  1  0.12936645  0.50196251  0.47999998  1.0
  C  C60  1  0.06270832  0.43983084  0.51366540  1.0
  C  C61  1  0.06779971  0.55342034  0.43081747  1.0
  C  C62  1  0.12908604  0.60047546  0.37826690  1.0
  C  C63  1  0.06924511  0.64978349  0.33105937  1.0
  N  N64  1  0.52491015  0.71931026  0.51775997  1.0
  N  N65  1  0.46981641  0.28962184  0.50132199  1.0
  Cl  Cl66  1  0.71433048  0.72424124  0.61050841  1.0
  Cl  Cl67  1  0.27898717  0.29006607  0.41032894  1.0
  Cl  Cl68  1  0.52629087  0.31562138  0.27252285  1.0
  Cl  Cl69  1  0.48076139  0.68685988  0.75348172  1.0
  O  O70  1  0.48713282  0.43147176  0.40191022  1.0
  O  O71  1  0.50132464  0.56892293  0.39716701  1.0
  O  O72  1  0.31721225  0.58271503  0.49854831  1.0
  O  O73  1  0.31015979  0.45300166  0.52941222  1.0
  O  O74  1  0.50500735  0.57111446  0.62321262  1.0
  O  O75  1  0.50718268  0.43365182  0.62768294  1.0
  O  O76  1  0.68419038  0.43091139  0.51038540  1.0
  O  O77  1  0.69134817  0.56614036  0.49692843  1.0
  O  O78  1  0.11147212  0.38569968  0.55592115  1.0
  O  O79  1  0.87941216  0.37359795  0.54404086  1.0
  O  O80  1  0.25014566  0.59905671  0.36291865  1.0
  O  O81  1  0.13396492  0.69389545  0.28200568  1.0
  O  O82  1  0.88327108  0.69705822  0.28589270  1.0
  O  O83  1  0.75733363  0.60137939  0.36628871  1.0
