# generated using pymatgen
data_Zn2H17C34N2O8F
_symmetry_space_group_name_H-M   'P 1'
_cell_length_a   9.82929842
_cell_length_b   10.90131350
_cell_length_c   15.93916616
_cell_angle_alpha   87.56513965
_cell_angle_beta   88.91653215
_cell_angle_gamma   88.80052788
_symmetry_Int_Tables_number   1
_chemical_formula_structural   Zn2H17C34N2O8F
_chemical_formula_sum   'Zn2 H17 C34 N2 O8 F1'
_cell_volume   1705.72424066
_cell_formula_units_Z   1
loop_
 _symmetry_equiv_pos_site_id
 _symmetry_equiv_pos_as_xyz
  1  'x, y, z'
loop_
 _atom_site_type_symbol
 _atom_site_label
 _atom_site_symmetry_multiplicity
 _atom_site_fract_x
 _atom_site_fract_y
 _atom_site_fract_z
 _atom_site_occupancy
  Zn  Zn0  1  0.64977629  0.50091080  0.49819606  1.0
  Zn  Zn1  1  0.35637955  0.51114763  0.51183149  1.0
  H  H2  1  0.35134218  0.33563291  0.97075459  1.0
  H  H3  1  0.87441663  0.65849011  0.43551206  1.0
  H  H4  1  0.56618713  0.32318199  0.08762400  1.0
  H  H5  1  0.25568674  0.55727817  0.04068443  1.0
  H  H6  1  0.42204345  0.69179275  0.92345446  1.0
  H  H7  1  0.63684266  0.67943587  0.04037672  1.0
  H  H8  1  0.73279081  0.45770003  0.97005802  1.0
  H  H9  1  0.35136342  0.13027223  0.58149666  1.0
  H  H10  1  0.73762711  0.09973718  0.22742128  1.0
  H  H11  1  0.76456732  0.87057590  0.25225172  1.0
  H  H12  1  0.65510098  0.76780857  0.37575420  1.0
  H  H13  1  0.36264025  0.90125759  0.60003731  1.0
  H  H14  1  0.13094453  0.66872470  0.44865018  1.0
  H  H15  1  0.25043041  0.33436290  0.62336954  1.0
  H  H16  1  0.12755542  0.15082732  0.68021847  1.0
  H  H17  1  0.88366601  0.12281490  0.64649627  1.0
  H  H18  1  0.75843171  0.28136941  0.56087694  1.0
  C  C19  1  0.48345889  0.27390612  0.47645974  1.0
  C  C20  1  0.69389483  0.05299178  0.28305342  1.0
  C  C21  1  0.70773468  0.92481702  0.29750288  1.0
  C  C22  1  0.52600036  0.46790606  0.66666667  1.0
  C  C23  1  0.64721137  0.86712571  0.36680400  1.0
  C  C24  1  0.57164564  0.93548084  0.42654717  1.0
  C  C25  1  0.55909057  0.06720587  0.41408611  1.0
  C  C26  1  0.48273216  0.13642712  0.47332487  1.0
  C  C27  1  0.41172003  0.07604460  0.53795919  1.0
  C  C28  1  0.41929644  0.94769269  0.54897468  1.0
  C  C29  1  0.50062504  0.87814657  0.49659248  1.0
  C  C30  1  0.50726265  0.48699144  0.92108096  1.0
  C  C31  1  0.14411469  0.32078878  0.60926275  1.0
  C  C32  1  0.07462154  0.22013910  0.64094073  1.0
  C  C33  1  0.93589572  0.20472220  0.62252732  1.0
  C  C34  1  0.50657345  0.74186840  0.51388286  1.0
  C  C35  1  0.86500007  0.29255773  0.57545127  1.0
  C  C36  1  0.93257235  0.39847344  0.54360487  1.0
  C  C37  1  0.07540991  0.41047121  0.55808223  1.0
  C  C38  1  0.07403503  0.59288139  0.47782392  1.0
  C  C39  1  0.93195100  0.58534394  0.46852933  1.0
  C  C40  1  0.48854375  0.54911904  0.34350680  1.0
  C  C41  1  0.57400597  0.60272361  0.02393463  1.0
  C  C42  1  0.53477766  0.40455886  0.04978160  1.0
  C  C43  1  0.41458037  0.41224969  0.98688756  1.0
  C  C44  1  0.52492672  0.46493425  0.75729588  1.0
  C  C45  1  0.47963295  0.55289286  0.25322247  1.0
  C  C46  1  0.62686804  0.47999848  0.98643210  1.0
  C  C47  1  0.48158769  0.52793278  0.08975322  1.0
  C  C48  1  0.45377203  0.61037630  0.96114768  1.0
  C  C49  1  0.36172891  0.53497923  0.02456750  1.0
  C  C50  1  0.51765623  0.47205793  0.83343683  1.0
  C  C51  1  0.47608248  0.54433669  0.17728572  1.0
  C  C52  1  0.62004639  0.11986805  0.33986192  1.0
  N  N53  1  0.14386746  0.50793212  0.52190744  1.0
  N  N54  1  0.86316356  0.48990375  0.49970154  1.0
  O  O55  1  0.59933829  0.32122445  0.48561065  1.0
  O  O56  1  0.36948206  0.33046862  0.47686678  1.0
  O  O57  1  0.63971376  0.48093405  0.62844076  1.0
  O  O58  1  0.41008704  0.45854685  0.63257449  1.0
  O  O59  1  0.62212229  0.68751157  0.50842626  1.0
  O  O60  1  0.39381518  0.69115554  0.53337729  1.0
  O  O61  1  0.60810942  0.53413879  0.37281832  1.0
  O  O62  1  0.37744913  0.55956327  0.38545623  1.0
  F  F63  1  0.60026502  0.24229346  0.32203108  1.0
