# generated using pymatgen
data_Ni3H48C72(N2O3)4
_symmetry_space_group_name_H-M   'P 1'
_cell_length_a   5.31749380
_cell_length_b   36.60991640
_cell_length_c   36.60990775
_cell_angle_alpha   119.99999741
_cell_angle_beta   89.99999760
_cell_angle_gamma   89.99999364
_symmetry_Int_Tables_number   1
_chemical_formula_structural   Ni3H48C72(N2O3)4
_chemical_formula_sum   'Ni3 H48 C72 N8 O12'
_cell_volume   6172.12917827
_cell_formula_units_Z   1
loop_
 _symmetry_equiv_pos_site_id
 _symmetry_equiv_pos_as_xyz
  1  'x, y, z'
loop_
 _atom_site_type_symbol
 _atom_site_label
 _atom_site_symmetry_multiplicity
 _atom_site_fract_x
 _atom_site_fract_y
 _atom_site_fract_z
 _atom_site_occupancy
  Ni  Ni0  1  0.50000220  0.49999988  0.49999980  1.0
  Ni  Ni1  1  0.50000065  0.00000013  0.50000014  1.0
  Ni  Ni2  1  0.50000039  0.50000002  0.99999995  1.0
  H  H3  1  0.77530669  0.59867539  0.31511665  1.0
  H  H4  1  0.77530664  0.71644148  0.40132482  1.0
  H  H5  1  0.77530667  0.68488335  0.28355832  1.0
  H  H6  1  0.77530686  0.40132464  0.68488324  1.0
  H  H7  1  0.77530692  0.28355870  0.59867537  1.0
  H  H8  1  0.77530689  0.31511668  0.71644156  1.0
  H  H9  1  0.77663064  0.55972769  0.35417755  1.0
  H  H10  1  0.77663053  0.79444984  0.44027217  1.0
  H  H11  1  0.77663062  0.64582242  0.20555008  1.0
  H  H12  1  0.77663078  0.44027233  0.64582233  1.0
  H  H13  1  0.77663089  0.20555019  0.55972772  1.0
  H  H14  1  0.77663079  0.35417761  0.79444981  1.0
  H  H15  1  0.22469200  0.68488337  0.40132483  1.0
  H  H16  1  0.22469200  0.71644130  0.31511664  1.0
  H  H17  1  0.22469205  0.59867502  0.28355833  1.0
  H  H18  1  0.22469225  0.31511682  0.59867537  1.0
  H  H19  1  0.22469225  0.28355874  0.68488325  1.0
  H  H20  1  0.22469220  0.40132474  0.71644155  1.0
  H  H21  1  0.22336807  0.64582236  0.44027219  1.0
  H  H22  1  0.22336803  0.79444961  0.35417753  1.0
  H  H23  1  0.22336814  0.55972772  0.20555009  1.0
  H  H24  1  0.22336831  0.35417768  0.55972771  1.0
  H  H25  1  0.22336836  0.20555032  0.64582268  1.0
  H  H26  1  0.22336825  0.44027232  0.79444980  1.0
  H  H27  1  0.51507887  0.47723535  0.41011334  1.0
  H  H28  1  0.51508056  0.93287804  0.52276485  1.0
  H  H29  1  0.51508076  0.58988672  0.06712192  1.0
  H  H30  1  0.51507897  0.52276468  0.58988654  1.0
  H  H31  1  0.51508104  0.06712215  0.47723535  1.0
  H  H32  1  0.51507897  0.41011347  0.93287828  1.0
  H  H33  1  0.51526504  0.51411059  0.36791982  1.0
  H  H34  1  0.51526490  0.85380905  0.48588909  1.0
  H  H35  1  0.51526503  0.63208004  0.14619088  1.0
  H  H36  1  0.51526516  0.48588917  0.63208007  1.0
  H  H37  1  0.51526343  0.14619098  0.51411079  1.0
  H  H38  1  0.51526517  0.36791988  0.85380932  1.0
  H  H39  1  0.48492175  0.58988684  0.52276489  1.0
  H  H40  1  0.48492164  0.93287799  0.41011329  1.0
  H  H41  1  0.48492186  0.47723528  0.06712193  1.0
  H  H42  1  0.48492197  0.41011292  0.47723499  1.0
  H  H43  1  0.48492208  0.06712192  0.58988690  1.0
  H  H44  1  0.48492186  0.52276491  0.93287827  1.0
  H  H45  1  0.48473744  0.63208007  0.48588912  1.0
  H  H46  1  0.48473737  0.85380925  0.36791979  1.0
  H  H47  1  0.48473566  0.51411091  0.14619089  1.0
  H  H48  1  0.48473768  0.36791996  0.51411076  1.0
  H  H49  1  0.48473587  0.14619079  0.63208010  1.0
  H  H50  1  0.48473571  0.48588928  0.85380931  1.0
  C  C51  1  0.65295770  0.60867173  0.34236966  1.0
  C  C52  1  0.65295764  0.73369813  0.39132832  1.0
  C  C53  1  0.65295769  0.65763008  0.26630180  1.0
  C  C54  1  0.65295788  0.39132830  0.65763022  1.0
  C  C55  1  0.65295793  0.26630205  0.60867187  1.0
  C  C56  1  0.65295600  0.34236967  0.73369808  1.0
  C  C57  1  0.65135356  0.58668819  0.36420716  1.0
  C  C58  1  0.65135348  0.77751897  0.41331184  1.0
  C  C59  1  0.65135356  0.63579294  0.22248110  1.0
  C  C60  1  0.65135373  0.41331184  0.63579272  1.0
  C  C61  1  0.65135381  0.22248121  0.58668835  1.0
  C  C62  1  0.65135373  0.36420724  0.77751909  1.0
  C  C63  1  0.34704288  0.65763023  0.39132834  1.0
  C  C64  1  0.34704286  0.73369797  0.34236966  1.0
  C  C65  1  0.34704292  0.60867177  0.26630181  1.0
  C  C66  1  0.34704311  0.34236997  0.60867187  1.0
  C  C67  1  0.34704125  0.26630207  0.65763023  1.0
  C  C68  1  0.34704308  0.39132827  0.73369808  1.0
  C  C69  1  0.34864514  0.63579290  0.41331186  1.0
  C  C70  1  0.34864510  0.77751899  0.36420714  1.0
  C  C71  1  0.34864519  0.58668822  0.22248111  1.0
  C  C72  1  0.34864537  0.36420729  0.58668834  1.0
  C  C73  1  0.34864541  0.22248120  0.63579306  1.0
  C  C74  1  0.34864532  0.41331197  0.77751909  1.0
  C  C75  1  0.50000029  0.64439583  0.35560413  1.0
  C  C76  1  0.50000026  0.71120833  0.35560412  1.0
  C  C77  1  0.50000030  0.64439580  0.28879155  1.0
  C  C78  1  0.50000050  0.35560420  0.64439576  1.0
  C  C79  1  0.50000052  0.28879186  0.64439608  1.0
  C  C80  1  0.50000049  0.35560423  0.71120833  1.0
  C  C81  1  0.50000030  0.59982142  0.40017865  1.0
  C  C82  1  0.49999834  0.80035724  0.40017863  1.0
  C  C83  1  0.49999844  0.59982129  0.19964252  1.0
  C  C84  1  0.50000049  0.40017861  0.59982124  1.0
  C  C85  1  0.49999868  0.19964295  0.59982157  1.0
  C  C86  1  0.49999858  0.40017874  0.80035736  1.0
  C  C87  1  0.50000030  0.57658827  0.42341150  1.0
  C  C88  1  0.50000020  0.84682324  0.42341148  1.0
  C  C89  1  0.50000034  0.57658844  0.15317682  1.0
  C  C90  1  0.50000048  0.42341149  0.57658839  1.0
  C  C91  1  0.50000059  0.15317680  0.57658842  1.0
  C  C92  1  0.50000044  0.42341175  0.84682338  1.0
  C  C93  1  0.50969098  0.51153277  0.42530080  1.0
  C  C94  1  0.50969270  0.91376801  0.48846722  1.0
  C  C95  1  0.50969289  0.57469917  0.08623177  1.0
  C  C96  1  0.50969111  0.48846726  0.57469909  1.0
  C  C97  1  0.50969316  0.08623175  0.51153266  1.0
  C  C98  1  0.50969109  0.42530102  0.91376843  1.0
  C  C99  1  0.51123682  0.53232274  0.40228021  1.0
  C  C100  1  0.51123668  0.86995747  0.46767721  1.0
  C  C101  1  0.51123683  0.59771974  0.13004238  1.0
  C  C102  1  0.51123696  0.46767729  0.59771967  1.0
  C  C103  1  0.51123522  0.13004256  0.53232268  1.0
  C  C104  1  0.51123694  0.40228029  0.86995751  1.0
  C  C105  1  0.49031152  0.57469924  0.48846726  1.0
  C  C106  1  0.49031140  0.91376803  0.42530075  1.0
  C  C107  1  0.49031160  0.51153268  0.08623178  1.0
  C  C108  1  0.49031172  0.42530079  0.51153262  1.0
  C  C109  1  0.49031184  0.08623173  0.57469913  1.0
  C  C110  1  0.49031163  0.48846735  0.91376810  1.0
  C  C111  1  0.48876567  0.59771977  0.46767724  1.0
  C  C112  1  0.48876558  0.86995748  0.40228018  1.0
  C  C113  1  0.48876575  0.53232271  0.13004239  1.0
  C  C114  1  0.48876588  0.40227999  0.53232265  1.0
  C  C115  1  0.48876598  0.13004256  0.59771971  1.0
  C  C116  1  0.48876581  0.46767732  0.86995750  1.0
  C  C117  1  0.00000177  0.47862507  0.47862499  1.0
  C  C118  1  0.99999935  0.00000013  0.52137524  1.0
  C  C119  1  0.99999909  0.52137482  0.99999994  1.0
  C  C120  1  0.00000161  0.52137498  0.52137491  1.0
  C  C121  1  0.00000008  0.00000013  0.47862504  1.0
  C  C122  1  0.99999910  0.47862493  0.99999994  1.0
  N  N123  1  0.50000219  0.53229956  0.46770027  1.0
  N  N124  1  0.50000204  0.93540059  0.46770054  1.0
  N  N125  1  0.50000225  0.53229969  0.06459930  1.0
  N  N126  1  0.50000235  0.46770020  0.53229962  1.0
  N  N127  1  0.50000251  0.06459933  0.53229966  1.0
  N  N128  1  0.50000229  0.46770050  0.93540090  1.0
  N  N129  1  0.50000028  0.66666667  0.33333333  1.0
  N  N130  1  0.50000050  0.33333333  0.66666667  1.0
  O  O131  1  0.21145651  0.46266263  0.46259006  1.0
  O  O132  1  0.21145442  0.99992756  0.53733726  1.0
  O  O133  1  0.21145467  0.53740961  0.00007217  1.0
  O  O134  1  0.21145474  0.53733741  0.53740983  1.0
  O  O135  1  0.21145495  0.00007263  0.46266294  1.0
  O  O136  1  0.21145470  0.46259031  0.99992803  1.0
  O  O137  1  0.78854619  0.46259003  0.46266258  1.0
  O  O138  1  0.78854447  0.00007234  0.53740988  1.0
  O  O139  1  0.78854608  0.53733754  0.99992803  1.0
  O  O140  1  0.78854601  0.53740957  0.53733699  1.0
  O  O141  1  0.78854584  0.99992757  0.46259031  1.0
  O  O142  1  0.78854611  0.46266238  0.00007218  1.0
