# generated using pymatgen
data_CuH5C8NO7
_symmetry_space_group_name_H-M   'P 1'
_cell_length_a   5.90201174
_cell_length_b   18.88569222
_cell_length_c   18.88996451
_cell_angle_alpha   60.03280958
_cell_angle_beta   89.97898159
_cell_angle_gamma   89.96601168
_symmetry_Int_Tables_number   1
_chemical_formula_structural   CuH5C8NO7
_chemical_formula_sum   'Cu6 H30 C48 N6 O42'
_cell_volume   1824.05596993
_cell_formula_units_Z   6
loop_
 _symmetry_equiv_pos_site_id
 _symmetry_equiv_pos_as_xyz
  1  'x, y, z'
loop_
 _atom_site_type_symbol
 _atom_site_label
 _atom_site_symmetry_multiplicity
 _atom_site_fract_x
 _atom_site_fract_y
 _atom_site_fract_z
 _atom_site_occupancy
  Cu  Cu0  1  0.82135624  0.47815378  0.47860641  1.0
  Cu  Cu1  1  0.82123651  0.47868468  0.04318336  1.0
  Cu  Cu2  1  0.82140055  0.04322028  0.47821162  1.0
  Cu  Cu3  1  0.17873530  0.95671589  0.52132024  1.0
  Cu  Cu4  1  0.17854536  0.52131398  0.52188139  1.0
  Cu  Cu5  1  0.17856940  0.52178299  0.95683073  1.0
  H  H6  1  0.67460852  0.44738269  0.36661977  1.0
  H  H7  1  0.67524704  0.36665694  0.18580618  1.0
  H  H8  1  0.67455222  0.18594897  0.44748328  1.0
  H  H9  1  0.32395781  0.81429233  0.63319382  1.0
  H  H10  1  0.32227349  0.63328425  0.55248548  1.0
  H  H11  1  0.32307590  0.55254276  0.81412150  1.0
  H  H12  1  0.35107063  0.55396531  0.63478392  1.0
  H  H13  1  0.34982477  0.63471600  0.81161509  1.0
  H  H14  1  0.35188977  0.81142461  0.55374297  1.0
  H  H15  1  0.65074383  0.18805228  0.36542644  1.0
  H  H16  1  0.65174640  0.36533937  0.44658009  1.0
  H  H17  1  0.65123131  0.44645959  0.18823083  1.0
  H  H18  1  0.44853134  0.36357692  0.70426492  1.0
  H  H19  1  0.44862265  0.70448202  0.93211232  1.0
  H  H20  1  0.44842296  0.93223637  0.36345760  1.0
  H  H21  1  0.55133923  0.06777792  0.29559833  1.0
  H  H22  1  0.55135209  0.29554434  0.63663316  1.0
  H  H23  1  0.55118854  0.63656870  0.06781350  1.0
  H  H24  1  0.55097494  0.63660080  0.29586115  1.0
  H  H25  1  0.55078762  0.29566588  0.06752809  1.0
  H  H26  1  0.55108395  0.06736900  0.63678199  1.0
  H  H27  1  0.44930900  0.93261105  0.70429258  1.0
  H  H28  1  0.44920381  0.70428113  0.36316093  1.0
  H  H29  1  0.44917534  0.36326522  0.93248403  1.0
  H  H30  1  0.98614973  0.48388336  0.75808320  1.0
  H  H31  1  0.98659371  0.75815733  0.75807223  1.0
  H  H32  1  0.98632761  0.75811353  0.48369452  1.0
  H  H33  1  0.01339918  0.24193302  0.24184936  1.0
  H  H34  1  0.01379597  0.24177202  0.51627386  1.0
  H  H35  1  0.01380752  0.51611258  0.24200717  1.0
  C  C36  1  0.83914513  0.45229061  0.64184014  1.0
  C  C37  1  0.83938927  0.64195692  0.90588818  1.0
  C  C38  1  0.83920400  0.90595006  0.45213860  1.0
  C  C39  1  0.16056250  0.09407083  0.35806260  1.0
  C  C40  1  0.16077721  0.35802676  0.54788750  1.0
  C  C41  1  0.16066849  0.54782430  0.09408937  1.0
  C  C42  1  0.16124929  0.54751858  0.35844974  1.0
  C  C43  1  0.16095244  0.35832776  0.09399526  1.0
  C  C44  1  0.16126204  0.09389113  0.54769423  1.0
  C  C45  1  0.83908155  0.90604025  0.64166249  1.0
  C  C46  1  0.83884999  0.64164721  0.45228207  1.0
  C  C47  1  0.83879544  0.45236213  0.90601266  1.0
  C  C48  1  0.53072930  0.38055086  0.74514638  1.0
  C  C49  1  0.53093401  0.74533692  0.87429102  1.0
  C  C50  1  0.53073628  0.87439076  0.38039577  1.0
  C  C51  1  0.46905204  0.12562729  0.25474150  1.0
  C  C52  1  0.46916993  0.25466702  0.61964925  1.0
  C  C53  1  0.46906065  0.61954137  0.12569202  1.0
  C  C54  1  0.46891426  0.61957962  0.25499401  1.0
  C  C55  1  0.46870662  0.25482274  0.12540004  1.0
  C  C56  1  0.46894855  0.12525937  0.61978178  1.0
  C  C57  1  0.53139464  0.87471907  0.74513458  1.0
  C  C58  1  0.53123515  0.74515625  0.38017951  1.0
  C  C59  1  0.53117444  0.38033059  0.87457472  1.0
  C  C60  1  0.43694746  0.35769872  0.82124250  1.0
  C  C61  1  0.43707225  0.82142278  0.82106790  1.0
  C  C62  1  0.43693685  0.82113143  0.35755924  1.0
  C  C63  1  0.56298156  0.17885344  0.17869546  1.0
  C  C64  1  0.56310050  0.17858518  0.64244509  1.0
  C  C65  1  0.56299777  0.64230591  0.17898183  1.0
  C  C66  1  0.73087058  0.42627553  0.72273579  1.0
  C  C67  1  0.73122267  0.72288304  0.85102016  1.0
  C  C68  1  0.73097615  0.85109365  0.42608167  1.0
  C  C69  1  0.26876994  0.14893531  0.27716252  1.0
  C  C70  1  0.26899054  0.27709735  0.57393373  1.0
  C  C71  1  0.26892689  0.57381365  0.14898863  1.0
  C  C72  1  0.26900350  0.57375413  0.27745854  1.0
  C  C73  1  0.26867197  0.27731678  0.14874757  1.0
  C  C74  1  0.26897813  0.14862395  0.57396576  1.0
  C  C75  1  0.73140072  0.85133124  0.72266502  1.0
  C  C76  1  0.73118744  0.72268000  0.42599805  1.0
  C  C77  1  0.73107770  0.42616014  0.85122620  1.0
  C  C78  1  0.83052538  0.44839403  0.77590233  1.0
  C  C79  1  0.83092747  0.77600952  0.77575657  1.0
  C  C80  1  0.83067226  0.77579042  0.44819990  1.0
  C  C81  1  0.16908739  0.22423136  0.22403183  1.0
  C  C82  1  0.16941762  0.22394948  0.55177800  1.0
  C  C83  1  0.16942325  0.55160670  0.22431917  1.0
  N  N84  1  0.22725623  0.30786316  0.84616571  1.0
  N  N85  1  0.22724615  0.84637960  0.84595981  1.0
  N  N86  1  0.22714668  0.84601794  0.30776807  1.0
  N  N87  1  0.77284660  0.15393479  0.15378976  1.0
  N  N88  1  0.77285850  0.15366163  0.69225749  1.0
  N  N89  1  0.77268220  0.69214556  0.15408268  1.0
  O  O90  1  0.72389144  0.44154917  0.59109587  1.0
  O  O91  1  0.72397462  0.59123894  0.96732032  1.0
  O  O92  1  0.72391058  0.96744354  0.44145277  1.0
  O  O93  1  0.27586304  0.03257141  0.40876172  1.0
  O  O94  1  0.27597741  0.40876764  0.55864547  1.0
  O  O95  1  0.27597706  0.55852697  0.03261599  1.0
  O  O96  1  0.27434150  0.55952182  0.40875411  1.0
  O  O97  1  0.27414903  0.40859322  0.03171646  1.0
  O  O98  1  0.27436607  0.03156593  0.55966799  1.0
  O  O99  1  0.72600745  0.96838385  0.59141113  1.0
  O  O100  1  0.72579052  0.59135859  0.44025423  1.0
  O  O101  1  0.72563271  0.44037601  0.96831322  1.0
  O  O102  1  0.03707777  0.48349963  0.63041057  1.0
  O  O103  1  0.03740465  0.63043441  0.88617219  1.0
  O  O104  1  0.03713579  0.88612797  0.48335498  1.0
  O  O105  1  0.96263321  0.11386850  0.36956736  1.0
  O  O106  1  0.96289213  0.36952117  0.51660865  1.0
  O  O107  1  0.96267930  0.51664465  0.11382871  1.0
  O  O108  1  0.96500885  0.51484528  0.37051678  1.0
  O  O109  1  0.96465504  0.37049027  0.11455607  1.0
  O  O110  1  0.96503527  0.11455713  0.51498178  1.0
  O  O111  1  0.03524721  0.88537336  0.62950298  1.0
  O  O112  1  0.03502642  0.62949603  0.48505485  1.0
  O  O113  1  0.03509092  0.48501881  0.88545468  1.0
  O  O114  1  0.57193938  0.41660036  0.41249078  1.0
  O  O115  1  0.57181067  0.41229550  0.17107239  1.0
  O  O116  1  0.57157993  0.17081455  0.41681335  1.0
  O  O117  1  0.42855351  0.82927483  0.58782961  1.0
  O  O118  1  0.42797402  0.58832138  0.58297752  1.0
  O  O119  1  0.42798015  0.58317076  0.82867488  1.0
  O  O120  1  0.14571996  0.28904711  0.79738465  1.0
  O  O121  1  0.14556665  0.79761906  0.91350769  1.0
  O  O122  1  0.14550189  0.91361667  0.28895154  1.0
  O  O123  1  0.85438417  0.08632728  0.20252217  1.0
  O  O124  1  0.85435720  0.20244353  0.71108204  1.0
  O  O125  1  0.85419307  0.71100334  0.08647751  1.0
  O  O126  1  0.85416256  0.71092547  0.20290061  1.0
  O  O127  1  0.85447353  0.20273028  0.08624174  1.0
  O  O128  1  0.85441184  0.08605380  0.71105131  1.0
  O  O129  1  0.14581702  0.91400411  0.79720422  1.0
  O  O130  1  0.14569374  0.79719807  0.28898281  1.0
  O  O131  1  0.14578936  0.28904389  0.91376900  1.0
