# generated using pymatgen
data_AlH12C24(NO4)3
_symmetry_space_group_name_H-M   'P 1'
_cell_length_a   4.22746714
_cell_length_b   27.77237912
_cell_length_c   27.77267581
_cell_angle_alpha   60.00074397
_cell_angle_beta   89.99841230
_cell_angle_gamma   89.99990100
_symmetry_Int_Tables_number   1
_chemical_formula_structural   AlH12C24(NO4)3
_chemical_formula_sum   'Al2 H24 C48 N6 O24'
_cell_volume   2823.87154725
_cell_formula_units_Z   2
loop_
 _symmetry_equiv_pos_site_id
 _symmetry_equiv_pos_as_xyz
  1  'x, y, z'
loop_
 _atom_site_type_symbol
 _atom_site_label
 _atom_site_symmetry_multiplicity
 _atom_site_fract_x
 _atom_site_fract_y
 _atom_site_fract_z
 _atom_site_occupancy
  Al  Al0  1  0.04553775  0.49999860  0.00000229  1.0
  Al  Al1  1  0.04553091  0.16666523  0.66666721  1.0
  H  H2  1  0.80375024  0.30438301  0.50941125  1.0
  H  H3  1  0.78210349  0.35224968  0.40501258  1.0
  H  H4  1  0.30144192  0.21029287  0.41648017  1.0
  H  H5  1  0.30147459  0.45637398  0.25019542  1.0
  H  H6  1  0.78207183  0.31441688  0.26165540  1.0
  H  H7  1  0.80370395  0.36228333  0.15725787  1.0
  H  H8  1  0.80373112  0.18621257  0.80437615  1.0
  H  H9  1  0.78209066  0.24274950  0.85223928  1.0
  H  H10  1  0.30144861  0.37323458  0.71028810  1.0
  H  H11  1  0.30146684  0.29343134  0.95637692  1.0
  H  H12  1  0.78210489  0.42392156  0.81442313  1.0
  H  H13  1  0.80375146  0.48045436  0.86228964  1.0
  H  H14  1  0.80372635  0.00940763  0.68621012  1.0
  H  H15  1  0.78208263  0.90501069  0.74274360  1.0
  H  H16  1  0.30149685  0.91647577  0.87323943  1.0
  H  H17  1  0.30147434  0.75018185  0.79343577  1.0
  H  H18  1  0.78205984  0.76165874  0.92392358  1.0
  H  H19  1  0.80370655  0.65726021  0.98045817  1.0
  H  H20  1  0.67560933  0.11444641  0.55117831  1.0
  H  H21  1  0.67566309  0.55222028  0.11549524  1.0
  H  H22  1  0.67560939  0.33437557  0.61444758  1.0
  H  H23  1  0.67560390  0.33228529  0.05222682  1.0
  H  H24  1  0.67566666  0.05118016  0.83437892  1.0
  H  H25  1  0.67566017  0.61548189  0.83229381  1.0
  C  C26  1  0.55011061  0.58414009  0.95523445  1.0
  C  C27  1  0.55010430  0.46062600  0.08414603  1.0
  C  C28  1  0.55012032  0.45522752  0.96063184  1.0
  C  C29  1  0.55011473  0.20603729  0.58252862  1.0
  C  C30  1  0.55009633  0.21143263  0.70604116  1.0
  C  C31  1  0.55010841  0.08252471  0.71143646  1.0
  C  C32  1  0.55342477  0.23199009  0.52097494  1.0
  C  C33  1  0.69087853  0.28461865  0.48843732  1.0
  C  C34  1  0.67848850  0.31122455  0.43083305  1.0
  C  C35  1  0.53433375  0.28418540  0.40518886  1.0
  C  C36  1  0.40642948  0.23080633  0.43736017  1.0
  C  C37  1  0.41139188  0.20486923  0.49510457  1.0
  C  C38  1  0.40643071  0.43586210  0.22931652  1.0
  C  C39  1  0.53430844  0.38248413  0.26148339  1.0
  C  C40  1  0.67844452  0.35544364  0.23583676  1.0
  C  C41  1  0.69083766  0.38204882  0.17823033  1.0
  C  C42  1  0.55342234  0.43467797  0.14569305  1.0
  C  C43  1  0.41141754  0.46179480  0.17157083  1.0
  C  C44  1  0.55340307  0.24703788  0.73198635  1.0
  C  C45  1  0.69085079  0.22695125  0.78461092  1.0
  C  C46  1  0.67846725  0.25795425  0.81121471  1.0
  C  C47  1  0.53430507  0.31063605  0.78417844  1.0
  C  C48  1  0.40640581  0.33184208  0.73080197  1.0
  C  C49  1  0.41135931  0.30002584  0.70487049  1.0
  C  C50  1  0.40644386  0.33482336  0.93586539  1.0
  C  C51  1  0.53432423  0.35603338  0.88248448  1.0
  C  C52  1  0.67847890  0.40871754  0.85544702  1.0
  C  C53  1  0.69089035  0.43971680  0.88205323  1.0
  C  C54  1  0.55344167  0.41962560  0.93468288  1.0
  C  C55  1  0.41142539  0.36663301  0.96180141  1.0
  C  C56  1  0.55344085  0.02097230  0.74704160  1.0
  C  C57  1  0.69087531  0.98843345  0.72694880  1.0
  C  C58  1  0.67847532  0.93082945  0.75794814  1.0
  C  C59  1  0.53433945  0.90518503  0.81063225  1.0
  C  C60  1  0.40647116  0.93735627  0.83184471  1.0
  C  C61  1  0.41143415  0.99510237  0.80003547  1.0
  C  C62  1  0.40643188  0.72930543  0.83482659  1.0
  C  C63  1  0.53429829  0.76147934  0.85603294  1.0
  C  C64  1  0.67843668  0.73583572  0.90871752  1.0
  C  C65  1  0.69084114  0.67822859  0.93972095  1.0
  C  C66  1  0.55342754  0.64568919  0.91963304  1.0
  C  C67  1  0.41142521  0.67156220  0.86664162  1.0
  C  C68  1  0.26499191  0.14805589  0.52743848  1.0
  C  C69  1  0.26503700  0.51861148  0.13923607  1.0
  C  C70  1  0.26496333  0.32450777  0.64805338  1.0
  C  C71  1  0.26500643  0.34215620  0.01861285  1.0
  C  C72  1  0.26504594  0.02743630  0.82451547  1.0
  C  C73  1  0.26503027  0.63922072  0.84216323  1.0
  N  N74  1  0.51972734  0.30702229  0.34703327  1.0
  N  N75  1  0.51972953  0.35964283  0.31963989  1.0
  N  N76  1  0.51972195  0.34595012  0.80701957  1.0
  N  N77  1  0.51972203  0.32071903  0.85964176  1.0
  N  N78  1  0.51971788  0.84702659  0.84595016  1.0
  N  N79  1  0.51971324  0.81963479  0.82071886  1.0
  O  O80  1  0.31118489  0.44913006  0.99132308  1.0
  O  O81  1  0.31118574  0.55954546  0.94913571  1.0
  O  O82  1  0.31117370  0.49131950  0.05955090  1.0
  O  O83  1  0.78036534  0.48878736  0.95015320  1.0
  O  O84  1  0.78033652  0.45015014  0.06106244  1.0
  O  O85  1  0.78033538  0.56105877  0.98879189  1.0
  O  O86  1  0.31115612  0.10711397  0.71753526  1.0
  O  O87  1  0.31118472  0.17534522  0.60712173  1.0
  O  O88  1  0.31116407  0.21753008  0.67535079  1.0
  O  O89  1  0.78033667  0.10560634  0.67787611  1.0
  O  O90  1  0.78032563  0.17787506  0.71651730  1.0
  O  O91  1  0.78036627  0.21651486  0.60560723  1.0
  O  O92  1  0.44217575  0.10440990  0.55908179  1.0
  O  O93  1  0.97972778  0.14308104  0.52153263  1.0
  O  O94  1  0.44223320  0.56225979  0.10758804  1.0
  O  O95  1  0.97978829  0.52359125  0.14514467  1.0
  O  O96  1  0.44214899  0.33650719  0.60440954  1.0
  O  O97  1  0.97970849  0.33539364  0.64307725  1.0
  O  O98  1  0.44218900  0.33015204  0.06226320  1.0
  O  O99  1  0.97973898  0.33127712  0.02358800  1.0
  O  O100  1  0.44223350  0.05908551  0.83650914  1.0
  O  O101  1  0.97979447  0.02152687  0.83540450  1.0
  O  O102  1  0.44221093  0.60757465  0.83016029  1.0
  O  O103  1  0.97976890  0.64512659  0.83128238  1.0
