# generated using pymatgen
data_CdH12C16(NO2)2
_symmetry_space_group_name_H-M   'P 1'
_cell_length_a   12.27093959
_cell_length_b   13.32792965
_cell_length_c   13.98742185
_cell_angle_alpha   90.00009163
_cell_angle_beta   89.99988854
_cell_angle_gamma   89.99999443
_symmetry_Int_Tables_number   1
_chemical_formula_structural   CdH12C16(NO2)2
_chemical_formula_sum   'Cd4 H48 C64 N8 O16'
_cell_volume   2287.58996544
_cell_formula_units_Z   4
loop_
 _symmetry_equiv_pos_site_id
 _symmetry_equiv_pos_as_xyz
  1  'x, y, z'
loop_
 _atom_site_type_symbol
 _atom_site_label
 _atom_site_symmetry_multiplicity
 _atom_site_fract_x
 _atom_site_fract_y
 _atom_site_fract_z
 _atom_site_occupancy
  Cd  Cd0  1  0.27930838  0.24999915  0.99999982  1.0
  Cd  Cd1  1  0.77930729  0.74999984  0.49999984  1.0
  Cd  Cd2  1  0.22069321  0.25000023  0.49999994  1.0
  Cd  Cd3  1  0.72069183  0.75000027  0.99999982  1.0
  H  H4  1  0.03042217  0.52076362  0.08012664  1.0
  H  H5  1  0.15787269  0.44508509  0.25667295  1.0
  H  H6  1  0.93520364  0.62721604  0.16440238  1.0
  H  H7  1  0.83189439  0.73499282  0.27793670  1.0
  H  H8  1  0.00076299  0.62463683  0.51172809  1.0
  H  H9  1  0.11698486  0.51496104  0.40759006  1.0
  H  H10  1  0.03042121  0.97923538  0.91987431  1.0
  H  H11  1  0.15787217  0.05491387  0.74332774  1.0
  H  H12  1  0.93520370  0.87278438  0.83559703  1.0
  H  H13  1  0.83189389  0.76500686  0.72206432  1.0
  H  H14  1  0.00076301  0.87536292  0.48827220  1.0
  H  H15  1  0.11698544  0.98503871  0.59240932  1.0
  H  H16  1  0.53042102  0.02076424  0.41987322  1.0
  H  H17  1  0.65787351  0.94508620  0.24332734  1.0
  H  H18  1  0.43520346  0.12721582  0.33559695  1.0
  H  H19  1  0.33189446  0.23499316  0.22206441  1.0
  H  H20  1  0.50076251  0.12463682  0.98827186  1.0
  H  H21  1  0.61698607  0.01496111  0.09240894  1.0
  H  H22  1  0.53042163  0.47923619  0.58012683  1.0
  H  H23  1  0.65787378  0.55491425  0.75667183  1.0
  H  H24  1  0.43520390  0.37278387  0.66440327  1.0
  H  H25  1  0.33189628  0.26500729  0.77793670  1.0
  H  H26  1  0.50076276  0.37536361  0.01172825  1.0
  H  H27  1  0.61698514  0.48503931  0.90759097  1.0
  H  H28  1  0.46957948  0.97923583  0.58012655  1.0
  H  H29  1  0.34212699  0.05491388  0.75667315  1.0
  H  H30  1  0.56479623  0.87278425  0.66440282  1.0
  H  H31  1  0.66810605  0.76500766  0.77793608  1.0
  H  H32  1  0.49923718  0.87536325  0.01172792  1.0
  H  H33  1  0.38301444  0.98503896  0.90759084  1.0
  H  H34  1  0.46957887  0.52076389  0.41987365  1.0
  H  H35  1  0.34212673  0.44508582  0.24332652  1.0
  H  H36  1  0.56479661  0.62721545  0.33559722  1.0
  H  H37  1  0.66810585  0.73499278  0.22206450  1.0
  H  H38  1  0.49923774  0.62463721  0.98827152  1.0
  H  H39  1  0.38301537  0.51496076  0.09240880  1.0
  H  H40  1  0.96957752  0.47923570  0.91987384  1.0
  H  H41  1  0.84212619  0.55491423  0.74332754  1.0
  H  H42  1  0.06479686  0.37278403  0.83559667  1.0
  H  H43  1  0.16810530  0.26500725  0.72206379  1.0
  H  H44  1  0.99923751  0.37536324  0.48827169  1.0
  H  H45  1  0.88301483  0.48503828  0.59240900  1.0
  H  H46  1  0.96957848  0.02076394  0.08012618  1.0
  H  H47  1  0.84212752  0.94508620  0.25667275  1.0
  H  H48  1  0.06479681  0.12721644  0.16440275  1.0
  H  H49  1  0.16810580  0.23499321  0.27793617  1.0
  H  H50  1  0.99923668  0.12463640  0.51172757  1.0
  H  H51  1  0.88301424  0.01496137  0.40759045  1.0
  C  C52  1  0.15656737  0.40304840  0.07300076  1.0
  C  C53  1  0.08901503  0.47884416  0.12326889  1.0
  C  C54  1  0.09852601  0.49147636  0.21850446  1.0
  C  C55  1  0.03472887  0.55999568  0.27716727  1.0
  C  C56  1  0.95370010  0.62428692  0.24064872  1.0
  C  C57  1  0.89455541  0.68356625  0.30346669  1.0
  C  C58  1  0.98957571  0.62277297  0.43431698  1.0
  C  C59  1  0.05343067  0.56196532  0.37645861  1.0
  C  C60  1  0.15656481  0.09695132  0.92699922  1.0
  C  C61  1  0.08901422  0.02115481  0.87673049  1.0
  C  C62  1  0.09852623  0.00852336  0.78149562  1.0
  C  C63  1  0.03472917  0.94000332  0.72283225  1.0
  C  C64  1  0.95369951  0.87571275  0.75935208  1.0
  C  C65  1  0.89455579  0.81643343  0.69653351  1.0
  C  C66  1  0.98957636  0.87722670  0.56568305  1.0
  C  C67  1  0.05343038  0.93803444  0.62354088  1.0
  C  C68  1  0.65656534  0.90304831  0.42699876  1.0
  C  C69  1  0.58901474  0.97884474  0.37673228  1.0
  C  C70  1  0.59852593  0.99147453  0.28149601  1.0
  C  C71  1  0.53472897  0.05999523  0.22283265  1.0
  C  C72  1  0.45370009  0.12428657  0.25935129  1.0
  C  C73  1  0.39455636  0.18356579  0.19653352  1.0
  C  C74  1  0.48957612  0.12277304  0.06568226  1.0
  C  C75  1  0.55343099  0.06196469  0.12354057  1.0
  C  C76  1  0.65656601  0.59695213  0.57300041  1.0
  C  C77  1  0.58901449  0.52115571  0.62326772  1.0
  C  C78  1  0.59852629  0.50852517  0.71850326  1.0
  C  C79  1  0.53472997  0.44000445  0.77716740  1.0
  C  C80  1  0.45370117  0.37571312  0.74064818  1.0
  C  C81  1  0.39455568  0.31643315  0.80346605  1.0
  C  C82  1  0.48957678  0.37722740  0.93431715  1.0
  C  C83  1  0.55343095  0.43803574  0.87645873  1.0
  C  C84  1  0.34343435  0.09695176  0.57300102  1.0
  C  C85  1  0.41098577  0.02115533  0.62326964  1.0
  C  C86  1  0.40147376  0.00852404  0.71850520  1.0
  C  C87  1  0.46527072  0.94000409  0.77716784  1.0
  C  C88  1  0.54630041  0.87571350  0.74064848  1.0
  C  C89  1  0.60544415  0.81643428  0.80346625  1.0
  C  C90  1  0.51042357  0.87722703  0.93431751  1.0
  C  C91  1  0.44656951  0.93803463  0.87645920  1.0
  C  C92  1  0.34343449  0.40304869  0.42699864  1.0
  C  C93  1  0.41098439  0.47884511  0.37673062  1.0
  C  C94  1  0.40147340  0.49147715  0.28149436  1.0
  C  C95  1  0.46527135  0.55999562  0.22283237  1.0
  C  C96  1  0.54630015  0.62428695  0.25935159  1.0
  C  C97  1  0.60544401  0.68356617  0.19653372  1.0
  C  C98  1  0.51042454  0.62277268  0.06568262  1.0
  C  C99  1  0.44657036  0.56196433  0.12354104  1.0
  C  C100  1  0.84343313  0.59695092  0.92700044  1.0
  C  C101  1  0.91098466  0.52115516  0.87673159  1.0
  C  C102  1  0.90147286  0.50852371  0.78149603  1.0
  C  C103  1  0.96527082  0.44000439  0.72283250  1.0
  C  C104  1  0.04629959  0.37571391  0.75935176  1.0
  C  C105  1  0.10544428  0.31643382  0.69653309  1.0
  C  C106  1  0.01042398  0.37722711  0.56568279  1.0
  C  C107  1  0.94656902  0.43803476  0.62354117  1.0
  C  C108  1  0.84343406  0.90304801  0.07300055  1.0
  C  C109  1  0.91098466  0.97884451  0.12326929  1.0
  C  C110  1  0.90147346  0.99147671  0.21850487  1.0
  C  C111  1  0.96527133  0.05999600  0.27716753  1.0
  C  C112  1  0.04630017  0.12428657  0.24064841  1.0
  C  C113  1  0.10544390  0.18356590  0.30346627  1.0
  C  C114  1  0.01042414  0.12277262  0.43431743  1.0
  C  C115  1  0.94656931  0.06196489  0.37645889  1.0
  N  N116  1  0.91033405  0.68180912  0.39898749  1.0
  N  N117  1  0.91033463  0.81819056  0.60101267  1.0
  N  N118  1  0.41033439  0.18180850  0.10101268  1.0
  N  N119  1  0.41033513  0.31819119  0.89898758  1.0
  N  N120  1  0.58966530  0.81819082  0.89898709  1.0
  N  N121  1  0.58966537  0.68180888  0.10101291  1.0
  N  N122  1  0.08966645  0.31819021  0.60101228  1.0
  N  N123  1  0.08966587  0.18180876  0.39898781  1.0
  O  O124  1  0.23190711  0.35771657  0.12061344  1.0
  O  O125  1  0.13785875  0.38427356  0.98531185  1.0
  O  O126  1  0.23190547  0.14228314  0.87938427  1.0
  O  O127  1  0.13785739  0.11572691  0.01468745  1.0
  O  O128  1  0.73190518  0.85771715  0.37938445  1.0
  O  O129  1  0.63785681  0.88427278  0.51468683  1.0
  O  O130  1  0.73190574  0.64228329  0.62061602  1.0
  O  O131  1  0.63785768  0.61572917  0.48531309  1.0
  O  O132  1  0.26809450  0.14228367  0.62061604  1.0
  O  O133  1  0.36214206  0.11572654  0.48531295  1.0
  O  O134  1  0.26809395  0.35771678  0.37938375  1.0
  O  O135  1  0.36214201  0.38427090  0.51468668  1.0
  O  O136  1  0.76809258  0.64228276  0.87938634  1.0
  O  O137  1  0.86214094  0.61572651  0.01468793  1.0
  O  O138  1  0.76809422  0.85771693  0.12061550  1.0
  O  O139  1  0.86214148  0.88427091  0.98531304  1.0
