# generated using pymatgen
data_ZnH46C38(NO3)3
_symmetry_space_group_name_H-M   'P 1'
_cell_length_a   16.36621282
_cell_length_b   16.56231240
_cell_length_c   19.06905309
_cell_angle_alpha   89.03144349
_cell_angle_beta   86.32755698
_cell_angle_gamma   88.42250120
_symmetry_Int_Tables_number   1
_chemical_formula_structural   ZnH46C38(NO3)3
_chemical_formula_sum   'Zn2 H92 C76 N6 O18'
_cell_volume   5155.73893091
_cell_formula_units_Z   2
loop_
 _symmetry_equiv_pos_site_id
 _symmetry_equiv_pos_as_xyz
  1  'x, y, z'
loop_
 _atom_site_type_symbol
 _atom_site_label
 _atom_site_symmetry_multiplicity
 _atom_site_fract_x
 _atom_site_fract_y
 _atom_site_fract_z
 _atom_site_occupancy
  Zn  Zn0  1  0.58879961  0.50438392  0.49757548  1.0
  Zn  Zn1  1  0.40893083  0.48783733  0.51723778  1.0
  H  H2  1  0.61458424  0.57765076  0.71559647  1.0
  H  H3  1  0.66986929  0.24545130  0.47178607  1.0
  H  H4  1  0.41822328  0.01606181  0.41077754  1.0
  H  H5  1  0.60332402  0.99452317  0.37482387  1.0
  H  H6  1  0.67327565  0.10700605  0.42069365  1.0
  H  H7  1  0.35640078  0.90465923  0.46554174  1.0
  H  H8  1  0.58705074  0.86506425  0.34704701  1.0
  H  H9  1  0.42251251  0.14239139  0.36793814  1.0
  H  H10  1  0.65094437  0.54065028  0.29788591  1.0
  H  H11  1  0.68968032  0.46150021  0.35062507  1.0
  H  H12  1  0.79648676  0.57418824  0.25581498  1.0
  H  H13  1  0.37152310  0.53840288  0.28075745  1.0
  H  H14  1  0.83300870  0.49059230  0.30419733  1.0
  H  H15  1  0.74871238  0.39704135  0.23364319  1.0
  H  H16  1  0.82093049  0.45124385  0.17911703  1.0
  H  H17  1  0.71574953  0.48102435  0.18392818  1.0
  H  H18  1  0.36144955  0.26887584  0.56067541  1.0
  H  H19  1  0.31978233  0.32108882  0.48917642  1.0
  H  H20  1  0.22302612  0.21021840  0.59346655  1.0
  H  H21  1  0.18251651  0.25984380  0.52030848  1.0
  H  H22  1  0.28341514  0.18356094  0.43812340  1.0
  H  H23  1  0.22386044  0.11539603  0.49136286  1.0
  H  H24  1  0.27960120  0.60317397  0.49503663  1.0
  H  H25  1  0.32631543  0.13444623  0.51089195  1.0
  H  H26  1  0.02662749  0.57659300  0.32352146  1.0
  H  H27  1  0.97636986  0.49078517  0.35979466  1.0
  H  H28  1  0.15987710  0.52318185  0.36727321  1.0
  H  H29  1  0.11031103  0.43716911  0.40281793  1.0
  H  H30  1  0.07182803  0.39860719  0.28178793  1.0
  H  H31  1  0.17958064  0.40780873  0.28408634  1.0
  H  H32  1  0.12009115  0.48576500  0.24538762  1.0
  H  H33  1  0.98729045  0.29660383  0.55682525  1.0
  H  H34  1  0.03934685  0.34293169  0.48294859  1.0
  H  H35  1  0.71525610  0.48610204  0.59546432  1.0
  H  H36  1  0.85225547  0.34496213  0.51237177  1.0
  H  H37  1  0.90409385  0.38707897  0.43711519  1.0
  H  H38  1  0.96104351  0.24817640  0.40294288  1.0
  H  H39  1  0.85234329  0.25004032  0.41130784  1.0
  H  H40  1  0.90924175  0.20595691  0.47898646  1.0
  H  H41  1  0.05122043  0.34084664  0.69984826  1.0
  H  H42  1  0.03468237  0.44079753  0.66684737  1.0
  H  H43  1  0.18658444  0.37766410  0.73977815  1.0
  H  H44  1  0.18004165  0.47270522  0.69702844  1.0
  H  H45  1  0.05657394  0.51269072  0.77576462  1.0
  H  H46  1  0.40106059  0.43352782  0.73841197  1.0
  H  H47  1  0.14227046  0.48859753  0.82526908  1.0
  H  H48  1  0.06282844  0.41844505  0.82126603  1.0
  H  H49  1  0.92402746  0.71695337  0.34388195  1.0
  H  H50  1  0.92873966  0.69900957  0.43594860  1.0
  H  H51  1  0.77329003  0.74588546  0.36018513  1.0
  H  H52  1  0.77527958  0.72509306  0.45100437  1.0
  H  H53  1  0.87038312  0.84087621  0.46445782  1.0
  H  H54  1  0.77761772  0.87446220  0.42893882  1.0
  H  H55  1  0.86826106  0.86344185  0.37319891  1.0
  H  H56  1  0.90232266  0.41988817  0.68345645  1.0
  H  H57  1  0.57987059  0.37758047  0.29898133  1.0
  H  H58  1  0.81543197  0.40088474  0.63561835  1.0
  H  H59  1  0.82294576  0.52481858  0.75305146  1.0
  H  H60  1  0.73527723  0.50789142  0.70630690  1.0
  H  H61  1  0.73425821  0.36250586  0.74874463  1.0
  H  H62  1  0.72584982  0.42979145  0.81994637  1.0
  H  H63  1  0.82100989  0.37957926  0.79753713  1.0
  H  H64  1  0.10087677  0.69140633  0.41287910  1.0
  H  H65  1  0.20423331  0.65942659  0.42319293  1.0
  H  H66  1  0.11060879  0.79097373  0.50953984  1.0
  H  H67  1  0.21486503  0.76308617  0.51612506  1.0
  H  H68  1  0.42004903  0.27891704  0.42080522  1.0
  H  H69  1  0.24624372  0.80805488  0.38983833  1.0
  H  H70  1  0.19983021  0.88827036  0.43953576  1.0
  H  H71  1  0.14098365  0.83406176  0.38217920  1.0
  H  H72  1  0.68210988  0.54813380  0.89095719  1.0
  H  H73  1  0.69400282  0.60408922  0.81048159  1.0
  H  H74  1  0.62543309  0.63876284  0.88056234  1.0
  H  H75  1  0.40555147  0.60706388  0.11893733  1.0
  H  H76  1  0.35849610  0.51893314  0.09212141  1.0
  H  H77  1  0.31976957  0.56869216  0.16976398  1.0
  H  H78  1  0.34359685  0.34660686  0.81365961  1.0
  H  H79  1  0.59013731  0.72206721  0.38979595  1.0
  H  H80  1  0.29606246  0.43951561  0.84293552  1.0
  H  H81  1  0.32562788  0.28455485  0.92982869  1.0
  H  H82  1  0.29959451  0.37819040  0.96905646  1.0
  H  H83  1  0.16704934  0.38638250  0.91247858  1.0
  H  H84  1  0.17504371  0.29175352  0.95673577  1.0
  H  H85  1  0.19200088  0.29763057  0.86397362  1.0
  H  H86  1  0.64311512  0.25803236  0.10945977  1.0
  H  H87  1  0.53670128  0.26785816  0.13301823  1.0
  H  H88  1  0.67060822  0.23569205  0.23717246  1.0
  H  H89  1  0.56413581  0.23868657  0.25968965  1.0
  H  H90  1  0.35833106  0.75960085  0.50416310  1.0
  H  H91  1  0.54625178  0.11854143  0.18198205  1.0
  H  H92  1  0.61471514  0.09541827  0.24815672  1.0
  H  H93  1  0.65340457  0.11475700  0.16040963  1.0
  C  C94  1  0.53658157  0.34639706  0.49158513  1.0
  C  C95  1  0.47281571  0.89595908  0.40576911  1.0
  C  C96  1  0.61764994  0.14496652  0.42044187  1.0
  C  C97  1  0.40693365  0.86409433  0.44772162  1.0
  C  C98  1  0.61591013  0.22149617  0.44960171  1.0
  C  C99  1  0.40792360  0.78361020  0.46973097  1.0
  C  C100  1  0.54414336  0.02628548  0.38354782  1.0
  C  C101  1  0.47554947  0.98314269  0.39627385  1.0
  C  C102  1  0.24135495  0.55290177  0.51242742  1.0
  C  C103  1  0.75332118  0.50661961  0.55006364  1.0
  C  C104  1  0.15621396  0.55969857  0.51644129  1.0
  C  C105  1  0.48255144  0.64879811  0.47917954  1.0
  C  C106  1  0.83690353  0.51813468  0.55363274  1.0
  C  C107  1  0.10856298  0.49061146  0.53695814  1.0
  C  C108  1  0.88491248  0.54179345  0.49143950  1.0
  C  C109  1  0.50247221  0.50507036  0.64228236  1.0
  C  C110  1  0.47262302  0.47376689  0.37483214  1.0
  C  C111  1  0.15411497  0.42701653  0.56974946  1.0
  C  C112  1  0.83827455  0.57186809  0.43539295  1.0
  C  C113  1  0.24022395  0.42448134  0.56211969  1.0
  C  C114  1  0.75402113  0.55648940  0.43572031  1.0
  C  C115  1  0.02111384  0.48369422  0.52641855  1.0
  C  C116  1  0.54298626  0.26797254  0.45371269  1.0
  C  C117  1  0.97454875  0.53418320  0.48453041  1.0
  C  C118  1  0.57205297  0.54352728  0.75011616  1.0
  C  C119  1  0.42096625  0.50176220  0.25530053  1.0
  C  C120  1  0.58153723  0.53986879  0.82248234  1.0
  C  C121  1  0.43209146  0.50103176  0.18207967  1.0
  C  C122  1  0.52715903  0.49241493  0.86483621  1.0
  C  C123  1  0.49682265  0.45290772  0.15088465  1.0
  C  C124  1  0.46138850  0.45448235  0.83488689  1.0
  C  C125  1  0.54666994  0.40425083  0.19345896  1.0
  C  C126  1  0.45120465  0.46140999  0.76296612  1.0
  C  C127  1  0.47524357  0.73309322  0.45057501  1.0
  C  C128  1  0.53715689  0.40978762  0.26637346  1.0
  C  C129  1  0.50854004  0.50414260  0.72050317  1.0
  C  C130  1  0.47529620  0.45975088  0.29727585  1.0
  C  C131  1  0.51866387  0.46059811  0.07504672  1.0
  C  C132  1  0.53502267  0.48100640  0.94079060  1.0
  C  C133  1  0.70464287  0.52006421  0.32552370  1.0
  C  C134  1  0.78058812  0.51350785  0.27558568  1.0
  C  C135  1  0.76588610  0.45775026  0.21487881  1.0
  C  C136  1  0.30456832  0.29531351  0.54180878  1.0
  C  C137  1  0.23890496  0.23234856  0.53973151  1.0
  C  C138  1  0.47466542  0.23993819  0.42141352  1.0
  C  C139  1  0.26967243  0.16252069  0.49253243  1.0
  C  C140  1  0.02826918  0.53062907  0.36571359  1.0
  C  C141  1  0.10898209  0.48266539  0.36019335  1.0
  C  C142  1  0.12076673  0.44139774  0.28896741  1.0
  C  C143  1  0.98303320  0.34609434  0.51793011  1.0
  C  C144  1  0.90728452  0.33790399  0.47645892  1.0
  C  C145  1  0.90757224  0.25605317  0.44043259  1.0
  C  C146  1  0.08189884  0.39414558  0.67679352  1.0
  C  C147  1  0.14336046  0.42629073  0.72536244  1.0
  C  C148  1  0.09880743  0.46338825  0.79051995  1.0
  C  C149  1  0.53904064  0.76292016  0.40533050  1.0
  C  C150  1  0.88875414  0.69683640  0.39169906  1.0
  C  C151  1  0.81171356  0.74934007  0.40523736  1.0
  C  C152  1  0.83322908  0.83679139  0.41861030  1.0
  C  C153  1  0.84586250  0.44741750  0.66439973  1.0
  C  C154  1  0.79064107  0.47846081  0.72567990  1.0
  C  C155  1  0.76677534  0.40882813  0.77582522  1.0
  C  C156  1  0.14904109  0.68621724  0.45057563  1.0
  C  C157  1  0.16592986  0.76869520  0.47921548  1.0
  C  C158  1  0.18955790  0.82792022  0.41937552  1.0
  C  C159  1  0.64958595  0.58492445  0.85257777  1.0
  C  C160  1  0.47642074  0.16391428  0.39197897  1.0
  C  C161  1  0.37591517  0.55153996  0.13837222  1.0
  C  C162  1  0.33350361  0.38670038  0.85923316  1.0
  C  C163  1  0.29239720  0.34230356  0.92186871  1.0
  C  C164  1  0.20174314  0.32867493  0.91319402  1.0
  C  C165  1  0.59809516  0.27495595  0.15234772  1.0
  C  C166  1  0.61055330  0.22272564  0.21753210  1.0
  C  C167  1  0.60607532  0.13296742  0.20109869  1.0
  C  C168  1  0.53726523  0.84277314  0.38233610  1.0
  C  C169  1  0.54639499  0.11278435  0.39529904  1.0
  N  N170  1  0.54253378  0.40452775  0.96660418  1.0
  N  N171  1  0.53370670  0.53603425  0.05003778  1.0
  N  N172  1  0.53232093  0.39410888  0.03538317  1.0
  N  N173  1  0.54038266  0.54661806  0.98096020  1.0
  N  N174  1  0.28223009  0.48532309  0.53161687  1.0
  N  N175  1  0.71381803  0.52216583  0.49138105  1.0
  O  O176  1  0.60277659  0.38033356  0.50491288  1.0
  O  O177  1  0.28349422  0.36156395  0.58946179  1.0
  O  O178  1  0.01374213  0.57626006  0.43005858  1.0
  O  O179  1  0.98210690  0.41911935  0.55906787  1.0
  O  O180  1  0.11902533  0.36628040  0.60991579  1.0
  O  O181  1  0.87137003  0.61316854  0.37813734  1.0
  O  O182  1  0.87320171  0.51042104  0.61541829  1.0
  O  O183  1  0.11784326  0.63212533  0.50585931  1.0
  O  O184  1  0.41003047  0.41385923  0.88139977  1.0
  O  O185  1  0.61138948  0.35993117  0.16277843  1.0
  O  O186  1  0.41774118  0.61335176  0.50197851  1.0
  O  O187  1  0.46428820  0.37382307  0.50706841  1.0
  O  O188  1  0.55531573  0.61972498  0.47830519  1.0
  O  O189  1  0.56852259  0.51649270  0.60482341  1.0
  O  O190  1  0.40314887  0.48284245  0.40802223  1.0
  O  O191  1  0.43224649  0.49300107  0.62014586  1.0
  O  O192  1  0.54229793  0.47653004  0.40040650  1.0
  O  O193  1  0.71025924  0.57966151  0.38043106  1.0
