# generated using pymatgen
data_ZnH7C12N5O8
_symmetry_space_group_name_H-M   'P 1'
_cell_length_a   9.59985011
_cell_length_b   10.98370422
_cell_length_c   11.05103089
_cell_angle_alpha   84.39260693
_cell_angle_beta   89.86853447
_cell_angle_gamma   84.45007825
_symmetry_Int_Tables_number   1
_chemical_formula_structural   ZnH7C12N5O8
_chemical_formula_sum   'Zn2 H14 C24 N10 O16'
_cell_volume   1154.19966593
_cell_formula_units_Z   2
loop_
 _symmetry_equiv_pos_site_id
 _symmetry_equiv_pos_as_xyz
  1  'x, y, z'
loop_
 _atom_site_type_symbol
 _atom_site_label
 _atom_site_symmetry_multiplicity
 _atom_site_fract_x
 _atom_site_fract_y
 _atom_site_fract_z
 _atom_site_occupancy
  Zn  Zn0  1  0.63983760  0.48909143  0.50591515  1.0
  Zn  Zn1  1  0.34973332  0.51652456  0.50173197  1.0
  H  H2  1  0.28751233  0.13762667  0.50501103  1.0
  H  H3  1  0.28637714  0.90364872  0.50958001  1.0
  H  H4  1  0.14865271  0.39351878  0.65973593  1.0
  H  H5  1  0.10414719  0.62959881  0.34093492  1.0
  H  H6  1  0.88789835  0.36661283  0.65411758  1.0
  H  H7  1  0.84123971  0.61152304  0.34218642  1.0
  H  H8  1  0.02853595  0.12858032  0.40346192  1.0
  H  H9  1  0.10080854  0.97884741  0.44603858  1.0
  H  H10  1  0.01890999  0.76896452  0.67161425  1.0
  H  H11  1  0.09351965  0.90499428  0.63274444  1.0
  H  H12  1  0.82582023  0.47307880  0.93657877  1.0
  H  H13  1  0.73958433  0.45938159  0.80137032  1.0
  H  H14  1  0.73239751  0.44727187  0.22428754  1.0
  H  H15  1  0.79515197  0.37612503  0.10111962  1.0
  C  C16  1  0.48598816  0.53275856  0.26501904  1.0
  C  C17  1  0.48658186  0.48426499  0.74354451  1.0
  C  C18  1  0.50791762  0.26440184  0.49429632  1.0
  C  C19  1  0.49898702  0.73724120  0.52448972  1.0
  C  C20  1  0.77197794  0.08783567  0.45942940  1.0
  C  C21  1  0.76307599  0.85785470  0.59117315  1.0
  C  C22  1  0.89754590  0.01818418  0.49338865  1.0
  C  C23  1  0.89300492  0.90389165  0.57220013  1.0
  C  C24  1  0.63491415  0.92376726  0.54240308  1.0
  C  C25  1  0.63802406  0.04925932  0.49812157  1.0
  C  C26  1  0.51011042  0.12760765  0.49387090  1.0
  C  C27  1  0.50509579  0.87167134  0.53457868  1.0
  C  C28  1  0.38354632  0.07605755  0.50588954  1.0
  C  C29  1  0.38210377  0.94850894  0.51567684  1.0
  C  C30  1  0.36949935  0.56651100  0.05761551  1.0
  C  C31  1  0.36515285  0.53989013  0.93779430  1.0
  C  C32  1  0.48763508  0.49714465  0.87665883  1.0
  C  C33  1  0.49201686  0.53439850  0.13022011  1.0
  C  C34  1  0.61450828  0.47851332  0.94390857  1.0
  C  C35  1  0.61415883  0.48696541  0.07339465  1.0
  C  C36  1  0.07932808  0.43965350  0.58803342  1.0
  C  C37  1  0.05440286  0.57332384  0.41213162  1.0
  C  C38  1  0.93684874  0.42653281  0.58559273  1.0
  C  C39  1  0.91121141  0.56212835  0.41182069  1.0
  N  N40  1  0.85410666  0.48864128  0.49841780  1.0
  N  N41  1  0.13644029  0.51280834  0.50107723  1.0
  N  N42  1  0.77527194  0.18325727  0.35974314  1.0
  N  N43  1  0.75464608  0.75569279  0.68372943  1.0
  N  N44  1  0.02728537  0.04909730  0.45957035  1.0
  N  N45  1  0.01799422  0.84965464  0.61727112  1.0
  N  N46  1  0.24881063  0.63799750  0.10667142  1.0
  N  N47  1  0.23006990  0.56850139  0.87035573  1.0
  N  N48  1  0.74121142  0.44697711  0.89419892  1.0
  N  N49  1  0.73854834  0.44981083  0.13198363  1.0
  O  O50  1  0.60318048  0.51626796  0.32270657  1.0
  O  O51  1  0.60531348  0.47467804  0.69013594  1.0
  O  O52  1  0.36736059  0.54249232  0.31623241  1.0
  O  O53  1  0.36986355  0.48461658  0.68953655  1.0
  O  O54  1  0.62500253  0.30675029  0.51060457  1.0
  O  O55  1  0.61499874  0.67500445  0.50721883  1.0
  O  O56  1  0.39001477  0.32804851  0.48498948  1.0
  O  O57  1  0.37929499  0.69644111  0.52569055  1.0
  O  O58  1  0.88214194  0.24159386  0.34676239  1.0
  O  O59  1  0.67625424  0.19971582  0.28636823  1.0
  O  O60  1  0.85918322  0.67757666  0.70010506  1.0
  O  O61  1  0.64799601  0.75236780  0.74686709  1.0
  O  O62  1  0.27122693  0.73476758  0.14893828  1.0
  O  O63  1  0.13175410  0.59902363  0.10059736  1.0
  O  O64  1  0.15547052  0.48371307  0.86572551  1.0
  O  O65  1  0.20071726  0.67611505  0.82682799  1.0
