# generated using pymatgen
data_Zn4H10C24S4N2O13
_symmetry_space_group_name_H-M   'P 1'
_cell_length_a   19.66278169
_cell_length_b   19.66352058
_cell_length_c   33.34603456
_cell_angle_alpha   79.23870173
_cell_angle_beta   79.24022026
_cell_angle_gamma   63.91653667
_symmetry_Int_Tables_number   1
_chemical_formula_structural   Zn4H10C24S4N2O13
_chemical_formula_sum   'Zn16 H40 C96 S16 N8 O52'
_cell_volume   11295.95278587
_cell_formula_units_Z   4
loop_
 _symmetry_equiv_pos_site_id
 _symmetry_equiv_pos_as_xyz
  1  'x, y, z'
loop_
 _atom_site_type_symbol
 _atom_site_label
 _atom_site_symmetry_multiplicity
 _atom_site_fract_x
 _atom_site_fract_y
 _atom_site_fract_z
 _atom_site_occupancy
  Zn  Zn0  1  0.59928374  0.94381522  0.52156143  1.0
  Zn  Zn1  1  0.51633804  0.01635467  0.43997868  1.0
  Zn  Zn2  1  0.43904942  0.94079273  0.51662909  1.0
  Zn  Zn3  1  0.44527884  0.09902625  0.52110054  1.0
  Zn  Zn4  1  0.65053200  0.30530270  0.72858103  1.0
  Zn  Zn5  1  0.80996322  0.31123668  0.73312022  1.0
  Zn  Zn6  1  0.73449330  0.23248161  0.80978344  1.0
  Zn  Zn7  1  0.80557517  0.15176659  0.72788235  1.0
  Zn  Zn8  1  0.23281755  0.73318885  0.31041119  1.0
  Zn  Zn9  1  0.30460220  0.65179797  0.22805347  1.0
  Zn  Zn10  1  0.15115812  0.80623051  0.22776089  1.0
  Zn  Zn11  1  0.31079240  0.80889886  0.23304377  1.0
  Zn  Zn12  1  0.94032721  0.43918671  0.01671766  1.0
  Zn  Zn13  1  0.94440609  0.59894947  0.02161785  1.0
  Zn  Zn14  1  0.09882951  0.44495096  0.02181718  1.0
  Zn  Zn15  1  0.01727270  0.51611795  0.93959406  1.0
  H  H16  1  0.49790487  0.20407666  0.60076913  1.0
  H  H17  1  0.75231634  0.04547834  0.64895366  1.0
  H  H18  1  0.54600685  0.25199006  0.64909009  1.0
  H  H19  1  0.70409779  0.99752840  0.60069476  1.0
  H  H20  1  0.34700369  0.84788045  0.45046628  1.0
  H  H21  1  0.40244875  0.90211671  0.29909568  1.0
  H  H22  1  0.29894411  0.79952847  0.40227271  1.0
  H  H23  1  0.45082665  0.95011523  0.34731974  1.0
  H  H24  1  0.75879243  0.53739505  0.65917847  1.0
  H  H25  1  0.29866988  0.52041329  0.39816849  1.0
  H  H26  1  0.02015069  0.79613981  0.39803592  1.0
  H  H27  1  0.03089450  0.05146974  0.65244521  1.0
  H  H28  1  0.80000285  0.29881702  0.90234337  1.0
  H  H29  1  0.95051996  0.45090994  0.84757609  1.0
  H  H30  1  0.84747096  0.34754650  0.95064403  1.0
  H  H31  1  0.90269514  0.40249506  0.79930188  1.0
  H  H32  1  0.23025781  0.45148829  0.85174843  1.0
  H  H33  1  0.85735278  0.83700895  0.95915233  1.0
  H  H34  1  0.04526282  0.75277228  0.14906114  1.0
  H  H35  1  0.20354395  0.49819511  0.10082545  1.0
  H  H36  1  0.99715391  0.70465378  0.10077885  1.0
  H  H37  1  0.25142660  0.54620083  0.14926479  1.0
  H  H38  1  0.72033839  0.69804326  0.09823295  1.0
  H  H39  1  0.99021223  0.21377226  0.09180267  1.0
  H  H40  1  0.44173201  0.68755155  0.60466054  1.0
  H  H41  1  0.44656131  0.76696574  0.57305874  1.0
  H  H42  1  0.47805502  0.23220094  0.31471407  1.0
  H  H43  1  0.48174688  0.16373627  0.35676046  1.0
  H  H44  1  0.73116346  0.95415468  0.31428228  1.0
  H  H45  1  0.66350285  0.97961160  0.35698683  1.0
  H  H46  1  0.19758024  0.25757582  0.61460789  1.0
  H  H47  1  0.27483249  0.20558687  0.58085600  1.0
  H  H48  1  0.51832611  0.27219804  0.93549044  1.0
  H  H49  1  0.58705508  0.26671266  0.89333000  1.0
  H  H50  1  0.91464570  0.85524132  0.77270179  1.0
  H  H51  1  0.88405160  0.95347253  0.76006534  1.0
  H  H52  1  0.56371611  0.48313963  0.14556295  1.0
  H  H53  1  0.47659704  0.54364992  0.16957166  1.0
  H  H54  1  0.29879811  0.07341835  0.15612200  1.0
  H  H55  1  0.30257367  0.98415196  0.17781479  1.0
  C  C56  1  0.68393447  0.94116131  0.43734321  1.0
  C  C57  1  0.43052350  0.93038697  0.43026770  1.0
  C  C58  1  0.56036551  0.81433728  0.56042707  1.0
  C  C59  1  0.31465129  0.06423855  0.56086596  1.0
  C  C60  1  0.56927443  0.06937520  0.56932340  1.0
  C  C61  1  0.43732576  0.18400696  0.43707871  1.0
  C  C62  1  0.68749272  0.43509576  0.68911949  1.0
  C  C63  1  0.82043608  0.31884243  0.81934503  1.0
  C  C64  1  0.56658836  0.31191333  0.81277047  1.0
  C  C65  1  0.81391021  0.06412675  0.81065419  1.0
  C  C66  1  0.68073274  0.17998692  0.68062450  1.0
  C  C67  1  0.93470413  0.18894120  0.68870524  1.0
  C  C68  1  0.31289388  0.56589602  0.31129230  1.0
  C  C69  1  0.17970861  0.68060403  0.18075463  1.0
  C  C70  1  0.06561245  0.81057866  0.31117268  1.0
  C  C71  1  0.19127895  0.93410451  0.18755976  1.0
  C  C72  1  0.31917325  0.81941197  0.31929018  1.0
  C  C73  1  0.43451552  0.68669744  0.18761394  1.0
  C  C74  1  0.81646479  0.56068767  0.06182922  1.0
  C  C75  1  0.06907506  0.57002272  0.06929842  1.0
  C  C76  1  0.06136578  0.31623294  0.06201759  1.0
  C  C77  1  0.18456276  0.43724478  0.93861817  1.0
  C  C78  1  0.93062237  0.43037584  0.93055114  1.0
  C  C79  1  0.93763119  0.68391316  0.93843758  1.0
  C  C80  1  0.59808771  0.09793469  0.59808945  1.0
  C  C81  1  0.65186020  0.15136520  0.65193186  1.0
  C  C82  1  0.55340767  0.16975706  0.61162408  1.0
  C  C83  1  0.69660542  0.07961705  0.63831229  1.0
  C  C84  1  0.58008868  0.19631521  0.63838593  1.0
  C  C85  1  0.66991315  0.05304977  0.61156164  1.0
  C  C86  1  0.40172004  0.90168120  0.40161057  1.0
  C  C87  1  0.34790443  0.84813213  0.34795567  1.0
  C  C88  1  0.35885621  0.85932372  0.41728444  1.0
  C  C89  1  0.39069544  0.89057354  0.33227580  1.0
  C  C90  1  0.33217652  0.83261774  0.39060111  1.0
  C  C91  1  0.41749573  0.91712086  0.35896744  1.0
  C  C92  1  0.54378753  0.69589785  0.59778239  1.0
  C  C93  1  0.70183596  0.55460231  0.65126749  1.0
  C  C94  1  0.58525804  0.74056474  0.58479395  1.0
  C  C95  1  0.66181968  0.50994911  0.66416685  1.0
  C  C96  1  0.65919298  0.62247564  0.62726967  1.0
  C  C97  1  0.58730697  0.62813781  0.62232429  1.0
  C  C98  1  0.42296348  0.27247207  0.36963199  1.0
  C  C99  1  0.32764850  0.47547872  0.37823827  1.0
  C  C100  1  0.41191965  0.25778431  0.41269724  1.0
  C  C101  1  0.33810509  0.49077256  0.33589551  1.0
  C  C102  1  0.35875975  0.39621299  0.39076787  1.0
  C  C103  1  0.39216008  0.35259717  0.35757751  1.0
  C  C104  1  0.77235156  0.92730982  0.36987543  1.0
  C  C105  1  0.97521182  0.82569261  0.37813495  1.0
  C  C106  1  0.75776879  0.91710431  0.41297393  1.0
  C  C107  1  0.99042623  0.83575044  0.33576745  1.0
  C  C108  1  0.89602073  0.85861505  0.39078014  1.0
  C  C109  1  0.85236988  0.89321205  0.35764934  1.0
  C  C110  1  0.19962095  0.15862310  0.60159666  1.0
  C  C111  1  0.05124878  0.09590689  0.64783661  1.0
  C  C112  1  0.24087265  0.08878830  0.58516336  1.0
  C  C113  1  0.00980595  0.16446984  0.66403278  1.0
  C  C114  1  0.12056460  0.09311445  0.62533740  1.0
  C  C115  1  0.13050086  0.15990818  0.62477354  1.0
  C  C116  1  0.84877079  0.34780184  0.84809888  1.0
  C  C117  1  0.90181462  0.40185423  0.90184607  1.0
  C  C118  1  0.83298813  0.33216863  0.89073159  1.0
  C  C119  1  0.91749851  0.41759877  0.85920930  1.0
  C  C120  1  0.85929676  0.35912534  0.91746932  1.0
  C  C121  1  0.89105726  0.39076367  0.83247907  1.0
  C  C122  1  0.47820357  0.32625293  0.88033374  1.0
  C  C123  1  0.27513854  0.42245765  0.87171096  1.0
  C  C124  1  0.49289303  0.33734651  0.83724437  1.0
  C  C125  1  0.25975233  0.41203017  0.91406381  1.0
  C  C126  1  0.35441490  0.39117677  0.85920419  1.0
  C  C127  1  0.39800011  0.35754264  0.89240025  1.0
  C  C128  1  0.87795554  0.91867393  0.82113754  1.0
  C  C129  1  0.87416292  0.82961155  0.92673826  1.0
  C  C130  1  0.83882409  0.99068284  0.83537183  1.0
  C  C131  1  0.91291546  0.75841178  0.91315711  1.0
  C  C132  1  0.86089861  0.88819305  0.89346728  1.0
  C  C133  1  0.88999802  0.86033248  0.85508202  1.0
  C  C134  1  0.15099284  0.65208988  0.15198004  1.0
  C  C135  1  0.09756201  0.59866545  0.09810904  1.0
  C  C136  1  0.07929891  0.69708038  0.13837486  1.0
  C  C137  1  0.16933638  0.55374965  0.11164047  1.0
  C  C138  1  0.05269295  0.67046394  0.11161570  1.0
  C  C139  1  0.19586037  0.58031141  0.13845398  1.0
  C  C140  1  0.54941129  0.59270049  0.14661448  1.0
  C  C141  1  0.69993996  0.65364468  0.10277079  1.0
  C  C142  1  0.50772868  0.66277457  0.16274850  1.0
  C  C143  1  0.74160825  0.58496086  0.08673634  1.0
  C  C144  1  0.63015838  0.65675764  0.12477258  1.0
  C  C145  1  0.61995957  0.59022880  0.12493913  1.0
  C  C146  1  0.20770753  0.05265650  0.15037372  1.0
  C  C147  1  0.04727036  0.19649923  0.09957017  1.0
  C  C148  1  0.16676723  0.00741046  0.16276889  1.0
  C  C149  1  0.08696382  0.24150147  0.08701224  1.0
  C  C150  1  0.09064828  0.12787904  0.12278087  1.0
  C  C151  1  0.16279192  0.12195789  0.12740463  1.0
  S  S152  1  0.67526130  0.69982427  0.60197720  1.0
  S  S153  1  0.57228814  0.54997987  0.64713349  1.0
  S  S154  1  0.36441379  0.34015689  0.43745662  1.0
  S  S155  1  0.38537492  0.40909133  0.31101075  1.0
  S  S156  1  0.84014269  0.86736967  0.43760176  1.0
  S  S157  1  0.90874054  0.88546675  0.31101264  1.0
  S  S158  1  0.19552129  0.02714639  0.59759436  1.0
  S  S159  1  0.05460863  0.22606234  0.65190664  1.0
  S  S160  1  0.41047937  0.38547636  0.81250731  1.0
  S  S161  1  0.34143588  0.36445279  0.93895711  1.0
  S  S162  1  0.81821889  0.98642296  0.88891467  1.0
  S  S163  1  0.93380425  0.76218550  0.85993755  1.0
  S  S164  1  0.55373284  0.72384067  0.15114318  1.0
  S  S165  1  0.69620334  0.52390169  0.09808752  1.0
  S  S166  1  0.07615395  0.04877298  0.14631786  1.0
  S  S167  1  0.17726610  0.20068438  0.10314614  1.0
  N  N168  1  0.47370504  0.71336915  0.58732641  1.0
  N  N169  1  0.45586008  0.21821369  0.34323756  1.0
  N  N170  1  0.71810146  0.96636892  0.34368846  1.0
  N  N171  1  0.22117115  0.21714962  0.59518861  1.0
  N  N172  1  0.53247557  0.29292847  0.90663710  1.0
  N  N173  1  0.90292920  0.90648841  0.78105313  1.0
  N  N174  1  0.52495096  0.53668684  0.15002187  1.0
  N  N175  1  0.28029323  0.03228362  0.15798516  1.0
  O  O176  1  0.50009852  0.99999337  0.49983604  1.0
  O  O177  1  0.68268744  0.92456304  0.47642348  1.0
  O  O178  1  0.47141502  0.96627814  0.41390096  1.0
  O  O179  1  0.49312149  0.84245409  0.54870255  1.0
  O  O180  1  0.62469646  0.97745584  0.41763146  1.0
  O  O181  1  0.60661209  0.84642803  0.55240676  1.0
  O  O182  1  0.41196610  0.91673912  0.46864813  1.0
  O  O183  1  0.34361347  0.99702485  0.54980253  1.0
  O  O184  1  0.50325686  0.11307281  0.55846676  1.0
  O  O185  1  0.34593094  0.11175995  0.55228196  1.0
  O  O186  1  0.61291763  0.00380224  0.55803227  1.0
  O  O187  1  0.47187786  0.12467594  0.41739960  1.0
  O  O188  1  0.42404175  0.18300487  0.47626745  1.0
  O  O189  1  0.75039177  0.25031222  0.74955335  1.0
  O  O190  1  0.64068057  0.40388689  0.69727294  1.0
  O  O191  1  0.83556088  0.33644062  0.78093799  1.0
  O  O192  1  0.62610292  0.27597455  0.83221835  1.0
  O  O193  1  0.75419575  0.40796356  0.70023857  1.0
  O  O194  1  0.56727958  0.32666611  0.77358149  1.0
  O  O195  1  0.78346461  0.27901999  0.83551001  1.0
  O  O196  1  0.77676712  0.12338995  0.82964633  1.0
  O  O197  1  0.74647533  0.13606993  0.69181137  1.0
  O  O198  1  0.83070795  0.06443458  0.77121800  1.0
  O  O199  1  0.63743369  0.24592204  0.69157718  1.0
  O  O200  1  0.90700026  0.25544246  0.70031928  1.0
  O  O201  1  0.90392264  0.14193580  0.69616660  1.0
  O  O202  1  0.24952442  0.74987046  0.25017564  1.0
  O  O203  1  0.27633449  0.62392421  0.33095972  1.0
  O  O204  1  0.24497589  0.63623663  0.19235704  1.0
  O  O205  1  0.06585638  0.82729819  0.27217572  1.0
  O  O206  1  0.32982527  0.56601547  0.27228217  1.0
  O  O207  1  0.12365731  0.77461045  0.33093643  1.0
  O  O208  1  0.13673671  0.74684559  0.19136113  1.0
  O  O209  1  0.14433486  0.90280666  0.19623040  1.0
  O  O210  1  0.33513966  0.83581788  0.28085808  1.0
  O  O211  1  0.25851497  0.90582043  0.19925435  1.0
  O  O212  1  0.28100398  0.78078591  0.33566912  1.0
  O  O213  1  0.40255285  0.63973256  0.19537461  1.0
  O  O214  1  0.40685660  0.75250118  0.20025486  1.0
  O  O215  1  0.00004338  0.50004493  0.99992136  1.0
  O  O216  1  0.84434225  0.49397116  0.05050997  1.0
  O  O217  1  0.00332523  0.61361169  0.05811750  1.0
  O  O218  1  0.10832251  0.34729722  0.05389683  1.0
  O  O219  1  0.84665736  0.60820649  0.05370996  1.0
  O  O220  1  0.99495635  0.34323302  0.05060142  1.0
  O  O221  1  0.11288549  0.50427187  0.05822407  1.0
  O  O222  1  0.18435079  0.42094811  0.97765834  1.0
  O  O223  1  0.96919136  0.46860754  0.91426339  1.0
  O  O224  1  0.12643043  0.47318097  0.91893751  1.0
  O  O225  1  0.91443049  0.41408945  0.96900368  1.0
  O  O226  1  0.92075364  0.68443759  0.97732791  1.0
  O  O227  1  0.97406151  0.62528908  0.91903564  1.0
