# generated using pymatgen
data_ZnH17C20N5O4
_symmetry_space_group_name_H-M   'P 1'
_cell_length_a   21.66970796
_cell_length_b   21.96171958
_cell_length_c   22.02831206
_cell_angle_alpha   60.17455546
_cell_angle_beta   63.56016139
_cell_angle_gamma   89.99348828
_symmetry_Int_Tables_number   1
_chemical_formula_structural   ZnH17C20N5O4
_chemical_formula_sum   'Zn4 H68 C80 N20 O16'
_cell_volume   7805.91440394
_cell_formula_units_Z   4
loop_
 _symmetry_equiv_pos_site_id
 _symmetry_equiv_pos_as_xyz
  1  'x, y, z'
loop_
 _atom_site_type_symbol
 _atom_site_label
 _atom_site_symmetry_multiplicity
 _atom_site_fract_x
 _atom_site_fract_y
 _atom_site_fract_z
 _atom_site_occupancy
  Zn  Zn0  1  0.45850100  0.95441335  0.08973248  1.0
  Zn  Zn1  1  0.53972023  0.04363243  0.91133854  1.0
  Zn  Zn2  1  0.03901128  0.54218213  0.91339536  1.0
  Zn  Zn3  1  0.95910220  0.45677229  0.08639742  1.0
  H  H4  1  0.18820673  0.60026109  0.78459860  1.0
  H  H5  1  0.26353171  0.68173843  0.63382225  1.0
  H  H6  1  0.42768098  0.81735196  0.37773590  1.0
  H  H7  1  0.22892344  0.81458820  0.37563394  1.0
  H  H8  1  0.18128651  0.75081660  0.49769820  1.0
  H  H9  1  0.31885966  0.75843430  0.50484656  1.0
  H  H10  1  0.80969506  0.38930436  0.21640094  1.0
  H  H11  1  0.73589398  0.31961927  0.36731096  1.0
  H  H12  1  0.57310874  0.18871967  0.62323096  1.0
  H  H13  1  0.77076807  0.19427961  0.62728142  1.0
  H  H14  1  0.81982889  0.24868472  0.50225363  1.0
  H  H15  1  0.68127211  0.26032231  0.49706503  1.0
  H  H16  1  0.22577956  0.16205544  0.13128474  1.0
  H  H17  1  0.28611354  0.34890909  0.86728287  1.0
  H  H18  1  0.08029431  0.30063595  0.12283362  1.0
  H  H19  1  0.15700343  0.21782801  0.13045577  1.0
  H  H20  1  0.41605234  0.19538963  0.87613323  1.0
  H  H21  1  0.34049434  0.27955975  0.86859674  1.0
  H  H22  1  0.65452542  0.70695446  0.13214076  1.0
  H  H23  1  0.83880571  0.78646109  0.86910976  1.0
  H  H24  1  0.80252789  0.57243755  0.12660445  1.0
  H  H25  1  0.71956000  0.64851331  0.13243179  1.0
  H  H26  1  0.69590181  0.92761247  0.87619105  1.0
  H  H27  1  0.77847025  0.85096399  0.86938822  1.0
  H  H28  1  0.65565088  0.15852092  0.13159615  1.0
  H  H29  1  0.84523359  0.33633322  0.87025469  1.0
  H  H30  1  0.79883451  0.30073306  0.12819044  1.0
  H  H31  1  0.71822032  0.21760410  0.13298353  1.0
  H  H32  1  0.69719736  0.19633595  0.87439500  1.0
  H  H33  1  0.78147742  0.27633184  0.86895191  1.0
  H  H34  1  0.22787820  0.70671558  0.12784599  1.0
  H  H35  1  0.28587469  0.78326576  0.86509282  1.0
  H  H36  1  0.07987388  0.57770322  0.12157807  1.0
  H  H37  1  0.15497941  0.65589149  0.12800159  1.0
  H  H38  1  0.41614495  0.92915101  0.87257290  1.0
  H  H39  1  0.33802013  0.85469780  0.86575167  1.0
  H  H40  1  0.95784456  0.57056129  0.84715118  1.0
  H  H41  1  0.95921334  0.64824203  0.76949877  1.0
  H  H42  1  0.08023102  0.72187420  0.56127222  1.0
  H  H43  1  0.00671474  0.66087044  0.65346956  1.0
  H  H44  1  0.32047350  0.93123103  0.15755699  1.0
  H  H45  1  0.24034711  0.88131052  0.24747609  1.0
  H  H46  1  0.53545692  0.90849238  0.15832759  1.0
  H  H47  1  0.53407358  0.87149136  0.24858706  1.0
  H  H48  1  0.04037484  0.40904541  0.15106583  1.0
  H  H49  1  0.04209695  0.40541919  0.22989674  1.0
  H  H50  1  0.92037805  0.27670620  0.43691942  1.0
  H  H51  1  0.99169548  0.30345772  0.34535973  1.0
  H  H52  1  0.67697839  0.09691528  0.84554181  1.0
  H  H53  1  0.75837334  0.13546234  0.75571874  1.0
  H  H54  1  0.46531423  0.05747295  0.84210277  1.0
  H  H55  1  0.46676350  0.11251295  0.75138311  1.0
  H  H56  1  0.33060010  0.03631484  0.15654353  1.0
  H  H57  1  0.26826828  0.07220584  0.20115984  1.0
  H  H58  1  0.17161420  0.46488940  0.84308887  1.0
  H  H59  1  0.24536986  0.43972291  0.79507992  1.0
  H  H60  1  0.52546430  0.80601343  0.15640929  1.0
  H  H61  1  0.54795969  0.72605588  0.20121163  1.0
  H  H62  1  0.97362352  0.69315549  0.84971086  1.0
  H  H63  1  0.94823957  0.76978060  0.80142860  1.0
  H  H64  1  0.52726796  0.03444534  0.15514094  1.0
  H  H65  1  0.55858110  0.05915503  0.20302912  1.0
  H  H66  1  0.97035300  0.46221750  0.84885165  1.0
  H  H67  1  0.95103355  0.42646183  0.80166947  1.0
  H  H68  1  0.32917090  0.81019666  0.15422585  1.0
  H  H69  1  0.25597257  0.73710573  0.20065855  1.0
  H  H70  1  0.18006237  0.67956556  0.84237283  1.0
  H  H71  1  0.24784697  0.75929245  0.79321800  1.0
  C  C72  1  0.58406460  0.91331115  0.00398311  1.0
  C  C73  1  0.58224769  0.08485377  0.00228180  1.0
  C  C74  1  0.41103530  0.08152783  0.00417766  1.0
  C  C75  1  0.41471996  0.91229579  0.00084948  1.0
  C  C76  1  0.91062010  0.41475203  0.00181700  1.0
  C  C77  1  0.91552255  0.58657089  0.99980523  1.0
  C  C78  1  0.09024739  0.58451501  0.99430460  1.0
  C  C79  1  0.08699117  0.41607000  0.99358661  1.0
  C  C80  1  0.16417477  0.62299057  0.74671341  1.0
  C  C81  1  0.20523301  0.66844470  0.66323671  1.0
  C  C82  1  0.17180244  0.69577503  0.61615858  1.0
  C  C83  1  0.09608380  0.67588292  0.65848595  1.0
  C  C84  1  0.05719525  0.62960462  0.74557591  1.0
  C  C85  1  0.21245580  0.73967640  0.52780539  1.0
  C  C86  1  0.28468314  0.76741543  0.47847397  1.0
  C  C87  1  0.39785124  0.83156465  0.34603146  1.0
  C  C88  1  0.32267476  0.80967781  0.38966084  1.0
  C  C89  1  0.28729723  0.82932272  0.34556841  1.0
  C  C90  1  0.32745326  0.86962929  0.26033364  1.0
  C  C91  1  0.43558545  0.87181110  0.26032504  1.0
  C  C92  1  0.83441875  0.37178451  0.25368055  1.0
  C  C93  1  0.79424270  0.33341256  0.33734677  1.0
  C  C94  1  0.82822579  0.31089758  0.38399144  1.0
  C  C95  1  0.90398698  0.33053324  0.34047362  1.0
  C  C96  1  0.94201556  0.37101412  0.25337864  1.0
  C  C97  1  0.78812789  0.26670243  0.47269821  1.0
  C  C98  1  0.71589055  0.24420595  0.52300199  1.0
  C  C99  1  0.60257555  0.17366530  0.65537528  1.0
  C  C100  1  0.67775209  0.19800139  0.61211435  1.0
  C  C101  1  0.71252067  0.17632083  0.65692847  1.0
  C  C102  1  0.67186738  0.13224360  0.74238516  1.0
  C  C103  1  0.56434746  0.12779537  0.74114390  1.0
  C  C104  1  0.36330698  0.12982783  0.00606893  1.0
  C  C105  1  0.13723535  0.37028431  0.99267793  1.0
  C  C106  1  0.30838435  0.12043648  0.07943435  1.0
  C  C107  1  0.26692782  0.17023174  0.07410573  1.0
  C  C108  1  0.19619414  0.38354161  0.91914558  1.0
  C  C109  1  0.24072313  0.33668375  0.92451381  1.0
  C  C110  1  0.12604836  0.31048285  0.06708971  1.0
  C  C111  1  0.16969716  0.26426931  0.07093420  1.0
  C  C112  1  0.37323040  0.18857136  0.93173444  1.0
  C  C113  1  0.33089140  0.23600594  0.92799530  1.0
  C  C114  1  0.27599918  0.22756274  0.00023624  1.0
  C  C115  1  0.22876690  0.27673671  0.99855915  1.0
  C  C116  1  0.63033275  0.86341584  0.00610214  1.0
  C  C117  1  0.86761219  0.63517992  0.99680506  1.0
  C  C118  1  0.61845286  0.79963273  0.07967984  1.0
  C  C119  1  0.66517532  0.75555167  0.07478165  1.0
  C  C120  1  0.87821445  0.69731943  0.92287999  1.0
  C  C121  1  0.82974859  0.73979738  0.92686929  1.0
  C  C122  1  0.80940105  0.61980792  0.07052959  1.0
  C  C123  1  0.76285776  0.66281974  0.07321989  1.0
  C  C124  1  0.68822436  0.87902285  0.93195688  1.0
  C  C125  1  0.73416746  0.83545582  0.92864529  1.0
  C  C126  1  0.72344127  0.77201426  0.00117291  1.0
  C  C127  1  0.77212621  0.72443836  0.00036179  1.0
  C  C128  1  0.62900122  0.13206324  0.00421731  1.0
  C  C129  1  0.86618194  0.36641247  0.99854011  1.0
  C  C130  1  0.61656155  0.12224773  0.07819255  1.0
  C  C131  1  0.66627678  0.16773383  0.07402497  1.0
  C  C132  1  0.87997570  0.37581419  0.92435349  1.0
  C  C133  1  0.83382598  0.32715801  0.92808086  1.0
  C  C134  1  0.80786889  0.30794215  0.07192144  1.0
  C  C135  1  0.76292317  0.26116873  0.07414330  1.0
  C  C136  1  0.68913890  0.18841180  0.93065626  1.0
  C  C137  1  0.73649365  0.23325022  0.92796553  1.0
  C  C138  1  0.72592077  0.22319294  0.00100382  1.0
  C  C139  1  0.77487408  0.27053384  0.00101128  1.0
  C  C140  1  0.36676027  0.86296400  0.00232572  1.0
  C  C141  1  0.13899560  0.63422782  0.99193182  1.0
  C  C142  1  0.31251918  0.79842898  0.07586210  1.0
  C  C143  1  0.26830736  0.75615788  0.07077631  1.0
  C  C144  1  0.19793893  0.69416790  0.91798645  1.0
  C  C145  1  0.24044990  0.73860499  0.92254646  1.0
  C  C146  1  0.12597906  0.62299472  0.06573236  1.0
  C  C147  1  0.16840708  0.66718421  0.06887769  1.0
  C  C148  1  0.37378138  0.88030003  0.92844263  1.0
  C  C149  1  0.32989164  0.83793973  0.92491133  1.0
  C  C150  1  0.27529337  0.77404891  0.99734357  1.0
  C  C151  1  0.22760663  0.72655313  0.99613090  1.0
  N  N152  1  0.09112719  0.60399964  0.78759225  1.0
  N  N153  1  0.40092630  0.89103439  0.21768476  1.0
  N  N154  1  0.90749023  0.39115233  0.21176335  1.0
  N  N155  1  0.59842489  0.10778858  0.78447348  1.0
  N  N156  1  0.98342453  0.60792277  0.78551634  1.0
  N  N157  1  0.05485222  0.69841279  0.62224882  1.0
  N  N158  1  0.29356401  0.88690230  0.21674839  1.0
  N  N159  1  0.50881636  0.89462433  0.21719329  1.0
  N  N160  1  0.01558414  0.38527212  0.21263056  1.0
  N  N161  1  0.94629050  0.31397908  0.37585730  1.0
  N  N162  1  0.70510346  0.11078725  0.78668112  1.0
  N  N163  1  0.49133233  0.10299681  0.78363691  1.0
  N  N164  1  0.29301232  0.06390998  0.15574325  1.0
  N  N165  1  0.21215468  0.44151168  0.84372016  1.0
  N  N166  1  0.56401730  0.77960464  0.15578469  1.0
  N  N167  1  0.93326145  0.71637166  0.84702883  1.0
  N  N168  1  0.55808221  0.07159013  0.15253750  1.0
  N  N169  1  0.93533730  0.43081407  0.84958621  1.0
  N  N170  1  0.30244750  0.77510139  0.15072465  1.0
  N  N171  1  0.21556408  0.70918677  0.84308982  1.0
  O  O172  1  0.54043431  0.90626659  0.07218415  1.0
  O  O173  1  0.58907018  0.95998911  0.93664808  1.0
  O  O174  1  0.60160727  0.09208074  0.93439849  1.0
  O  O175  1  0.52432935  0.03810998  0.06914112  1.0
  O  O176  1  0.46691137  0.10168795  0.93688522  1.0
  O  O177  1  0.39264656  0.02054853  0.07247976  1.0
  O  O178  1  0.41147377  0.89232950  0.06802135  1.0
  O  O179  1  0.45715341  0.97274650  0.93303839  1.0
  O  O180  1  0.95567485  0.47498052  0.93380129  1.0
  O  O181  1  0.90272355  0.39543528  0.07022197  1.0
  O  O182  1  0.89767146  0.52844551  0.06827141  1.0
  O  O183  1  0.97284842  0.60629532  0.93217401  1.0
  O  O184  1  0.03524544  0.53649883  0.06275716  1.0
  O  O185  1  0.10646985  0.59280760  0.92624000  1.0
  O  O186  1  0.09047328  0.46222097  0.92588461  1.0
  O  O187  1  0.04230134  0.40747954  0.06130714  1.0
