# generated using pymatgen
data_CuH10C14O5
_symmetry_space_group_name_H-M   'P 1'
_cell_length_a   12.91480840
_cell_length_b   14.32663607
_cell_length_c   14.34604737
_cell_angle_alpha   78.27986669
_cell_angle_beta   63.25482607
_cell_angle_gamma   63.21801961
_symmetry_Int_Tables_number   1
_chemical_formula_structural   CuH10C14O5
_chemical_formula_sum   'Cu4 H40 C56 O20'
_cell_volume   2116.13328961
_cell_formula_units_Z   4
loop_
 _symmetry_equiv_pos_site_id
 _symmetry_equiv_pos_as_xyz
  1  'x, y, z'
loop_
 _atom_site_type_symbol
 _atom_site_label
 _atom_site_symmetry_multiplicity
 _atom_site_fract_x
 _atom_site_fract_y
 _atom_site_fract_z
 _atom_site_occupancy
  Cu  Cu0  1  0.46940416  0.47758231  0.40474332  1.0
  Cu  Cu1  1  0.35152248  0.52250693  0.59541253  1.0
  Cu  Cu2  1  0.19696509  0.90514460  0.02215127  1.0
  Cu  Cu3  1  0.12443332  0.09470346  0.97767695  1.0
  H  H4  1  0.58280237  0.29607109  0.73164144  1.0
  H  H5  1  0.61003297  0.70435092  0.26841738  1.0
  H  H6  1  0.12840954  0.23179146  0.20447223  1.0
  H  H7  1  0.56495497  0.76788742  0.79529904  1.0
  H  H8  1  0.74709785  0.14819177  0.78091408  1.0
  H  H9  1  0.67611882  0.85201726  0.21912097  1.0
  H  H10  1  0.14513167  0.28127872  0.35187752  1.0
  H  H11  1  0.77856600  0.71859199  0.64796980  1.0
  H  H12  1  0.99741899  0.08533178  0.45492144  1.0
  H  H13  1  0.53776017  0.91483962  0.54511855  1.0
  H  H14  1  0.33286273  0.95476776  0.41512193  1.0
  H  H15  1  0.70276123  0.04518378  0.58498885  1.0
  H  H16  1  0.82967694  0.22943460  0.40700210  1.0
  H  H17  1  0.46589398  0.77092857  0.59305337  1.0
  H  H18  1  0.30971051  0.90653658  0.27114126  1.0
  H  H19  1  0.48728213  0.09321368  0.72875018  1.0
  H  H20  1  0.05947767  0.92152474  0.52165295  1.0
  H  H21  1  0.50291977  0.07856811  0.47826687  1.0
  H  H22  1  0.23106029  0.02171600  0.57846561  1.0
  H  H23  1  0.83140883  0.97813181  0.42145379  1.0
  H  H24  1  0.22198070  0.77790603  0.57596724  1.0
  H  H25  1  0.57613346  0.22218562  0.42396963  1.0
  H  H26  1  0.25004074  0.07614911  0.72178448  1.0
  H  H27  1  0.04812579  0.92363856  0.27817150  1.0
  H  H28  1  0.23922553  0.79443636  0.73654021  1.0
  H  H29  1  0.77059895  0.20556634  0.26347631  1.0
  H  H30  1  0.28365563  0.23706325  0.70510204  1.0
  H  H31  1  0.22594264  0.76283472  0.29505235  1.0
  H  H32  1  0.93768526  0.10292770  0.78626643  1.0
  H  H33  1  0.82699944  0.89716832  0.21362091  1.0
  H  H34  1  0.29042362  0.28683144  0.39708299  1.0
  H  H35  1  0.97433800  0.71314428  0.60299687  1.0
  H  H36  1  0.52628323  0.36809883  0.24786086  1.0
  H  H37  1  0.14224868  0.63195608  0.75235491  1.0
  H  H38  1  0.14456965  0.74823841  0.13165210  1.0
  H  H39  1  0.02431836  0.25176290  0.86846097  1.0
  H  H40  1  0.49456389  0.48200278  0.20755038  1.0
  H  H41  1  0.18414599  0.51806755  0.79272134  1.0
  H  H42  1  0.22672997  0.70768672  0.01804486  1.0
  H  H43  1  0.95246361  0.29223888  0.98208750  1.0
  C  C44  1  0.59475882  0.36028236  0.53981287  1.0
  C  C45  1  0.49448906  0.64005939  0.46028737  1.0
  C  C46  1  0.20540801  0.03954507  0.14018646  1.0
  C  C47  1  0.38524112  0.96009541  0.85955601  1.0
  C  C48  1  0.69642736  0.27232951  0.56649923  1.0
  C  C49  1  0.53489498  0.72803602  0.43357724  1.0
  C  C50  1  0.21874415  0.06628239  0.22816469  1.0
  C  C51  1  0.51327996  0.93342556  0.77162422  1.0
  C  C52  1  0.67417284  0.24933632  0.67188445  1.0
  C  C53  1  0.59504350  0.75100680  0.32818308  1.0
  C  C54  1  0.17325160  0.17189230  0.25110579  1.0
  C  C55  1  0.59644046  0.82784390  0.74871865  1.0
  C  C56  1  0.76690081  0.16736108  0.69881351  1.0
  C  C57  1  0.63296118  0.83285332  0.30123358  1.0
  C  C58  1  0.18408149  0.19899536  0.33285554  1.0
  C  C59  1  0.71614008  0.80084729  0.66701944  1.0
  C  C60  1  0.88492083  0.10697861  0.62162389  1.0
  C  C61  1  0.61358380  0.89316620  0.37839249  1.0
  C  C62  1  0.24179792  0.12174566  0.39327747  1.0
  C  C63  1  0.75692283  0.87817949  0.60669243  1.0
  C  C64  1  0.90609548  0.13017351  0.51609946  1.0
  C  C65  1  0.55238689  0.87003854  0.48393025  1.0
  C  C66  1  0.28629679  0.01599311  0.37025594  1.0
  C  C67  1  0.67259635  0.98390345  0.62974779  1.0
  C  C68  1  0.81276706  0.21148947  0.48876147  1.0
  C  C69  1  0.51281153  0.78883750  0.51129480  1.0
  C  C70  1  0.27446108  0.98850336  0.28899653  1.0
  C  C71  1  0.55197163  0.01128266  0.71089645  1.0
  C  C72  1  0.98311818  0.02146487  0.65199378  1.0
  C  C73  1  0.65680711  0.97859570  0.34799630  1.0
  C  C74  1  0.25445507  0.15226247  0.47862279  1.0
  C  C75  1  0.88545236  0.84768759  0.52139198  1.0
  C  C76  1  0.06682559  0.92982442  0.59199403  1.0
  C  C77  1  0.58892803  0.07025117  0.40796114  1.0
  C  C78  1  0.24660902  0.09217580  0.57016451  1.0
  C  C79  1  0.90909545  0.90770752  0.42981676  1.0
  C  C80  1  0.15776812  0.84876312  0.62240093  1.0
  C  C81  1  0.62925862  0.15129275  0.37757423  1.0
  C  C82  1  0.25653943  0.12263214  0.65102915  1.0
  C  C83  1  0.03035877  0.87721660  0.34897696  1.0
  C  C84  1  0.16787944  0.85740822  0.71275781  1.0
  C  C85  1  0.73839665  0.14260702  0.28724625  1.0
  C  C86  1  0.27520028  0.21314391  0.64232389  1.0
  C  C87  1  0.13077209  0.78673631  0.35775793  1.0
  C  C88  1  0.08798705  0.94979908  0.77146056  1.0
  C  C89  1  0.80950633  0.05023029  0.22851415  1.0
  C  C90  1  0.28763185  0.27192417  0.55003799  1.0
  C  C91  1  0.10962767  0.72798169  0.45006211  1.0
  C  C92  1  0.99628284  0.03073749  0.74116656  1.0
  C  C93  1  0.76838648  0.96930744  0.25881055  1.0
  C  C94  1  0.27685392  0.24162698  0.46920137  1.0
  C  C95  1  0.98772552  0.75830760  0.53085429  1.0
  C  C96  1  0.10803763  0.96559105  0.86070893  1.0
  C  C97  1  0.93454232  0.03443092  0.13918675  1.0
  C  C98  1  0.32390330  0.36108422  0.53439140  1.0
  C  C99  1  0.21930714  0.63880020  0.46577100  1.0
  O  O100  1  0.55369420  0.42481979  0.23278525  1.0
  O  O101  1  0.21132622  0.57525498  0.76740436  1.0
  O  O102  1  0.22863883  0.73315254  0.07503902  1.0
  O  O103  1  0.03678395  0.26680775  0.92504556  1.0
  O  O104  1  0.60401647  0.36513734  0.44651627  1.0
  O  O105  1  0.41528933  0.63518740  0.55356001  1.0
  O  O106  1  0.21935790  0.94617569  0.13503796  1.0
  O  O107  1  0.30068606  0.05346206  0.86472657  1.0
  O  O108  1  0.50447415  0.42326430  0.61416056  1.0
  O  O109  1  0.54161582  0.57703850  0.38594523  1.0
  O  O110  1  0.17855833  0.11374424  0.07673496  1.0
  O  O111  1  0.36914056  0.88584968  0.92293424  1.0
  O  O112  1  0.06888720  0.06046996  0.88521586  1.0
  O  O113  1  0.01473201  0.93954422  0.11467027  1.0
  O  O114  1  0.37947788  0.38551006  0.43963686  1.0
  O  O115  1  0.20445175  0.61433561  0.56053861  1.0
  O  O116  1  0.16623247  0.88469308  0.90366838  1.0
  O  O117  1  0.95477514  0.11533331  0.09614929  1.0
  O  O118  1  0.30154546  0.40337766  0.61538007  1.0
  O  O119  1  0.32026474  0.59657441  0.38479425  1.0
