# generated using pymatgen
data_Zn2H28C43O9
_symmetry_space_group_name_H-M   'P 1'
_cell_length_a   16.52955484
_cell_length_b   16.66195399
_cell_length_c   28.80881937
_cell_angle_alpha   91.09639844
_cell_angle_beta   90.50299147
_cell_angle_gamma   91.16409642
_symmetry_Int_Tables_number   1
_chemical_formula_structural   Zn2H28C43O9
_chemical_formula_sum   'Zn4 H56 C86 O18'
_cell_volume   7930.94836074
_cell_formula_units_Z   2
loop_
 _symmetry_equiv_pos_site_id
 _symmetry_equiv_pos_as_xyz
  1  'x, y, z'
loop_
 _atom_site_type_symbol
 _atom_site_label
 _atom_site_symmetry_multiplicity
 _atom_site_fract_x
 _atom_site_fract_y
 _atom_site_fract_z
 _atom_site_occupancy
  Zn  Zn0  1  0.49994975  0.07659648  0.50063618  1.0
  Zn  Zn1  1  0.50001145  0.92341450  0.49936547  1.0
  Zn  Zn2  1  0.07736697  0.50038594  0.00043167  1.0
  Zn  Zn3  1  0.92263548  0.49959987  0.99957273  1.0
  H  H4  1  0.27473676  0.10953111  0.42825145  1.0
  H  H5  1  0.72523921  0.89049185  0.57174414  1.0
  H  H6  1  0.79673668  0.87531378  0.34051131  1.0
  H  H7  1  0.20323240  0.12469782  0.65949316  1.0
  H  H8  1  0.12819249  0.21413301  0.16284691  1.0
  H  H9  1  0.87174900  0.78561601  0.83701546  1.0
  H  H10  1  0.86726556  0.21080701  0.16071987  1.0
  H  H11  1  0.13267435  0.78944321  0.83944354  1.0
  H  H12  1  0.24413493  0.89711222  0.30626385  1.0
  H  H13  1  0.75582917  0.10289218  0.69374192  1.0
  H  H14  1  0.68446999  0.87365710  0.39839262  1.0
  H  H15  1  0.31549055  0.12635086  0.60160587  1.0
  H  H16  1  0.12895442  0.32580219  0.10598407  1.0
  H  H17  1  0.87100470  0.67395048  0.89388364  1.0
  H  H18  1  0.88607995  0.73178968  0.06681274  1.0
  H  H19  1  0.11441957  0.26866425  0.93289202  1.0
  H  H20  1  0.86918592  0.32295800  0.10410242  1.0
  H  H21  1  0.13077573  0.67725969  0.89603789  1.0
  H  H22  1  0.67959237  0.13105583  0.39694736  1.0
  H  H23  1  0.32036575  0.86895212  0.60304973  1.0
  H  H24  1  0.15803092  0.11252655  0.37261146  1.0
  H  H25  1  0.84194443  0.88749579  0.62737994  1.0
  H  H26  1  0.82282735  0.85132508  0.09248249  1.0
  H  H27  1  0.83092502  0.87052843  0.15345462  1.0
  H  H28  1  0.89093378  0.92697004  0.11515145  1.0
  H  H29  1  0.17796629  0.14940304  0.90705066  1.0
  H  H30  1  0.11002600  0.07344649  0.88457790  1.0
  H  H31  1  0.16945805  0.13015035  0.84610686  1.0
  H  H32  1  0.16066945  0.71640279  0.19762894  1.0
  H  H33  1  0.14858985  0.82263103  0.19750506  1.0
  H  H34  1  0.08962148  0.76392615  0.23517110  1.0
  H  H35  1  0.83868097  0.28296321  0.80283710  1.0
  H  H36  1  0.90958403  0.23569315  0.76508756  1.0
  H  H37  1  0.85113865  0.17679257  0.80291139  1.0
  H  H38  1  0.76835804  0.20736885  0.34977908  1.0
  H  H39  1  0.86533004  0.16436497  0.34180104  1.0
  H  H40  1  0.79382265  0.15947240  0.29610835  1.0
  H  H41  1  0.23160193  0.79264093  0.65022324  1.0
  H  H42  1  0.20613006  0.84053738  0.70389428  1.0
  H  H43  1  0.13462935  0.83564598  0.65819538  1.0
  H  H44  1  0.02684843  0.53548485  0.14258182  1.0
  H  H45  1  0.06063049  0.57963206  0.19642952  1.0
  H  H46  1  0.20109126  0.52741887  0.18116114  1.0
  H  H47  1  0.12704634  0.44813435  0.18248271  1.0
  H  H48  1  0.16435106  0.48166702  0.12821095  1.0
  H  H49  1  0.93828960  0.41986941  0.80362039  1.0
  H  H50  1  0.97250163  0.46421726  0.85733296  1.0
  H  H51  1  0.83506511  0.51783797  0.87208870  1.0
  H  H52  1  0.87174814  0.55128954  0.81766477  1.0
  H  H53  1  0.79787137  0.47188741  0.81929854  1.0
  H  H54  1  0.36377132  0.83986272  0.32670023  1.0
  H  H55  1  0.43717668  0.89439926  0.36113467  1.0
  H  H56  1  0.36799665  0.82931129  0.38819191  1.0
  H  H57  1  0.63619224  0.16014527  0.67330487  1.0
  H  H58  1  0.63196824  0.17070271  0.61181325  1.0
  H  H59  1  0.56278866  0.10560693  0.63886765  1.0
  C  C60  1  0.61222938  0.99857694  0.56400608  1.0
  C  C61  1  0.38773262  0.00144367  0.43599843  1.0
  C  C62  1  0.93210890  0.73933377  0.09396350  1.0
  C  C63  1  0.06818667  0.26090700  0.90586599  1.0
  C  C64  1  0.05274302  0.75491173  0.16318136  1.0
  C  C65  1  0.94702569  0.24482448  0.83698478  1.0
  C  C66  1  0.05189574  0.68890510  0.13218232  1.0
  C  C67  1  0.94788672  0.31085263  0.86796534  1.0
  C  C68  1  0.92439337  0.23656133  0.14881113  1.0
  C  C69  1  0.07555573  0.76357200  0.85127697  1.0
  C  C70  1  0.92538735  0.29869847  0.11735490  1.0
  C  C71  1  0.07456850  0.70140961  0.88272675  1.0
  C  C72  1  0.25061870  0.94301754  0.33362976  1.0
  C  C73  1  0.74934979  0.05699465  0.66637298  1.0
  C  C74  1  0.31518614  0.93924733  0.36510613  1.0
  C  C75  1  0.68478416  0.06076485  0.63489453  1.0
  C  C76  1  0.76815684  0.07824809  0.35183491  1.0
  C  C77  1  0.23180735  0.92176109  0.64816778  1.0
  C  C78  1  0.70589483  0.07549245  0.38412873  1.0
  C  C79  1  0.29406329  0.92451551  0.61586940  1.0
  C  C80  1  0.99580871  0.00760196  0.24853806  1.0
  C  C81  1  0.00416407  0.99238263  0.75146583  1.0
  C  C82  1  0.61089646  0.00178520  0.43654144  1.0
  C  C83  1  0.38906174  0.99822696  0.56345707  1.0
  C  C84  1  0.19320416  0.00413442  0.33612253  1.0
  C  C85  1  0.80676800  0.99588017  0.66387886  1.0
  C  C86  1  0.32246786  0.00036005  0.39980409  1.0
  C  C87  1  0.67750256  0.99965813  0.60019524  1.0
  C  C88  1  0.80127471  0.00452766  0.33636861  1.0
  C  C89  1  0.19869916  0.99548156  0.66363829  1.0
  C  C90  1  0.67600843  0.00247651  0.40108664  1.0
  C  C91  1  0.32394604  0.99753024  0.59891112  1.0
  C  C92  1  0.99763661  0.20503193  0.16523606  1.0
  C  C93  1  0.00229947  0.79496346  0.83477364  1.0
  C  C94  1  0.99917761  0.33060211  0.10157373  1.0
  C  C95  1  0.00078715  0.66937463  0.89842554  1.0
  C  C96  1  0.99194573  0.81300874  0.15865250  1.0
  C  C97  1  0.00809032  0.18696332  0.84135855  1.0
  C  C98  1  0.99239528  0.68157376  0.09686205  1.0
  C  C99  1  0.00764198  0.31842824  0.90313644  1.0
  C  C100  1  0.06875374  0.00618996  0.27852904  1.0
  C  C101  1  0.93120979  0.99381686  0.72148022  1.0
  C  C102  1  0.99667738  0.08100171  0.22048613  1.0
  C  C103  1  0.00328699  0.91898587  0.77951844  1.0
  C  C104  1  0.20203063  0.06479977  0.37062293  1.0
  C  C105  1  0.79794534  0.93522320  0.62937300  1.0
  C  C106  1  0.92384515  0.00615522  0.27864598  1.0
  C  C107  1  0.07612414  0.99383656  0.72135657  1.0
  C  C108  1  0.99376766  0.93703369  0.21669599  1.0
  C  C109  1  0.00623234  0.06295093  0.78331117  1.0
  C  C110  1  0.12679811  0.00475312  0.30460634  1.0
  C  C111  1  0.87317156  0.99525790  0.69540056  1.0
  C  C112  1  0.99260282  0.87988623  0.18983871  1.0
  C  C113  1  0.00743624  0.12008525  0.81017547  1.0
  C  C114  1  0.99698129  0.13908344  0.19564576  1.0
  C  C115  1  0.00295658  0.86091076  0.80436324  1.0
  C  C116  1  0.86661546  0.00480573  0.30481522  1.0
  C  C117  1  0.13335776  0.99520108  0.69519165  1.0
  C  C118  1  0.99147917  0.61510355  0.06135593  1.0
  C  C119  1  0.00855066  0.38489005  0.93864209  1.0
  C  C120  1  0.00015604  0.39463069  0.06600690  1.0
  C  C121  1  0.99979732  0.60535086  0.93399339  1.0
  C  C122  1  0.26663524  0.06276044  0.40156557  1.0
  C  C123  1  0.73333953  0.93726373  0.59843141  1.0
  C  C124  1  0.77049350  0.93108316  0.35301452  1.0
  C  C125  1  0.22947673  0.06892545  0.64699062  1.0
  C  C126  1  0.70836822  0.92998992  0.38507892  1.0
  C  C127  1  0.29159295  0.07001925  0.61492063  1.0
  C  C128  1  0.07168874  0.23837772  0.14998497  1.0
  C  C129  1  0.92826096  0.76148032  0.84993919  1.0
  C  C130  1  0.07214847  0.30032968  0.11843474  1.0
  C  C131  1  0.92780890  0.69951877  0.88149145  1.0
  C  C132  1  0.93034565  0.80533049  0.12424400  1.0
  C  C133  1  0.06997364  0.19491633  0.87559261  1.0
  C  C134  1  0.86522857  0.86660931  0.12094955  1.0
  C  C135  1  0.13540017  0.13392186  0.87870382  1.0
  C  C136  1  0.11661365  0.76439380  0.20038570  1.0
  C  C137  1  0.88288493  0.23511806  0.79995089  1.0
  C  C138  1  0.80029764  0.15671115  0.33408719  1.0
  C  C139  1  0.19966295  0.84329922  0.66591306  1.0
  C  C140  1  0.08024109  0.56110293  0.16129615  1.0
  C  C141  1  0.14750688  0.50115320  0.16336043  1.0
  C  C142  1  0.91897856  0.43846444  0.83880000  1.0
  C  C143  1  0.85158863  0.49828952  0.83689916  1.0
  C  C144  1  0.37418679  0.87210400  0.35986390  1.0
  C  C145  1  0.62578044  0.12790580  0.64013950  1.0
  O  O146  1  0.58640366  0.06613696  0.55036388  1.0
  O  O147  1  0.41355572  0.93387402  0.44963949  1.0
  O  O148  1  0.58514298  0.93301767  0.44985308  1.0
  O  O149  1  0.41481871  0.06698731  0.55014955  1.0
  O  O150  1  0.58562257  0.06971456  0.45132776  1.0
  O  O151  1  0.41433366  0.93028979  0.54866929  1.0
  O  O152  1  0.58776753  0.92961708  0.54855182  1.0
  O  O153  1  0.41218518  0.07039273  0.45145671  1.0
  O  O154  1  0.05943192  0.58937891  0.04721862  1.0
  O  O155  1  0.94062054  0.41056690  0.95282143  1.0
  O  O156  1  0.93176305  0.41921070  0.05155288  1.0
  O  O157  1  0.06821384  0.58082930  0.94848313  1.0
  O  O158  1  0.06955442  0.41968524  0.05230965  1.0
  O  O159  1  0.93042328  0.58024272  0.94765938  1.0
  O  O160  1  0.92184077  0.58999800  0.04671765  1.0
  O  O161  1  0.07820953  0.41005128  0.95325114  1.0
  O  O162  1  0.10978973  0.63129687  0.13747513  1.0
  O  O163  1  0.88978585  0.36828239  0.86277535  1.0
