# generated using pymatgen
data_Zn2H11C24N5O14
_symmetry_space_group_name_H-M   'P 1'
_cell_length_a   9.72380672
_cell_length_b   11.05757542
_cell_length_c   14.09659968
_cell_angle_alpha   91.58950987
_cell_angle_beta   95.75631500
_cell_angle_gamma   90.22719953
_symmetry_Int_Tables_number   1
_chemical_formula_structural   Zn2H11C24N5O14
_chemical_formula_sum   'Zn2 H11 C24 N5 O14'
_cell_volume   1507.43284100
_cell_formula_units_Z   1
loop_
 _symmetry_equiv_pos_site_id
 _symmetry_equiv_pos_as_xyz
  1  'x, y, z'
loop_
 _atom_site_type_symbol
 _atom_site_label
 _atom_site_symmetry_multiplicity
 _atom_site_fract_x
 _atom_site_fract_y
 _atom_site_fract_z
 _atom_site_occupancy
  Zn  Zn0  1  0.62598211  0.49037202  0.51715329  1.0
  Zn  Zn1  1  0.33979305  0.48932164  0.51034883  1.0
  H  H2  1  0.61109651  0.57426357  0.02705350  1.0
  H  H3  1  0.35352950  0.40710187  0.99958933  1.0
  H  H4  1  0.26024209  0.10016060  0.53702341  1.0
  H  H5  1  0.25970361  0.87544163  0.52578854  1.0
  H  H6  1  0.76870647  0.88590936  0.42017236  1.0
  H  H7  1  0.77613399  0.11100573  0.43885752  1.0
  H  H8  1  0.08636539  0.54684952  0.37286739  1.0
  H  H9  1  0.82767091  0.54701297  0.37855415  1.0
  H  H10  1  0.88629377  0.32998977  0.70464376  1.0
  H  H11  1  0.15954926  0.47582133  0.73833135  1.0
  H  H12  1  0.14370014  0.32240218  0.69235963  1.0
  C  C13  1  0.47938006  0.25553909  0.52512898  1.0
  C  C14  1  0.50643719  0.51024152  0.69919962  1.0
  C  C15  1  0.47705519  0.72414283  0.50546757  1.0
  C  C16  1  0.46455291  0.46985242  0.32794540  1.0
  C  C17  1  0.45332523  0.46409166  0.22527808  1.0
  C  C18  1  0.43732315  0.46019705  0.03834771  1.0
  C  C19  1  0.52728332  0.52112851  0.98838826  1.0
  C  C20  1  0.51922170  0.51861986  0.88861803  1.0
  C  C21  1  0.44664205  0.46235333  0.13828598  1.0
  C  C22  1  0.51485290  0.51622358  0.80177936  1.0
  C  C23  1  0.59696316  0.05326114  0.51594268  1.0
  C  C24  1  0.47777875  0.12056378  0.52454660  1.0
  C  C25  1  0.35643082  0.05230844  0.52916778  1.0
  C  C26  1  0.35597472  0.92550394  0.52267627  1.0
  C  C27  1  0.47672489  0.85901265  0.51184124  1.0
  C  C28  1  0.59679366  0.92780446  0.50986192  1.0
  C  C29  1  0.74671533  0.92023025  0.49059248  1.0
  C  C30  1  0.74716278  0.06420188  0.50149656  1.0
  C  C31  1  0.06882137  0.45910258  0.58850836  1.0
  C  C32  1  0.04071700  0.52152472  0.43703792  1.0
  C  C33  1  0.89753880  0.52256785  0.44030201  1.0
  C  C34  1  0.92671649  0.46217842  0.59225248  1.0
  C  C35  1  0.93634988  0.41646609  0.69304624  1.0
  C  C36  1  0.09947748  0.41341614  0.68825653  1.0
  N  N37  1  0.12951839  0.48797225  0.51181298  1.0
  N  N38  1  0.83742914  0.49153275  0.51903089  1.0
  N  N39  1  0.89810316  0.50655897  0.76875546  1.0
  N  N40  1  0.84565696  0.85445219  0.56163199  1.0
  N  N41  1  0.84195476  0.11751203  0.58450438  1.0
  O  O42  1  0.59310065  0.30513004  0.50900717  1.0
  O  O43  1  0.36812370  0.30987065  0.53973169  1.0
  O  O44  1  0.61778358  0.48698517  0.66179778  1.0
  O  O45  1  0.38784398  0.52806193  0.65493085  1.0
  O  O46  1  0.59547847  0.67469237  0.51849418  1.0
  O  O47  1  0.36114601  0.67042783  0.48842617  1.0
  O  O48  1  0.58478902  0.49174104  0.37019701  1.0
  O  O49  1  0.35394194  0.45304624  0.36763732  1.0
  O  O50  1  0.89962283  0.61466780  0.74948985  1.0
  O  O51  1  0.87493531  0.46401863  0.84561410  1.0
  O  O52  1  0.93269712  0.78904741  0.52754574  1.0
  O  O53  1  0.83337286  0.87203954  0.64686671  1.0
  O  O54  1  0.96617496  0.12444086  0.57169038  1.0
  O  O55  1  0.79049214  0.15219998  0.65663878  1.0
