# generated using pymatgen
data_AlH9C27(ClO)6
_symmetry_space_group_name_H-M   'P 1'
_cell_length_a   4.01375540
_cell_length_b   16.07831666
_cell_length_c   16.11614024
_cell_angle_alpha   60.07791409
_cell_angle_beta   89.65815961
_cell_angle_gamma   89.31438766
_symmetry_Int_Tables_number   1
_chemical_formula_structural   AlH9C27(ClO)6
_chemical_formula_sum   'Al1 H9 C27 Cl6 O6'
_cell_volume   901.34798419
_cell_formula_units_Z   1
loop_
 _symmetry_equiv_pos_site_id
 _symmetry_equiv_pos_as_xyz
  1  'x, y, z'
loop_
 _atom_site_type_symbol
 _atom_site_label
 _atom_site_symmetry_multiplicity
 _atom_site_fract_x
 _atom_site_fract_y
 _atom_site_fract_z
 _atom_site_occupancy
  Al  Al0  1  0.00001619  0.50011049  0.99987110  1.0
  H  H1  1  0.49989454  0.92199368  0.15613910  1.0
  H  H2  1  0.53326751  0.92209142  0.42244820  1.0
  H  H3  1  0.46681980  0.65555905  0.42241194  1.0
  H  H4  1  0.25905844  0.84330714  0.10157400  1.0
  H  H5  1  0.73302149  0.60090157  0.34314337  1.0
  H  H6  1  0.74084517  0.05521119  0.10160196  1.0
  H  H7  1  0.26714232  0.05606109  0.34319330  1.0
  H  H8  1  0.25551147  0.84271018  0.55522399  1.0
  H  H9  1  0.74451610  0.60214645  0.55520841  1.0
  C  C10  1  0.50319394  0.35266960  0.07426075  1.0
  C  C11  1  0.50002214  0.57364305  0.85277147  1.0
  C  C12  1  0.49683834  0.57317875  0.07424023  1.0
  C  C13  1  0.50504330  0.93466613  0.28302342  1.0
  C  C14  1  0.49991106  0.88300086  0.23410316  1.0
  C  C15  1  0.49485610  0.78243201  0.28300101  1.0
  C  C16  1  0.48911718  0.73341721  0.38335114  1.0
  C  C17  1  0.50000869  0.78280912  0.43447292  1.0
  C  C18  1  0.51086885  0.88330190  0.38336924  1.0
  C  C19  1  0.37494082  0.72146645  0.08654114  1.0
  C  C20  1  0.36863627  0.77157116  0.13637554  1.0
  C  C21  1  0.49408297  0.72923753  0.22993159  1.0
  C  C22  1  0.62212606  0.63528770  0.27206455  1.0
  C  C23  1  0.61792020  0.58489563  0.22246797  1.0
  C  C24  1  0.49630948  0.62690735  0.12854084  1.0
  C  C25  1  0.63133332  0.09214846  0.13641406  1.0
  C  C26  1  0.62508142  0.19208309  0.08657248  1.0
  C  C27  1  0.50375542  0.24465302  0.12857290  1.0
  C  C28  1  0.38218378  0.19273835  0.22250409  1.0
  C  C29  1  0.37797743  0.09274897  0.27211288  1.0
  C  C30  1  0.50591852  0.04092805  0.22996520  1.0
  C  C31  1  0.36747660  0.77129887  0.59198244  1.0
  C  C32  1  0.36779046  0.72158464  0.69171826  1.0
  C  C33  1  0.50000541  0.62724439  0.74558005  1.0
  C  C34  1  0.63224029  0.58676585  0.69170842  1.0
  C  C35  1  0.63251760  0.63680162  0.59197927  1.0
  C  C36  1  0.50002571  0.72986615  0.54032996  1.0
  Cl  Cl37  1  0.77021992  0.46855191  0.27828945  1.0
  Cl  Cl38  1  0.22497198  0.77734837  0.97075803  1.0
  Cl  Cl39  1  0.77499767  0.25198898  0.97078466  1.0
  Cl  Cl40  1  0.22988178  0.25326027  0.27832878  1.0
  Cl  Cl41  1  0.20730069  0.78418141  0.74450435  1.0
  Cl  Cl42  1  0.79270223  0.47138199  0.74448768  1.0
  O  O43  1  0.73360208  0.59064840  0.01542347  1.0
  O  O44  1  0.73874297  0.39401655  0.09111020  1.0
  O  O45  1  0.73826993  0.51488435  0.89530805  1.0
  O  O46  1  0.26134396  0.51499576  0.09110037  1.0
  O  O47  1  0.26174617  0.58987977  0.89531814  1.0
  O  O48  1  0.26645069  0.39401614  0.01544149  1.0
