# generated using pymatgen
data_Cu2H14C22N4O9
_symmetry_space_group_name_H-M   'P 1'
_cell_length_a   14.55530917
_cell_length_b   15.60815377
_cell_length_c   15.60835290
_cell_angle_alpha   112.73430465
_cell_angle_beta   95.96329216
_cell_angle_gamma   95.96315140
_symmetry_Int_Tables_number   1
_chemical_formula_structural   Cu2H14C22N4O9
_chemical_formula_sum   'Cu4 H28 C44 N8 O18'
_cell_volume   3212.38762601
_cell_formula_units_Z   2
loop_
 _symmetry_equiv_pos_site_id
 _symmetry_equiv_pos_as_xyz
  1  'x, y, z'
loop_
 _atom_site_type_symbol
 _atom_site_label
 _atom_site_symmetry_multiplicity
 _atom_site_fract_x
 _atom_site_fract_y
 _atom_site_fract_z
 _atom_site_occupancy
  Cu  Cu0  1  0.48765918  0.92545547  0.92545770  1.0
  Cu  Cu1  1  0.51233066  0.07444615  0.07444414  1.0
  Cu  Cu2  1  0.00000186  0.99999572  0.50000477  1.0
  Cu  Cu3  1  0.00000470  0.50000555  0.99999746  1.0
  H  H4  1  0.52084719  0.76078743  0.76078102  1.0
  H  H5  1  0.47915070  0.23916615  0.23919812  1.0
  H  H6  1  0.41217701  0.75475877  0.75475707  1.0
  H  H7  1  0.58781891  0.24520887  0.24523181  1.0
  H  H8  1  0.21330987  0.10617309  0.53324589  1.0
  H  H9  1  0.78666917  0.46675960  0.89382408  1.0
  H  H10  1  0.78667567  0.89382125  0.46675746  1.0
  H  H11  1  0.21331437  0.53323967  0.10616947  1.0
  H  H12  1  0.32123058  0.04169706  0.39017576  1.0
  H  H13  1  0.67876400  0.60983541  0.95831442  1.0
  H  H14  1  0.67876594  0.95830573  0.60983130  1.0
  H  H15  1  0.32123055  0.39016809  0.04168632  1.0
  H  H16  1  0.04502496  0.89044325  0.29810607  1.0
  H  H17  1  0.95497908  0.70188554  0.10954999  1.0
  H  H18  1  0.95497971  0.10954974  0.70188195  1.0
  H  H19  1  0.04502381  0.29810041  0.89043833  1.0
  H  H20  1  0.31734330  0.00630822  0.22710735  1.0
  H  H21  1  0.68266599  0.77292969  0.99371341  1.0
  H  H22  1  0.68266831  0.99370724  0.77292016  1.0
  H  H23  1  0.31734310  0.22709633  0.00630066  1.0
  H  H24  1  0.26567362  0.74907294  0.97742192  1.0
  H  H25  1  0.73434015  0.02260262  0.25096186  1.0
  H  H26  1  0.73433835  0.25095378  0.02259911  1.0
  H  H27  1  0.26567455  0.97741496  0.74906293  1.0
  H  H28  1  0.11920078  0.77014381  0.20785649  1.0
  H  H29  1  0.88079527  0.79214404  0.22986855  1.0
  H  H30  1  0.88079996  0.22986393  0.79214520  1.0
  H  H31  1  0.11920559  0.20785103  0.77013465  1.0
  C  C32  1  0.19489201  0.05212083  0.46256466  1.0
  C  C33  1  0.80509765  0.53743668  0.94787604  1.0
  C  C34  1  0.80510124  0.94787423  0.53743716  1.0
  C  C35  1  0.19489302  0.46256402  0.05211619  1.0
  C  C36  1  0.24849100  0.02131139  0.39262234  1.0
  C  C37  1  0.75150369  0.60738464  0.97869628  1.0
  C  C38  1  0.75150483  0.97869140  0.60738272  1.0
  C  C39  1  0.24848949  0.39261886  0.02130240  1.0
  C  C40  1  0.10543728  0.93963557  0.34299928  1.0
  C  C41  1  0.89455904  0.65699964  0.06036145  1.0
  C  C42  1  0.89456288  0.06035951  0.65699616  1.0
  C  C43  1  0.10543825  0.34299474  0.93962960  1.0
  C  C44  1  0.21427229  0.89524158  0.22742124  1.0
  C  C45  1  0.78573051  0.77258534  0.10476915  1.0
  C  C46  1  0.78573016  0.10476826  0.77258592  1.0
  C  C47  1  0.21427026  0.22741816  0.89523731  1.0
  C  C48  1  0.28100681  0.93444905  0.18964791  1.0
  C  C49  1  0.71900663  0.81037541  0.06556805  1.0
  C  C50  1  0.71900746  0.06556572  0.81036998  1.0
  C  C51  1  0.28100694  0.18963937  0.93444338  1.0
  C  C52  1  0.30096049  0.88084033  0.10027713  1.0
  C  C53  1  0.69905236  0.89975260  0.11918411  1.0
  C  C54  1  0.69905039  0.11917935  0.89974682  1.0
  C  C55  1  0.30095906  0.10027061  0.88083101  1.0
  C  C56  1  0.25229188  0.78993203  0.04800578  1.0
  C  C57  1  0.74770807  0.95201416  0.21008960  1.0
  C  C58  1  0.74770714  0.21008694  0.95201099  1.0
  C  C59  1  0.25229306  0.04800059  0.78992574  1.0
  C  C60  1  0.18564908  0.75097611  0.08662418  1.0
  C  C61  1  0.81434587  0.91337647  0.24903772  1.0
  C  C62  1  0.81434642  0.24903795  0.91337753  1.0
  C  C63  1  0.18564989  0.08662139  0.75097440  1.0
  C  C64  1  0.16821272  0.80306632  0.17724127  1.0
  C  C65  1  0.83178581  0.82276001  0.19694802  1.0
  C  C66  1  0.83178671  0.19694633  0.82276092  1.0
  C  C67  1  0.16821181  0.17723646  0.80305925  1.0
  C  C68  1  0.37424910  0.92359135  0.06152445  1.0
  C  C69  1  0.62575655  0.93847336  0.07640181  1.0
  C  C70  1  0.62575587  0.07639460  0.93846791  1.0
  C  C71  1  0.37424848  0.06151752  0.92358479  1.0
  C  C72  1  0.13131313  0.65347419  0.02995809  1.0
  C  C73  1  0.86868762  0.97005587  0.34654012  1.0
  C  C74  1  0.86868514  0.34653985  0.97005990  1.0
  C  C75  1  0.13131224  0.02995958  0.65347281  1.0
  N  N76  1  0.10598435  0.00074821  0.43042735  1.0
  N  N77  1  0.89401189  0.56956839  0.99924095  1.0
  N  N78  1  0.89401207  0.99924053  0.56956912  1.0
  N  N79  1  0.10598434  0.43042810  0.00074569  1.0
  N  N80  1  0.19100940  0.94934722  0.31703245  1.0
  N  N81  1  0.80899165  0.68296981  0.05065966  1.0
  N  N82  1  0.80899079  0.05065700  0.68296911  1.0
  N  N83  1  0.19100534  0.31703159  0.94934050  1.0
  O  O84  1  0.41381834  0.00734714  0.11427103  1.0
  O  O85  1  0.58618992  0.88570675  0.99266331  1.0
  O  O86  1  0.58618552  0.99265853  0.88570261  1.0
  O  O87  1  0.41382080  0.11426723  0.00733651  1.0
  O  O88  1  0.39106291  0.87304030  0.98023491  1.0
  O  O89  1  0.60893264  0.01977401  0.12693465  1.0
  O  O90  1  0.60893764  0.12692591  0.01977053  1.0
  O  O91  1  0.39105977  0.98022460  0.87303644  1.0
  O  O92  1  0.13511943  0.61236815  0.94496741  1.0
  O  O93  1  0.86486483  0.05504297  0.38762792  1.0
  O  O94  1  0.86486248  0.38763391  0.05504628  1.0
  O  O95  1  0.13511503  0.94496826  0.61236670  1.0
  O  O96  1  0.08161998  0.62064967  0.07900749  1.0
  O  O97  1  0.91838630  0.92101203  0.37935550  1.0
  O  O98  1  0.91838757  0.37935734  0.92101764  1.0
  O  O99  1  0.08162200  0.07901330  0.62065246  1.0
  O  O100  1  0.47147858  0.79149719  0.79150061  1.0
  O  O101  1  0.52852208  0.20849232  0.20844980  1.0
