# generated using pymatgen
data_Zn4H14C35O17
_symmetry_space_group_name_H-M   'P 1'
_cell_length_a   16.12982350
_cell_length_b   16.13511715
_cell_length_c   19.55920991
_cell_angle_alpha   89.09211675
_cell_angle_beta   83.47057674
_cell_angle_gamma   83.19772919
_symmetry_Int_Tables_number   1
_chemical_formula_structural   Zn4H14C35O17
_chemical_formula_sum   'Zn4 H14 C35 O17'
_cell_volume   5021.78029874
_cell_formula_units_Z   1
loop_
 _symmetry_equiv_pos_site_id
 _symmetry_equiv_pos_as_xyz
  1  'x, y, z'
loop_
 _atom_site_type_symbol
 _atom_site_label
 _atom_site_symmetry_multiplicity
 _atom_site_fract_x
 _atom_site_fract_y
 _atom_site_fract_z
 _atom_site_occupancy
  Zn  Zn0  1  0.42894944  0.57384680  0.44193496  1.0
  Zn  Zn1  1  0.42790425  0.43798011  0.56628660  1.0
  Zn  Zn2  1  0.56037620  0.57005549  0.55318985  1.0
  Zn  Zn3  1  0.57665501  0.42208721  0.44098504  1.0
  H  H4  1  0.45722331  0.61710866  0.22964800  1.0
  H  H5  1  0.60224366  0.37622713  0.22868318  1.0
  H  H6  1  0.42004881  0.38638049  0.95602568  1.0
  H  H7  1  0.98084455  0.37244989  0.39717366  1.0
  H  H8  1  0.69839311  0.48445914  0.02021237  1.0
  H  H9  1  0.43680431  0.69320937  0.13333353  1.0
  H  H10  1  0.43560570  0.01099573  0.44676035  1.0
  H  H11  1  0.56433588  0.99018033  0.55336227  1.0
  H  H12  1  0.98612783  0.56189659  0.54985244  1.0
  H  H13  1  0.56267580  0.61133393  0.76331574  1.0
  H  H14  1  0.40804535  0.40985142  0.77780801  1.0
  H  H15  1  0.43269502  0.50025431  0.01090079  1.0
  H  H16  1  0.62065921  0.37771699  0.10054698  1.0
  H  H17  1  0.56798916  0.60410319  0.89056906  1.0
  C  C18  1  0.51142696  0.27584602  0.51066805  1.0
  C  C19  1  0.56230143  0.49577449  0.01557560  1.0
  C  C20  1  0.49421063  0.49852166  0.98002326  1.0
  C  C21  1  0.48847221  0.72584671  0.48968406  1.0
  C  C22  1  0.48563782  0.51058122  0.76304860  1.0
  C  C23  1  0.51585529  0.18613312  0.51440526  1.0
  C  C24  1  0.52252583  0.02301500  0.51891205  1.0
  C  C25  1  0.47754420  0.97824762  0.48110078  1.0
  C  C26  1  0.48226738  0.89100375  0.48420636  1.0
  C  C27  1  0.51853883  0.11022667  0.51635031  1.0
  C  C28  1  0.48509983  0.81508128  0.48601544  1.0
  C  C29  1  0.55142302  0.49938719  0.09166149  1.0
  C  C30  1  0.18422787  0.51618609  0.51191361  1.0
  C  C31  1  0.02201640  0.51678783  0.51330325  1.0
  C  C32  1  0.97823107  0.46944492  0.47547014  1.0
  C  C33  1  0.27392999  0.51314009  0.50956351  1.0
  C  C34  1  0.88978672  0.47804000  0.48262855  1.0
  C  C35  1  0.10912647  0.51292205  0.50968330  1.0
  C  C36  1  0.81359644  0.48090272  0.48485628  1.0
  C  C37  1  0.72351986  0.48609493  0.48884629  1.0
  C  C38  1  0.48619966  0.51072769  0.68680262  1.0
  C  C39  1  0.51467011  0.49428921  0.31397080  1.0
  C  C40  1  0.58599569  0.43117841  0.12870508  1.0
  C  C41  1  0.52706493  0.49582196  0.23707567  1.0
  C  C42  1  0.49294233  0.56460251  0.20089972  1.0
  C  C43  1  0.50655808  0.56845056  0.12897363  1.0
  C  C44  1  0.02289629  0.40689406  0.42470748  1.0
  C  C45  1  0.65113010  0.47903667  0.98337540  1.0
  C  C46  1  0.47986953  0.65011180  0.09726064  1.0
  C  C47  1  0.57494092  0.42939104  0.20037636  1.0
  C  C48  1  0.53418873  0.56126052  0.86504512  1.0
  C  C49  1  0.53065095  0.56591059  0.79468887  1.0
  C  C50  1  0.44245432  0.45293452  0.80241232  1.0
  C  C51  1  0.44593394  0.44889749  0.87330869  1.0
  C  C52  1  0.49295441  0.50230155  0.90562608  1.0
  O  O53  1  0.49813437  0.50035290  0.49988985  1.0
  O  O54  1  0.44206681  0.46051137  0.66150334  1.0
  O  O55  1  0.55814836  0.43601881  0.34356781  1.0
  O  O56  1  0.53153470  0.56019879  0.65241182  1.0
  O  O57  1  0.46206595  0.55163066  0.34343237  1.0
  O  O58  1  0.40470861  0.38948811  0.90917169  1.0
  O  O59  1  0.09941638  0.39372617  0.41348395  1.0
  O  O60  1  0.67402321  0.45829052  0.92369707  1.0
  O  O61  1  0.50361148  0.67326232  0.03921308  1.0
  O  O62  1  0.30912386  0.55921393  0.46423754  1.0
  O  O63  1  0.69429206  0.43821573  0.44839327  1.0
  O  O64  1  0.45557296  0.31637504  0.55260286  1.0
  O  O65  1  0.53929083  0.68869082  0.52891256  1.0
  O  O66  1  0.56386836  0.30497098  0.46552038  1.0
  O  O67  1  0.44021466  0.69245622  0.45339964  1.0
  O  O68  1  0.30816949  0.46449991  0.55292420  1.0
  O  O69  1  0.68228640  0.53795999  0.53228276  1.0
