# generated using pymatgen
data_Zr3H5C27S5O18F5
_symmetry_space_group_name_H-M   'P 1'
_cell_length_a   16.44939428
_cell_length_b   16.44872763
_cell_length_c   16.46199795
_cell_angle_alpha   119.70692845
_cell_angle_beta   119.70162219
_cell_angle_gamma   88.75186660
_symmetry_Int_Tables_number   1
_chemical_formula_structural   Zr3H5C27S5O18F5
_chemical_formula_sum   'Zr6 H10 C54 S10 O36 F10'
_cell_volume   3209.26164465
_cell_formula_units_Z   2
loop_
 _symmetry_equiv_pos_site_id
 _symmetry_equiv_pos_as_xyz
  1  'x, y, z'
loop_
 _atom_site_type_symbol
 _atom_site_label
 _atom_site_symmetry_multiplicity
 _atom_site_fract_x
 _atom_site_fract_y
 _atom_site_fract_z
 _atom_site_occupancy
  Zr  Zr0  1  0.90296510  0.40359327  0.51555756  1.0
  Zr  Zr1  1  0.10184531  0.60239061  0.48986222  1.0
  Zr  Zr2  1  0.89340344  0.39384489  0.29146733  1.0
  Zr  Zr3  1  0.11165434  0.61205468  0.71403975  1.0
  Zr  Zr4  1  0.89330976  0.61222513  0.50280757  1.0
  Zr  Zr5  1  0.11162666  0.39375942  0.50277363  1.0
  H  H6  1  0.75274684  0.42482142  0.34665958  1.0
  H  H7  1  0.08065119  0.75275600  0.65886326  1.0
  H  H8  1  0.08140250  0.41036987  0.32702899  1.0
  H  H9  1  0.09484901  0.42394211  0.67837289  1.0
  H  H10  1  0.63640628  0.13400676  0.03168477  1.0
  H  H11  1  0.64991889  0.15140419  0.30663225  1.0
  H  H12  1  0.37118209  0.86915447  0.97325199  1.0
  H  H13  1  0.35420403  0.85512661  0.69828320  1.0
  H  H14  1  0.63707655  0.00229079  0.89791611  1.0
  H  H15  1  0.50282711  0.86835131  0.10676162  1.0
  C  C16  1  0.73975425  0.51730655  0.52215763  1.0
  C  C17  1  0.98781781  0.76535408  0.48267270  1.0
  C  C18  1  0.27217234  0.49556657  0.49757927  1.0
  C  C19  1  0.00951874  0.23312807  0.50762032  1.0
  C  C20  1  0.73982264  0.23617196  0.25506860  1.0
  C  C21  1  0.00606039  0.51469571  0.78234004  1.0
  C  C22  1  0.26932516  0.76544701  0.75000915  1.0
  C  C23  1  0.99093646  0.49930461  0.22320555  1.0
  C  C24  1  0.73087943  0.50466157  0.23156176  1.0
  C  C25  1  0.99602788  0.22284695  0.23246800  1.0
  C  C26  1  0.28235234  0.50914152  0.77312968  1.0
  C  C27  1  0.00078061  0.77443179  0.77413689  1.0
  C  C28  1  0.42310348  0.43859735  0.51085262  1.0
  C  C29  1  0.59205747  0.57756405  0.51604551  1.0
  C  C30  1  0.36414685  0.49976868  0.50425899  1.0
  C  C31  1  0.65056704  0.51592589  0.52156653  1.0
  C  C32  1  0.50905959  0.55022247  0.51242630  1.0
  C  C33  1  0.50662443  0.46636980  0.51543477  1.0
  C  C34  1  0.92708346  0.91263617  0.48795089  1.0
  C  C35  1  0.06606116  0.08183779  0.49336463  1.0
  C  C36  1  0.98873066  0.85414865  0.48242324  1.0
  C  C37  1  0.00499755  0.14086430  0.50033001  1.0
  C  C38  1  0.03812896  0.99806180  0.48831092  1.0
  C  C39  1  0.95433870  0.99559305  0.49145394  1.0
  C  C40  1  0.92676677  0.07993539  0.02751310  1.0
  C  C41  1  0.06473416  0.91114189  0.97974810  1.0
  C  C42  1  0.99434016  0.13251046  0.14349289  1.0
  C  C43  1  0.99813526  0.85983653  0.86364731  1.0
  C  C44  1  0.03937481  0.99142255  0.04034079  1.0
  C  C45  1  0.95153772  0.99910907  0.96694281  1.0
  C  C46  1  0.59373156  0.44031322  0.02603296  1.0
  C  C47  1  0.42455216  0.57793748  0.97820608  1.0
  C  C48  1  0.64502938  0.50694542  0.14211481  1.0
  C  C49  1  0.37233153  0.51055924  0.86220416  1.0
  C  C50  1  0.50527377  0.55309412  0.03881882  1.0
  C  C51  1  0.51320043  0.46542709  0.96544863  1.0
  C  C52  1  0.60750342  0.10190126  0.05973364  1.0
  C  C53  1  0.61517351  0.11261161  0.21603636  1.0
  C  C54  1  0.53522461  0.03023432  0.14275848  1.0
  C  C55  1  0.48789168  0.98012883  0.02340551  1.0
  C  C56  1  0.40341338  0.89792694  0.94519953  1.0
  C  C57  1  0.39293985  0.88991218  0.78887348  1.0
  C  C58  1  0.47528341  0.96989428  0.86211330  1.0
  C  C59  1  0.52529773  0.01738639  0.98148193  1.0
  C  C60  1  0.65231714  0.14774322  0.17447785  1.0
  C  C61  1  0.35773442  0.85290282  0.83045864  1.0
  C  C62  1  0.05562006  0.57029212  0.15150441  1.0
  C  C63  1  0.93520023  0.45001454  0.85415741  1.0
  C  C64  1  0.99009893  0.50366854  0.13612748  1.0
  C  C65  1  0.00176055  0.51553802  0.86947563  1.0
  C  C66  1  0.95381249  0.46954061  0.95638936  1.0
  C  C67  1  0.03602006  0.55174188  0.04926941  1.0
  C  C68  1  0.50542834  0.00538695  0.80976196  1.0
  C  C69  1  0.49962095  0.99994935  0.19495876  1.0
  S  S70  1  0.41090480  0.59363983  0.50395522  1.0
  S  S71  1  0.60421893  0.42237848  0.52258630  1.0
  S  S72  1  0.08214839  0.90046849  0.48118349  1.0
  S  S73  1  0.91109884  0.09395046  0.50046721  1.0
  S  S74  1  0.09009078  0.08178131  0.18033806  1.0
  S  S75  1  0.90175882  0.90984942  0.82680660  1.0
  S  S76  1  0.59465164  0.60302345  0.17894981  1.0
  S  S77  1  0.42317038  0.41490159  0.82541649  1.0
  S  S78  1  0.90191629  0.41657054  0.99406546  1.0
  S  S79  1  0.08889652  0.60370327  0.01155386  1.0
  O  O80  1  0.77733007  0.44919167  0.52563783  1.0
  O  O81  1  0.05603422  0.72788264  0.47942383  1.0
  O  O82  1  0.23333739  0.56228929  0.49117562  1.0
  O  O83  1  0.94289691  0.27207665  0.51417143  1.0
  O  O84  1  0.76981666  0.26655982  0.21402871  1.0
  O  O85  1  0.07454745  0.58074842  0.81381634  1.0
  O  O86  1  0.23907333  0.73543703  0.79112722  1.0
  O  O87  1  0.92483639  0.43087201  0.19173423  1.0
  O  O88  1  0.76346887  0.57414582  0.33330101  1.0
  O  O89  1  0.06754768  0.25768914  0.33398155  1.0
  O  O90  1  0.24766253  0.43771518  0.67160557  1.0
  O  O91  1  0.93137248  0.74194680  0.67240374  1.0
  O  O92  1  0.92687934  0.25999327  0.20068740  1.0
  O  O93  1  0.24534962  0.57846543  0.80482487  1.0
  O  O94  1  0.07291337  0.74043973  0.80546488  1.0
  O  O95  1  0.76512729  0.43276401  0.20018485  1.0
  O  O96  1  0.77711123  0.27481002  0.35965569  1.0
  O  O97  1  0.06019229  0.56495253  0.32471025  1.0
  O  O98  1  0.23054569  0.72819511  0.64539389  1.0
  O  O99  1  0.94035971  0.44547594  0.68083108  1.0
  O  O100  1  0.07866765  0.26733378  0.50783320  1.0
  O  O101  1  0.77130483  0.58368929  0.51686116  1.0
  O  O102  1  0.92171071  0.73407965  0.48851925  1.0
  O  O103  1  0.23808511  0.42661477  0.49772593  1.0
  O  O104  1  0.06955486  0.44701997  0.62906126  1.0
  O  O105  1  0.05841359  0.43577973  0.37642696  1.0
  O  O106  1  0.05821118  0.68173728  0.61419039  1.0
  O  O107  1  0.82376043  0.44728441  0.39131823  1.0
  O  O108  1  0.95313358  0.54407261  0.40986356  1.0
  O  O109  1  0.96141081  0.55233679  0.59564656  1.0
  O  O110  1  0.13433319  0.54409485  0.58505201  1.0
  O  O111  1  0.96128500  0.37104486  0.42039022  1.0
  O  O112  1  0.60119972  0.01934551  0.84319135  1.0
  O  O113  1  0.44814414  0.01910338  0.73842864  1.0
  O  O114  1  0.48579871  0.90416211  0.16152598  1.0
  O  O115  1  0.48572146  0.05711878  0.26616824  1.0
  F  F116  1  0.40428076  0.36072558  0.51252646  1.0
  F  F117  1  0.61036232  0.65520716  0.51359463  1.0
  F  F118  1  0.84957952  0.89444268  0.49065724  1.0
  F  F119  1  0.14394707  0.10083446  0.49178910  1.0
  F  F120  1  0.84523722  0.10190320  0.97558407  1.0
  F  F121  1  0.14585359  0.88895363  0.03151144  1.0
  F  F122  1  0.61622147  0.35942633  0.97427698  1.0
  F  F123  1  0.40249647  0.65940185  0.03012316  1.0
  F  F124  1  0.13101911  0.64493409  0.25184982  1.0
  F  F125  1  0.86048783  0.37464389  0.75383275  1.0
