# generated using pymatgen
data_ZnH12C25NO10
_symmetry_space_group_name_H-M   'P 1'
_cell_length_a   14.12482118
_cell_length_b   20.45529143
_cell_length_c   22.46652297
_cell_angle_alpha   90.20968237
_cell_angle_beta   93.24457993
_cell_angle_gamma   92.18187416
_symmetry_Int_Tables_number   1
_chemical_formula_structural   ZnH12C25NO10
_chemical_formula_sum   'Zn4 H48 C100 N4 O40'
_cell_volume   6475.97890013
_cell_formula_units_Z   4
loop_
 _symmetry_equiv_pos_site_id
 _symmetry_equiv_pos_as_xyz
  1  'x, y, z'
loop_
 _atom_site_type_symbol
 _atom_site_label
 _atom_site_symmetry_multiplicity
 _atom_site_fract_x
 _atom_site_fract_y
 _atom_site_fract_z
 _atom_site_occupancy
  Zn  Zn0  1  0.60306158  0.99883792  0.50346821  1.0
  Zn  Zn1  1  0.39099353  0.99761617  0.49735313  1.0
  Zn  Zn2  1  0.60873879  0.49988274  0.00328417  1.0
  Zn  Zn3  1  0.39463680  0.49724203  0.99814301  1.0
  H  H4  1  0.27210108  0.83158743  0.23848095  1.0
  H  H5  1  0.71560463  0.15209566  0.76905057  1.0
  H  H6  1  0.26593615  0.17922488  0.25503211  1.0
  H  H7  1  0.72780451  0.82433602  0.74979809  1.0
  H  H8  1  0.28471917  0.33472409  0.73997745  1.0
  H  H9  1  0.70889400  0.65573721  0.26753511  1.0
  H  H10  1  0.26617386  0.65643018  0.74585701  1.0
  H  H11  1  0.73224541  0.34032854  0.25743454  1.0
  H  H12  1  0.91573211  0.16146994  0.47102200  1.0
  H  H13  1  0.07829446  0.83520068  0.53021509  1.0
  H  H14  1  0.90235613  0.83268559  0.51778406  1.0
  H  H15  1  0.09167156  0.16397628  0.48302070  1.0
  H  H16  1  0.92878714  0.64602753  0.07206017  1.0
  H  H17  1  0.07503500  0.34892167  0.93363103  1.0
  H  H18  1  0.89904232  0.34867924  0.93442446  1.0
  H  H19  1  0.10462558  0.64619528  0.07143648  1.0
  H  H20  1  0.68873727  0.09434756  0.70933187  1.0
  H  H21  1  0.30136080  0.89345931  0.29473443  1.0
  H  H22  1  0.65067538  0.91555914  0.63133048  1.0
  H  H23  1  0.34295109  0.08443867  0.37150601  1.0
  H  H24  1  0.69021287  0.60330737  0.20319703  1.0
  H  H25  1  0.30729923  0.38986211  0.80276769  1.0
  H  H26  1  0.65816121  0.42956498  0.13665835  1.0
  H  H27  1  0.34476209  0.56424703  0.86410437  1.0
  H  H28  1  0.37769155  0.17717346  0.59853012  1.0
  H  H29  1  0.61642642  0.81716348  0.40533039  1.0
  H  H30  1  0.34997971  0.83421410  0.61927382  1.0
  H  H31  1  0.64490831  0.16302151  0.38331727  1.0
  H  H32  1  0.37807104  0.68589944  0.09183780  1.0
  H  H33  1  0.62056073  0.30668317  0.91205856  1.0
  H  H34  1  0.35491674  0.35693349  0.12755804  1.0
  H  H35  1  0.64373166  0.64515873  0.87662603  1.0
  H  H36  1  0.28418423  0.23394587  0.61620890  1.0
  H  H37  1  0.70545539  0.75551968  0.39168338  1.0
  H  H38  1  0.20018894  0.71749481  0.67000060  1.0
  H  H39  1  0.79659663  0.27882952  0.33352265  1.0
  H  H40  1  0.26993153  0.72496145  0.11878998  1.0
  H  H41  1  0.71958198  0.25632691  0.89047979  1.0
  H  H42  1  0.20165666  0.24042131  0.17879884  1.0
  H  H43  1  0.79323900  0.76440545  0.82650604  1.0
  H  H44  1  0.67552483  0.89060232  0.47952728  1.0
  H  H45  1  0.31872239  0.10574882  0.52127101  1.0
  H  H46  1  0.68422415  0.09714507  0.45519121  1.0
  H  H47  1  0.30959092  0.89932332  0.54592506  1.0
  H  H48  1  0.67586858  0.40214417  0.95109059  1.0
  H  H49  1  0.32862508  0.59492097  0.04983785  1.0
  H  H50  1  0.69854088  0.59489963  0.05843356  1.0
  H  H51  1  0.30503651  0.39981230  0.94669982  1.0
  C  C52  1  0.49650319  0.08383611  0.41082437  1.0
  C  C53  1  0.49734054  0.91375385  0.59095435  1.0
  C  C54  1  0.48661066  0.90169801  0.42512133  1.0
  C  C55  1  0.50733992  0.09333729  0.57693322  1.0
  C  C56  1  0.49870574  0.56716509  0.90478601  1.0
  C  C57  1  0.50361288  0.43073740  0.09748990  1.0
  C  C58  1  0.49139579  0.39228703  0.93207477  1.0
  C  C59  1  0.51075660  0.60344742  0.07041073  1.0
  C  C60  1  0.58052503  0.13696598  0.67554888  1.0
  C  C61  1  0.41074154  0.85290953  0.32914749  1.0
  C  C62  1  0.58142429  0.85230872  0.67349143  1.0
  C  C63  1  0.41256164  0.14822621  0.33020929  1.0
  C  C64  1  0.57885103  0.64401544  0.17082302  1.0
  C  C65  1  0.41833863  0.34794918  0.83446640  1.0
  C  C66  1  0.58631957  0.37030488  0.18155034  1.0
  C  C67  1  0.41338560  0.62733384  0.82135233  1.0
  C  C68  1  0.50793208  0.13770262  0.62971793  1.0
  C  C69  1  0.48474182  0.85466414  0.37419242  1.0
  C  C70  1  0.49744203  0.86332674  0.63774240  1.0
  C  C71  1  0.49670560  0.13559836  0.36524204  1.0
  C  C72  1  0.50789937  0.64546519  0.12407710  1.0
  C  C73  1  0.49085782  0.34730259  0.88015256  1.0
  C  C74  1  0.50253434  0.38247018  0.14624663  1.0
  C  C75  1  0.49745058  0.61648355  0.85690799  1.0
  C  C76  1  0.43252760  0.17942124  0.63477872  1.0
  C  C77  1  0.56036307  0.81296197  0.36991372  1.0
  C  C78  1  0.41435210  0.82551448  0.64644085  1.0
  C  C79  1  0.58039216  0.17278468  0.35669755  1.0
  C  C80  1  0.43038717  0.68541648  0.12938769  1.0
  C  C81  1  0.56657969  0.30573646  0.87533040  1.0
  C  C82  1  0.41807047  0.34663987  0.15538672  1.0
  C  C83  1  0.58038630  0.65444424  0.84862912  1.0
  C  C84  1  0.42700696  0.22144330  0.68346335  1.0
  C  C85  1  0.56527549  0.76915583  0.32249165  1.0
  C  C86  1  0.41304886  0.77605198  0.68894421  1.0
  C  C87  1  0.58237109  0.22283043  0.31480278  1.0
  C  C88  1  0.42148236  0.72455841  0.17956469  1.0
  C  C89  1  0.57221648  0.26413889  0.82638364  1.0
  C  C90  1  0.41527784  0.29746908  0.19821290  1.0
  C  C91  1  0.58155618  0.70402215  0.80621714  1.0
  C  C92  1  0.50104983  0.22174487  0.72968474  1.0
  C  C93  1  0.49086323  0.76738342  0.27648273  1.0
  C  C94  1  0.49707058  0.76498026  0.72561434  1.0
  C  C95  1  0.49836189  0.23527995  0.27860604  1.0
  C  C96  1  0.49508490  0.72543662  0.22606393  1.0
  C  C97  1  0.49809110  0.26372415  0.78019491  1.0
  C  C98  1  0.49910561  0.28533391  0.23470360  1.0
  C  C99  1  0.49749405  0.71493296  0.76952258  1.0
  C  C100  1  0.57859344  0.17952085  0.72555199  1.0
  C  C101  1  0.41229224  0.80870503  0.28031255  1.0
  C  C102  1  0.58132207  0.80386453  0.71843613  1.0
  C  C103  1  0.41320106  0.19741926  0.28593641  1.0
  C  C104  1  0.57420621  0.68464368  0.22184998  1.0
  C  C105  1  0.42029994  0.30579109  0.78432771  1.0
  C  C106  1  0.58470916  0.32262047  0.22699569  1.0
  C  C107  1  0.41316759  0.67605670  0.77669711  1.0
  C  C108  1  0.34937714  0.26413045  0.68957413  1.0
  C  C109  1  0.64296739  0.72632228  0.31718663  1.0
  C  C110  1  0.32978222  0.73514976  0.69740125  1.0
  C  C111  1  0.66658525  0.26273840  0.30632346  1.0
  C  C112  1  0.34042900  0.76386154  0.18687934  1.0
  C  C113  1  0.65052115  0.22209349  0.81984443  1.0
  C  C114  1  0.33119600  0.25742201  0.20666449  1.0
  C  C115  1  0.66445154  0.74540553  0.79817641  1.0
  C  C116  1  0.33687971  0.80462654  0.23520847  1.0
  C  C117  1  0.65275266  0.18128281  0.77144467  1.0
  C  C118  1  0.33003913  0.20937603  0.24902005  1.0
  C  C119  1  0.66451886  0.79335939  0.75577424  1.0
  C  C120  1  0.34675067  0.30467669  0.73814648  1.0
  C  C121  1  0.64671182  0.68575421  0.26870416  1.0
  C  C122  1  0.32972480  0.68708984  0.73968248  1.0
  C  C123  1  0.66786894  0.31063590  0.26393427  1.0
  C  C124  1  0.79411426  0.93940220  0.49528511  1.0
  C  C125  1  0.20004084  0.05712562  0.50554037  1.0
  C  C126  1  0.79877841  0.05315462  0.48108229  1.0
  C  C127  1  0.19525912  0.94337328  0.51981303  1.0
  C  C128  1  0.79756314  0.44666870  0.97873223  1.0
  C  C129  1  0.20621865  0.54897108  0.02552860  1.0
  C  C130  1  0.80797904  0.54867018  0.02831623  1.0
  C  C131  1  0.19558853  0.44690384  0.97606064  1.0
  C  C132  1  0.89920182  0.05698739  0.48623353  1.0
  C  C133  1  0.09483638  0.93963238  0.51475844  1.0
  C  C134  1  0.89402382  0.93727165  0.50231032  1.0
  C  C135  1  0.10012242  0.05933251  0.49854750  1.0
  C  C136  1  0.90791152  0.55127257  0.02830113  1.0
  C  C137  1  0.09572722  0.44394200  0.97689766  1.0
  C  C138  1  0.89694294  0.44370453  0.97807206  1.0
  C  C139  1  0.10691646  0.55143664  0.02726459  1.0
  C  C140  1  0.94634077  0.99780887  0.49776359  1.0
  C  C141  1  0.04776053  0.99882511  0.50315576  1.0
  C  C142  1  0.95162774  0.49752156  0.00299848  1.0
  C  C143  1  0.05213967  0.49759593  0.00242502  1.0
  C  C144  1  0.95353386  0.11694490  0.48047740  1.0
  C  C145  1  0.04052175  0.87970040  0.52060753  1.0
  C  C146  1  0.94349904  0.87839400  0.51377678  1.0
  C  C147  1  0.05058870  0.11823530  0.48715426  1.0
  C  C148  1  0.96445675  0.60525326  0.05313686  1.0
  C  C149  1  0.03929208  0.38970898  0.95246609  1.0
  C  C150  1  0.94260954  0.38962991  0.95300455  1.0
  C  C151  1  0.06115998  0.60527375  0.05268472  1.0
  N  N152  1  0.74841647  0.99620039  0.48845430  1.0
  N  N153  1  0.24565370  0.00027705  0.51234546  1.0
  N  N154  1  0.75422928  0.49767938  0.00362726  1.0
  N  N155  1  0.24934283  0.49832112  0.99987085  1.0
  O  O156  1  0.57539121  0.06608246  0.43553864  1.0
  O  O157  1  0.41834197  0.93078755  0.56591274  1.0
  O  O158  1  0.57792945  0.93935142  0.57716212  1.0
  O  O159  1  0.41588906  0.05773417  0.42396459  1.0
  O  O160  1  0.40892026  0.92293196  0.44061650  1.0
  O  O161  1  0.58541554  0.07328398  0.56091593  1.0
  O  O162  1  0.42551026  0.07767787  0.55099973  1.0
  O  O163  1  0.56879264  0.91830872  0.45005604  1.0
  O  O164  1  0.57777402  0.55284225  0.93006776  1.0
  O  O165  1  0.42517314  0.44931405  0.07427704  1.0
  O  O166  1  0.58573794  0.45110619  0.08059099  1.0
  O  O167  1  0.41773213  0.54139346  0.91892736  1.0
  O  O168  1  0.41413399  0.40964719  0.95233862  1.0
  O  O169  1  0.58922791  0.58378840  0.05383798  1.0
  O  O170  1  0.43239406  0.58718951  0.04149726  1.0
  O  O171  1  0.57167937  0.41316509  0.95553613  1.0
  O  O172  1  0.65049794  0.09365741  0.67181843  1.0
  O  O173  1  0.33988195  0.89564727  0.33214102  1.0
  O  O174  1  0.66329719  0.88713855  0.66696156  1.0
  O  O175  1  0.33010421  0.11410676  0.33674217  1.0
  O  O176  1  0.65049977  0.60208682  0.16628394  1.0
  O  O177  1  0.34855040  0.39139392  0.83903177  1.0
  O  O178  1  0.66959063  0.40316123  0.17367588  1.0
  O  O179  1  0.33172366  0.59221323  0.82820372  1.0
  O  O180  1  0.27556624  0.26554438  0.64780040  1.0
  O  O181  1  0.71595130  0.72500707  0.35954672  1.0
  O  O182  1  0.25199002  0.74770636  0.66042836  1.0
  O  O183  1  0.74409304  0.24926892  0.34320602  1.0
  O  O184  1  0.26468105  0.76142131  0.14633875  1.0
  O  O185  1  0.72526820  0.22177532  0.86107426  1.0
  O  O186  1  0.25388668  0.27040471  0.16949181  1.0
  O  O187  1  0.74193071  0.73353901  0.83557124  1.0
  O  O188  1  0.74170476  0.88310117  0.49539571  1.0
  O  O189  1  0.25259352  0.11336967  0.50547885  1.0
  O  O190  1  0.75219324  0.10747336  0.46864482  1.0
  O  O191  1  0.24177504  0.88900726  0.53222421  1.0
  O  O192  1  0.74689207  0.39647548  0.95351072  1.0
  O  O193  1  0.25725415  0.59924930  0.05032488  1.0
  O  O194  1  0.76890501  0.59903517  0.05382074  1.0
  O  O195  1  0.23434680  0.39651324  0.95047784  1.0
