# generated using pymatgen
data_Zn2H35C46N3O13
_symmetry_space_group_name_H-M   'P 1'
_cell_length_a   13.34148690
_cell_length_b   13.95270453
_cell_length_c   15.27241766
_cell_angle_alpha   90.25532763
_cell_angle_beta   92.60277019
_cell_angle_gamma   111.90306369
_symmetry_Int_Tables_number   1
_chemical_formula_structural   Zn2H35C46N3O13
_chemical_formula_sum   'Zn2 H35 C46 N3 O13'
_cell_volume   2634.31930729
_cell_formula_units_Z   1
loop_
 _symmetry_equiv_pos_site_id
 _symmetry_equiv_pos_as_xyz
  1  'x, y, z'
loop_
 _atom_site_type_symbol
 _atom_site_label
 _atom_site_symmetry_multiplicity
 _atom_site_fract_x
 _atom_site_fract_y
 _atom_site_fract_z
 _atom_site_occupancy
  Zn  Zn0  1  0.49296824  0.39729711  0.49748892  1.0
  Zn  Zn1  1  0.50832196  0.60380521  0.49636067  1.0
  H  H2  1  0.86228357  0.74598247  0.59258956  1.0
  H  H3  1  0.20254866  0.70676222  0.64826710  1.0
  H  H4  1  0.05317809  0.77226348  0.63847978  1.0
  H  H5  1  0.80686386  0.44120280  0.49835212  1.0
  H  H6  1  0.13624530  0.24404160  0.46436268  1.0
  H  H7  1  0.85812784  0.32066473  0.50413508  1.0
  H  H8  1  0.27954491  0.58162718  0.59977825  1.0
  H  H9  1  0.45804787  0.33325881  0.05372423  1.0
  H  H10  1  0.46647815  0.33468402  0.21715032  1.0
  H  H11  1  0.48683348  0.64845537  0.22257999  1.0
  H  H12  1  0.47244567  0.64686094  0.05909777  1.0
  H  H13  1  0.58104674  0.65124131  0.94552279  1.0
  H  H14  1  0.35683919  0.33351155  0.92483061  1.0
  H  H15  1  0.34582141  0.69619376  0.44160678  1.0
  H  H16  1  0.66140143  0.81297608  0.54646600  1.0
  H  H17  1  0.66565869  0.99464465  0.54665079  1.0
  H  H18  1  0.56349626  0.09002959  0.62888706  1.0
  H  H19  1  0.55655761  0.26783089  0.62623850  1.0
  H  H20  1  0.44031620  0.22809376  0.36778723  1.0
  H  H21  1  0.43705722  0.04674234  0.35996029  1.0
  H  H22  1  0.72323363  0.63103315  0.72431197  1.0
  H  H23  1  0.74583368  0.66513198  0.83850357  1.0
  H  H24  1  0.77590751  0.84979853  0.80249526  1.0
  H  H25  1  0.86912353  0.80730683  0.74997921  1.0
  H  H26  1  0.75573100  0.81539435  0.68865384  1.0
  H  H27  1  0.24612683  0.36701883  0.69673678  1.0
  H  H28  1  0.20910809  0.29954660  0.79662768  1.0
  H  H29  1  0.20474003  0.13624710  0.72087403  1.0
  H  H30  1  0.11328073  0.18573374  0.66720160  1.0
  H  H31  1  0.23974861  0.20592440  0.62134546  1.0
  H  H32  1  0.29204971  0.94834465  0.53727679  1.0
  H  H33  1  0.21185226  0.81321116  0.52593613  1.0
  H  H34  1  0.11429756  0.84899284  0.39192766  1.0
  H  H35  1  0.09873332  0.91578775  0.48642144  1.0
  H  H36  1  0.19113140  0.98408183  0.40716543  1.0
  C  C37  1  0.48890007  0.49398848  0.32757417  1.0
  C  C38  1  0.29018896  0.43052616  0.50043214  1.0
  C  C39  1  0.49452620  0.49804998  0.66587216  1.0
  C  C40  1  0.70871384  0.57016681  0.51670442  1.0
  C  C41  1  0.99930417  0.69940435  0.60761414  1.0
  C  C42  1  0.82459860  0.59066187  0.54334652  1.0
  C  C43  1  0.10301833  0.30011131  0.48544283  1.0
  C  C44  1  0.99079597  0.27347688  0.48662002  1.0
  C  C45  1  0.94574693  0.34503235  0.50722860  1.0
  C  C46  1  0.01340285  0.44613189  0.53379984  1.0
  C  C47  1  0.12755505  0.47157396  0.54250130  1.0
  C  C48  1  0.97048021  0.52524654  0.55266400  1.0
  C  C49  1  0.04047169  0.62121654  0.59201569  1.0
  C  C50  1  0.15117513  0.63643433  0.61235056  1.0
  C  C51  1  0.19420305  0.56675443  0.58599633  1.0
  C  C52  1  0.86302443  0.51221117  0.52985398  1.0
  C  C53  1  0.89370021  0.68526805  0.58271168  1.0
  C  C54  1  0.17086412  0.39915659  0.51127987  1.0
  C  C55  1  0.46186824  0.40189041  0.09042302  1.0
  C  C56  1  0.46761439  0.40259030  0.18160784  1.0
  C  C57  1  0.47830646  0.49195393  0.22961752  1.0
  C  C58  1  0.47993653  0.57980302  0.18462714  1.0
  C  C59  1  0.47292247  0.57869128  0.09351050  1.0
  C  C60  1  0.46571881  0.49037074  0.04468731  1.0
  C  C61  1  0.53290052  0.58212907  0.90694339  1.0
  C  C62  1  0.54091124  0.58431985  0.81628598  1.0
  C  C63  1  0.48446615  0.49603738  0.76329123  1.0
  C  C64  1  0.41832421  0.40611683  0.80482784  1.0
  C  C65  1  0.40979777  0.40444109  0.89559773  1.0
  C  C66  1  0.46781771  0.49217510  0.94810174  1.0
  C  C67  1  0.40982042  0.86229904  0.46256705  1.0
  C  C68  1  0.41491047  0.76421109  0.46471397  1.0
  C  C69  1  0.59133336  0.83028369  0.52427414  1.0
  C  C70  1  0.59225205  0.93010011  0.52521714  1.0
  C  C71  1  0.50053043  0.94812163  0.49412099  1.0
  C  C72  1  0.53582598  0.11771637  0.56952630  1.0
  C  C73  1  0.53260717  0.21611086  0.56878207  1.0
  C  C74  1  0.46568006  0.19294883  0.42385053  1.0
  C  C75  1  0.46477406  0.09324094  0.41999022  1.0
  C  C76  1  0.50022177  0.05377532  0.49433246  1.0
  C  C77  1  0.71761859  0.68552011  0.77475454  1.0
  C  C78  1  0.78336798  0.79618971  0.75265927  1.0
  C  C79  1  0.25004090  0.30143297  0.73502072  1.0
  C  C80  1  0.19911719  0.20100860  0.68300823  1.0
  C  C81  1  0.24546016  0.88571322  0.49005894  1.0
  C  C82  1  0.15762479  0.91020518  0.44064126  1.0
  N  N83  1  0.50395132  0.74902630  0.49473435  1.0
  N  N84  1  0.49789617  0.25274083  0.49710148  1.0
  N  N85  1  0.91878512  0.16642959  0.46561416  1.0
  O  O86  1  0.46538564  0.40733695  0.36518281  1.0
  O  O87  1  0.52076228  0.58223777  0.36627821  1.0
  O  O88  1  0.33112305  0.36307625  0.51676822  1.0
  O  O89  1  0.33943199  0.52129932  0.47361146  1.0
  O  O90  1  0.52440179  0.43071957  0.63109004  1.0
  O  O91  1  0.47222921  0.56762511  0.62520350  1.0
  O  O92  1  0.65457164  0.48121443  0.48314855  1.0
  O  O93  1  0.67196986  0.64096681  0.53058286  1.0
  O  O94  1  0.60622283  0.67526672  0.77970210  1.0
  O  O95  1  0.36205200  0.31752157  0.75549578  1.0
  O  O96  1  0.31824522  0.87257245  0.42687704  1.0
  O  O97  1  0.96050933  0.10445598  0.44369405  1.0
  O  O98  1  0.81963463  0.14285166  0.47219272  1.0
