# generated using pymatgen
data_Hf3H36C45(S5O8)2
_symmetry_space_group_name_H-M   'P 1'
_cell_length_a   11.47152641
_cell_length_b   20.38065496
_cell_length_c   33.58903656
_cell_angle_alpha   90.50960307
_cell_angle_beta   98.10674421
_cell_angle_gamma   90.23056647
_symmetry_Int_Tables_number   1
_chemical_formula_structural   Hf3H36C45(S5O8)2
_chemical_formula_sum   'Hf6 H72 C90 S20 O32'
_cell_volume   7774.13065885
_cell_formula_units_Z   2
loop_
 _symmetry_equiv_pos_site_id
 _symmetry_equiv_pos_as_xyz
  1  'x, y, z'
loop_
 _atom_site_type_symbol
 _atom_site_label
 _atom_site_symmetry_multiplicity
 _atom_site_fract_x
 _atom_site_fract_y
 _atom_site_fract_z
 _atom_site_occupancy
  Hf  Hf0  1  0.98677402  0.08163692  0.95493193  1.0
  Hf  Hf1  1  0.04157245  0.88494745  0.03840743  1.0
  Hf  Hf2  1  0.84163973  0.92905370  0.95240688  1.0
  Hf  Hf3  1  0.18509115  0.03721331  0.03928078  1.0
  Hf  Hf4  1  0.87550364  0.02950990  0.04110316  1.0
  Hf  Hf5  1  0.15174048  0.93696655  0.95266281  1.0
  H  H6  1  0.01702092  0.13928601  0.03235960  1.0
  H  H7  1  0.79049466  0.90156761  0.03143114  1.0
  H  H8  1  0.27986748  0.91326188  0.03028877  1.0
  H  H9  1  0.96776056  0.97882678  0.89370274  1.0
  H  H10  1  0.63979477  0.99468305  0.04151207  1.0
  H  H11  1  0.80374443  0.84631936  0.88558051  1.0
  H  H12  1  0.10982429  0.82461602  0.90497743  1.0
  H  H13  1  0.92706107  0.07606786  0.11823750  1.0
  H  H14  1  0.18725101  0.14149387  0.09469253  1.0
  H  H15  1  0.39983359  0.07210916  0.02642531  1.0
  H  H16  1  0.36412347  0.98901096  0.99227580  1.0
  H  H17  1  0.79733285  0.99453760  0.11385534  1.0
  H  H18  1  0.89023400  0.91555835  0.09526057  1.0
  H  H19  1  0.04138135  0.09813645  0.87568532  1.0
  H  H20  1  0.18854561  0.96104580  0.87686531  1.0
  H  H21  1  0.06259494  0.09658496  0.09518855  1.0
  H  H22  1  0.90008456  0.83577756  0.09387485  1.0
  H  H23  1  0.62224384  0.89039093  0.96396457  1.0
  H  H24  1  0.66044253  0.98217302  0.99562595  1.0
  H  H25  1  0.36738861  0.98090285  0.94369918  1.0
  H  H26  1  0.98700115  0.86637372  0.89690569  1.0
  H  H27  1  0.14328114  0.04953725  0.89895797  1.0
  H  H28  1  0.30139741  0.48687312  0.99736341  1.0
  H  H29  1  0.73173158  0.47866803  0.99497015  1.0
  H  H30  1  0.74471621  0.09340598  0.71394806  1.0
  H  H31  1  0.49322475  0.08745583  0.60620643  1.0
  H  H32  1  0.37355787  0.08048266  0.72184099  1.0
  H  H33  1  0.56823881  0.91572209  0.28370535  1.0
  H  H34  1  0.43959526  0.94304976  0.39675226  1.0
  H  H35  1  0.19438699  0.91319630  0.28896389  1.0
  H  H36  1  0.75422490  0.03722996  0.49259118  1.0
  H  H37  1  0.18273264  0.99615028  0.50806976  1.0
  H  H38  1  0.22092059  0.02782063  0.31188613  1.0
  H  H39  1  0.08254571  0.88339879  0.49682984  1.0
  H  H40  1  0.26820420  0.85277527  0.40649548  1.0
  H  H41  1  0.02241113  0.05207692  0.39856099  1.0
  H  H42  1  0.58130924  0.81726151  0.35387002  1.0
  H  H43  1  0.87561567  0.11281721  0.43618589  1.0
  H  H44  1  0.61184157  0.04785596  0.35375269  1.0
  H  H45  1  0.84244108  0.88189885  0.43762393  1.0
  H  H46  1  0.72177988  0.98524525  0.68782565  1.0
  H  H47  1  0.85404914  0.15282818  0.50776948  1.0
  H  H48  1  0.66033060  0.17078366  0.59727505  1.0
  H  H49  1  0.91992237  0.97766372  0.60101191  1.0
  H  H50  1  0.37033900  0.20143971  0.65184811  1.0
  H  H51  1  0.04560517  0.91906943  0.56300912  1.0
  H  H52  1  0.30748638  0.97237786  0.64932822  1.0
  H  H53  1  0.11013616  0.14829088  0.56451502  1.0
  H  H54  1  0.20834352  0.17846367  0.91708425  1.0
  H  H55  1  0.39783377  0.43674844  0.06449603  1.0
  H  H56  1  0.25490570  0.25779671  0.05525380  1.0
  H  H57  1  0.39476681  0.34373491  0.93318145  1.0
  H  H58  1  0.63570740  0.55474374  0.07496760  1.0
  H  H59  1  0.83905907  0.75936391  0.92331891  1.0
  H  H60  1  0.68414145  0.58887387  0.93720879  1.0
  H  H61  1  0.77230488  0.72706814  0.05951143  1.0
  H  H62  1  0.34298047  0.81739361  0.93569360  1.0
  H  H63  1  0.40132269  0.55506068  0.07681932  1.0
  H  H64  1  0.20598068  0.70024651  0.04369727  1.0
  H  H65  1  0.47445815  0.64069452  0.94718463  1.0
  H  H66  1  0.73949174  0.16230646  0.06798289  1.0
  H  H67  1  0.62532213  0.42924821  0.92625492  1.0
  H  H68  1  0.78948325  0.25614390  0.94094275  1.0
  H  H69  1  0.59413868  0.33622761  0.05355301  1.0
  H  H70  1  0.26221162  0.80132543  0.27369232  1.0
  H  H71  1  0.40781930  0.01598894  0.11558883  1.0
  H  H72  1  0.47759554  0.98407910  0.23140886  1.0
  H  H73  1  0.17399951  0.84003600  0.15715891  1.0
  H  H74  1  0.78224797  0.17602864  0.88937422  1.0
  H  H75  1  0.51144257  0.97059860  0.72346034  1.0
  H  H76  1  0.68114870  0.96198847  0.83566373  1.0
  H  H77  1  0.61469115  0.18362743  0.77839750  1.0
  C  C78  1  0.80706417  0.16974303  0.99727525  1.0
  C  C79  1  0.19976723  0.17717466  0.99457250  1.0
  C  C80  1  0.77124552  0.04900178  0.88683905  1.0
  C  C81  1  0.84636258  0.78397171  0.99747760  1.0
  C  C82  1  0.21637536  0.79466951  0.99315344  1.0
  C  C83  1  0.24351791  0.92700188  0.10951767  1.0
  C  C84  1  0.45093805  0.42419299  0.99578163  1.0
  C  C85  1  0.57325209  0.42159553  0.99468226  1.0
  C  C86  1  0.63680148  0.48042448  0.99520546  1.0
  C  C87  1  0.58264137  0.54143455  0.99735170  1.0
  C  C88  1  0.45973768  0.54432665  0.99825079  1.0
  C  C89  1  0.39632735  0.48525937  0.99733669  1.0
  C  C90  1  0.56233681  0.08843057  0.72241495  1.0
  C  C91  1  0.65402241  0.09215714  0.69901685  1.0
  C  C92  1  0.63046336  0.09127464  0.65696590  1.0
  C  C93  1  0.51307593  0.08973697  0.63890648  1.0
  C  C94  1  0.42010003  0.08609535  0.66169818  1.0
  C  C95  1  0.44488533  0.08515959  0.70373338  1.0
  C  C96  1  0.37857731  0.91151369  0.28148603  1.0
  C  C97  1  0.49494086  0.91826592  0.30108258  1.0
  C  C98  1  0.51699338  0.92985538  0.34253836  1.0
  C  C99  1  0.42230031  0.93298601  0.36452689  1.0
  C  C100  1  0.30589901  0.92739144  0.34574535  1.0
  C  C101  1  0.28470642  0.91654919  0.30413264  1.0
  C  C102  1  0.91716693  0.04224779  0.53314178  1.0
  C  C103  1  0.03890673  0.02970428  0.53748350  1.0
  C  C104  1  0.08798374  0.00448901  0.50471064  1.0
  C  C105  1  0.01960627  0.99075610  0.46760050  1.0
  C  C106  1  0.89784861  0.00299980  0.46329981  1.0
  C  C107  1  0.84900710  0.02903308  0.49590992  1.0
  C  C108  1  0.21339696  0.93774271  0.37178161  1.0
  C  C109  1  0.21207153  0.89607322  0.40458302  1.0
  C  C110  1  0.14440571  0.90905802  0.43525894  1.0
  C  C111  1  0.07799765  0.96736824  0.43357717  1.0
  C  C112  1  0.07418359  0.00711631  0.39971445  1.0
  C  C113  1  0.13978218  0.99342801  0.36853558  1.0
  C  C114  1  0.63371139  0.94529679  0.36613792  1.0
  C  C115  1  0.66466380  0.01147936  0.37176019  1.0
  C  C116  1  0.75589424  0.03212664  0.40142549  1.0
  C  C117  1  0.81687673  0.98466283  0.42643543  1.0
  C  C118  1  0.79249020  0.91817080  0.41857706  1.0
  C  C119  1  0.70164217  0.89747396  0.38875928  1.0
  C  C120  1  0.72167765  0.08510368  0.63020295  1.0
  C  C121  1  0.71917376  0.12868979  0.59811673  1.0
  C  C122  1  0.78686746  0.11937260  0.56701838  1.0
  C  C123  1  0.85798024  0.06294320  0.56758048  1.0
  C  C124  1  0.86538341  0.02144640  0.60073326  1.0
  C  C125  1  0.79954876  0.03119430  0.63229943  1.0
  C  C126  1  0.30252685  0.07562017  0.63750488  1.0
  C  C127  1  0.26190533  0.01113435  0.63116665  1.0
  C  C128  1  0.17121169  0.99464611  0.60024653  1.0
  C  C129  1  0.11949838  0.04470036  0.57506055  1.0
  C  C130  1  0.15302877  0.10985789  0.58366145  1.0
  C  C131  1  0.24416221  0.12632792  0.61444386  1.0
  C  C132  1  0.26333148  0.24082966  0.99270909  1.0
  C  C133  1  0.28434090  0.27768174  0.02830471  1.0
  C  C134  1  0.34151829  0.33848983  0.03026847  1.0
  C  C135  1  0.38186392  0.36232636  0.99526848  1.0
  C  C136  1  0.36145508  0.32517717  0.95983033  1.0
  C  C137  1  0.30171098  0.26473542  0.95735100  1.0
  C  C138  1  0.65697779  0.60141841  0.99865345  1.0
  C  C139  1  0.70277785  0.61996198  0.96401238  1.0
  C  C140  1  0.76534218  0.67871731  0.96182234  1.0
  C  C141  1  0.78746507  0.71842824  0.99679867  1.0
  C  C142  1  0.74931226  0.69741394  0.03233781  1.0
  C  C143  1  0.68290249  0.64012249  0.03381518  1.0
  C  C144  1  0.28239332  0.73196135  0.99263352  1.0
  C  C145  1  0.26458222  0.68607189  0.02229866  1.0
  C  C146  1  0.32039416  0.62549161  0.02590395  1.0
  C  C147  1  0.39733745  0.60808400  0.99797639  1.0
  C  C148  1  0.41553285  0.65369197  0.96872576  1.0
  C  C149  1  0.36259952  0.71580977  0.96554374  1.0
  C  C150  1  0.74561440  0.23368331  0.99890712  1.0
  C  C151  1  0.74497790  0.27435550  0.96533415  1.0
  C  C152  1  0.68960887  0.33516758  0.96216706  1.0
  C  C153  1  0.63457393  0.35769764  0.99480398  1.0
  C  C154  1  0.63647044  0.31809088  0.02847635  1.0
  C  C155  1  0.68929206  0.25598836  0.03158133  1.0
  C  C156  1  0.35376314  0.90697692  0.23702772  1.0
  C  C157  1  0.41215615  0.95116387  0.21494541  1.0
  C  C158  1  0.38632595  0.95808615  0.17314873  1.0
  C  C159  1  0.29451071  0.91853692  0.15246704  1.0
  C  C160  1  0.24138207  0.87112032  0.17412332  1.0
  C  C161  1  0.26956668  0.86378352  0.21563972  1.0
  C  C162  1  0.70380254  0.06490873  0.84674652  1.0
  C  C163  1  0.66575880  0.01041960  0.82246860  1.0
  C  C164  1  0.61441316  0.01676444  0.78255158  1.0
  C  C165  1  0.59771235  0.08042919  0.76636434  1.0
  C  C166  1  0.62892188  0.13473799  0.79113815  1.0
  C  C167  1  0.68287759  0.12883709  0.83121057  1.0
  S  S168  1  0.14807487  0.84978448  0.47336108  1.0
  S  S169  1  0.13052932  0.05124586  0.32944892  1.0
  S  S170  1  0.78584985  0.11709411  0.40570651  1.0
  S  S171  1  0.67299065  0.81256203  0.38366838  1.0
  S  S172  1  0.77603457  0.17989227  0.52947479  1.0
  S  S173  1  0.81648609  0.97035097  0.66975184  1.0
  S  S174  1  0.13116271  0.91102248  0.59452030  1.0
  S  S175  1  0.28468361  0.20972808  0.62039907  1.0
  S  S176  1  0.36756047  0.37764605  0.07780596  1.0
  S  S177  1  0.29212135  0.22281995  0.91102672  1.0
  S  S178  1  0.81594718  0.69487152  0.91577115  1.0
  S  S179  1  0.63374682  0.62055867  0.07983939  1.0
  S  S180  1  0.28908857  0.57452277  0.06559699  1.0
  S  S181  1  0.41011920  0.76532702  0.92830418  1.0
  S  S182  1  0.68896809  0.37750779  0.91650697  1.0
  S  S183  1  0.67872939  0.21605107  0.07702146  1.0
  S  S184  1  0.47549213  0.01489357  0.15214659  1.0
  S  S185  1  0.19571225  0.79983064  0.23722838  1.0
  S  S186  1  0.58388843  0.94371623  0.75410958  1.0
  S  S187  1  0.71389378  0.20306130  0.85762633  1.0
  O  O188  1  0.09223888  0.09236266  0.90113299  1.0
  O  O189  1  0.86992744  0.16111353  0.96893392  1.0
  O  O190  1  0.85302409  0.09000570  0.90188346  1.0
  O  O191  1  0.23596381  0.13972259  0.02410302  1.0
  O  O192  1  0.75035355  0.99495587  0.90238055  1.0
  O  O193  1  0.11250854  0.16523758  0.96745696  1.0
  O  O194  1  0.79617219  0.12677403  0.02405351  1.0
  O  O195  1  0.87415678  0.02150243  0.97862719  1.0
  O  O196  1  0.01783355  0.09463723  0.02217784  1.0
  O  O197  1  0.98437140  0.98165296  0.92280095  1.0
  O  O198  1  0.13343320  0.02844575  0.97747879  1.0
  O  O199  1  0.36256359  0.03010581  0.03022484  1.0
  O  O200  1  0.67524468  0.01441725  0.01975933  1.0
  O  O201  1  0.03800622  0.98275095  0.05150296  1.0
  O  O202  1  0.85539943  0.92365725  0.02143275  1.0
  O  O203  1  0.01158065  0.89921508  0.97790275  1.0
  O  O204  1  0.20502124  0.93247407  0.01933490  1.0
  O  O205  1  0.66657084  0.93027802  0.96100501  1.0
  O  O206  1  0.81109877  0.82206412  0.96852796  1.0
  O  O207  1  0.92425404  0.79777198  0.02765222  1.0
  O  O208  1  0.20685271  0.98540445  0.90198591  1.0
  O  O209  1  0.15570109  0.80419935  0.02160757  1.0
  O  O210  1  0.86272736  0.87591523  0.89934248  1.0
  O  O211  1  0.08040332  0.86882024  0.89943515  1.0
  O  O212  1  0.34810095  0.95753239  0.96721234  1.0
  O  O213  1  0.22319422  0.83641577  0.96483022  1.0
  O  O214  1  0.94732837  0.87559318  0.09454470  1.0
  O  O215  1  0.15828269  0.09657983  0.09345428  1.0
  O  O216  1  0.17826982  0.88128946  0.09187247  1.0
  O  O217  1  0.26472422  0.98104724  0.09283576  1.0
  O  O218  1  0.94256698  0.09096805  0.09213623  1.0
  O  O219  1  0.81255863  0.97548714  0.08854151  1.0
