# generated using pymatgen
data_AlH7C13O6
_symmetry_space_group_name_H-M   'P 1'
_cell_length_a   6.68603500
_cell_length_b   19.97907083
_cell_length_c   23.30039910
_cell_angle_alpha   86.91888374
_cell_angle_beta   89.99984374
_cell_angle_gamma   89.99950693
_symmetry_Int_Tables_number   1
_chemical_formula_structural   AlH7C13O6
_chemical_formula_sum   'Al4 H28 C52 O24'
_cell_volume   3107.98589386
_cell_formula_units_Z   4
loop_
 _symmetry_equiv_pos_site_id
 _symmetry_equiv_pos_as_xyz
  1  'x, y, z'
loop_
 _atom_site_type_symbol
 _atom_site_label
 _atom_site_symmetry_multiplicity
 _atom_site_fract_x
 _atom_site_fract_y
 _atom_site_fract_z
 _atom_site_occupancy
  Al  Al0  1  0.24728513  0.74899371  0.74917666  1.0
  Al  Al1  1  0.75287336  0.25068299  0.25043100  1.0
  Al  Al2  1  0.74711647  0.75068747  0.75042830  1.0
  Al  Al3  1  0.25271298  0.24899316  0.24917248  1.0
  H  H4  1  0.31342999  0.98728875  0.54572291  1.0
  H  H5  1  0.69301249  0.05527524  0.48609027  1.0
  H  H6  1  0.80701716  0.55527667  0.98609437  1.0
  H  H7  1  0.18659260  0.48728476  0.04572011  1.0
  H  H8  1  0.30917009  0.90227498  0.62750217  1.0
  H  H9  1  0.69246992  0.13576912  0.40113945  1.0
  H  H10  1  0.80754698  0.63577553  0.90114398  1.0
  H  H11  1  0.19083849  0.40227124  0.12749506  1.0
  H  H12  1  0.68243824  0.86922269  0.60094890  1.0
  H  H13  1  0.31194170  0.09332070  0.37095304  1.0
  H  H14  1  0.18808941  0.59331247  0.87095557  1.0
  H  H15  1  0.81757525  0.36921620  0.10095755  1.0
  H  H16  1  0.68693303  0.95029148  0.51633215  1.0
  H  H17  1  0.31136110  0.00886922  0.45306808  1.0
  H  H18  1  0.18867392  0.50886165  0.95306803  1.0
  H  H19  1  0.81310658  0.45028761  0.01633908  1.0
  H  H20  1  0.66274601  0.04361620  0.02554604  1.0
  H  H21  1  0.33789407  0.95650938  0.97409534  1.0
  H  H22  1  0.16209344  0.45650617  0.47409686  1.0
  H  H23  1  0.83724394  0.54361368  0.52554022  1.0
  H  H24  1  0.70104408  0.92996100  0.91344642  1.0
  H  H25  1  0.30009704  0.07103486  0.08553477  1.0
  H  H26  1  0.19988506  0.57104268  0.58552825  1.0
  H  H27  1  0.79893181  0.42995034  0.41345037  1.0
  H  H28  1  0.49331292  0.83596298  0.76125210  1.0
  H  H29  1  0.50697720  0.16188434  0.24555198  1.0
  H  H30  1  0.99302151  0.66188778  0.74554942  1.0
  H  H31  1  0.00667784  0.33595835  0.26125767  1.0
  C  C32  1  0.49657478  0.67250418  0.67346367  1.0
  C  C33  1  0.49582575  0.32748906  0.32618122  1.0
  C  C34  1  0.00416503  0.82749191  0.82618094  1.0
  C  C35  1  0.00341415  0.17249836  0.17347225  1.0
  C  C36  1  0.50063227  0.66735208  0.82964915  1.0
  C  C37  1  0.50701497  0.33227609  0.17011153  1.0
  C  C38  1  0.99298748  0.83228078  0.67011327  1.0
  C  C39  1  0.99936893  0.16735189  0.32964684  1.0
  C  C40  1  0.17514665  0.96062438  0.55669360  1.0
  C  C41  1  0.82809099  0.06197706  0.46021148  1.0
  C  C42  1  0.67192657  0.56197487  0.96021402  1.0
  C  C43  1  0.32486330  0.46061936  0.05669451  1.0
  C  C44  1  0.17353650  0.91372759  0.60296366  1.0
  C  C45  1  0.82721688  0.10771238  0.41313791  1.0
  C  C46  1  0.67279191  0.60771275  0.91313959  1.0
  C  C47  1  0.32646432  0.41372544  0.10295854  1.0
  C  C48  1  0.99543368  0.88108724  0.61949494  1.0
  C  C49  1  0.00159440  0.11911120  0.38065097  1.0
  C  C50  1  0.49840592  0.61910881  0.88065357  1.0
  C  C51  1  0.50456440  0.38108248  0.11949449  1.0
  C  C52  1  0.81985711  0.89534327  0.58824518  1.0
  C  C53  1  0.17674658  0.08408908  0.39630110  1.0
  C  C54  1  0.32326529  0.58408297  0.89630519  1.0
  C  C55  1  0.68014362  0.39533514  0.08825269  1.0
  C  C56  1  0.82302126  0.94137685  0.54137431  1.0
  C  C57  1  0.17592313  0.03748656  0.44279793  1.0
  C  C58  1  0.32409604  0.53748247  0.94280158  1.0
  C  C59  1  0.67698863  0.44137397  0.04137796  1.0
  C  C60  1  0.00009205  0.97548760  0.52488566  1.0
  C  C61  1  0.00157928  0.02530618  0.47569372  1.0
  C  C62  1  0.49843717  0.52530129  0.97569632  1.0
  C  C63  1  0.49993101  0.47548309  0.02488851  1.0
  C  C64  1  0.82762939  0.98041109  0.97061060  1.0
  C  C65  1  0.17319167  0.02000614  0.02880713  1.0
  C  C66  1  0.32679081  0.52000685  0.52880605  1.0
  C  C67  1  0.67235362  0.48040285  0.47061211  1.0
  C  C68  1  0.01914917  0.95514362  0.95617467  1.0
  C  C69  1  0.98151635  0.04513012  0.04336176  1.0
  C  C70  1  0.51847049  0.54513156  0.54335932  1.0
  C  C71  1  0.48083248  0.45513214  0.45617754  1.0
  C  C72  1  0.19110570  0.97521597  0.98555947  1.0
  C  C73  1  0.80957327  0.02497928  0.01404018  1.0
  C  C74  1  0.69041733  0.52497631  0.51403840  1.0
  C  C75  1  0.30887816  0.47520934  0.48556254  1.0
  C  C76  1  0.02632015  0.91017782  0.91164832  1.0
  C  C77  1  0.97495110  0.09010855  0.08791045  1.0
  C  C78  1  0.52503111  0.59011265  0.58789725  1.0
  C  C79  1  0.47366312  0.41016669  0.41165379  1.0
  C  C80  1  0.99395270  0.12812625  0.12690870  1.0
  C  C81  1  0.00917017  0.87216440  0.87254863  1.0
  C  C82  1  0.49081748  0.37215538  0.37255193  1.0
  C  C83  1  0.50603112  0.62814139  0.62690369  1.0
  O  O84  1  0.67057420  0.69054108  0.81360109  1.0
  O  O85  1  0.33878992  0.31630885  0.19279593  1.0
  O  O86  1  0.16119726  0.81631108  0.69280020  1.0
  O  O87  1  0.82942631  0.19053997  0.31360328  1.0
  O  O88  1  0.32369618  0.69249263  0.68803748  1.0
  O  O89  1  0.66679729  0.31448133  0.30513889  1.0
  O  O90  1  0.83318428  0.81448402  0.80513781  1.0
  O  O91  1  0.17629653  0.19249131  0.18804027  1.0
  O  O92  1  0.33341490  0.68109970  0.80535185  1.0
  O  O93  1  0.67733297  0.31093753  0.18753502  1.0
  O  O94  1  0.82265366  0.81094383  0.68753265  1.0
  O  O95  1  0.16658221  0.18110049  0.30534519  1.0
  O  O96  1  0.17312056  0.80568724  0.81026330  1.0
  O  O97  1  0.83678821  0.18702125  0.19611973  1.0
  O  O98  1  0.66321138  0.68702580  0.69611067  1.0
  O  O99  1  0.32687249  0.30568664  0.31025732  1.0
  O  O100  1  0.49627359  0.79043389  0.74896547  1.0
  O  O101  1  0.50357829  0.20952227  0.25111610  1.0
  O  O102  1  0.99641586  0.70952560  0.75111525  1.0
  O  O103  1  0.00371421  0.29043109  0.24896588  1.0
  O  O104  1  0.66030637  0.96146260  0.94221629  1.0
  O  O105  1  0.34060143  0.03917712  0.05702769  1.0
  O  O106  1  0.15938928  0.53918544  0.55702251  1.0
  O  O107  1  0.83968036  0.46145091  0.44221933  1.0
