# generated using pymatgen
data_Zn4H26C40I8N4O21
_symmetry_space_group_name_H-M   'P 1'
_cell_length_a   10.72656374
_cell_length_b   19.10031020
_cell_length_c   19.29217107
_cell_angle_alpha   93.79853513
_cell_angle_beta   92.75286861
_cell_angle_gamma   96.41676642
_symmetry_Int_Tables_number   1
_chemical_formula_structural   Zn4H26C40I8N4O21
_chemical_formula_sum   'Zn4 H26 C40 I8 N4 O21'
_cell_volume   3913.07350719
_cell_formula_units_Z   1
loop_
 _symmetry_equiv_pos_site_id
 _symmetry_equiv_pos_as_xyz
  1  'x, y, z'
loop_
 _atom_site_type_symbol
 _atom_site_label
 _atom_site_symmetry_multiplicity
 _atom_site_fract_x
 _atom_site_fract_y
 _atom_site_fract_z
 _atom_site_occupancy
  Zn  Zn0  1  0.39335042  0.45007098  0.43572205  1.0
  Zn  Zn1  1  0.61863555  0.57477378  0.45352035  1.0
  Zn  Zn2  1  0.60621990  0.44808014  0.55754020  1.0
  Zn  Zn3  1  0.41736335  0.56225232  0.56993703  1.0
  H  H4  1  0.33822721  0.46635858  0.22759518  1.0
  H  H5  1  0.14777948  0.48507833  0.68904413  1.0
  H  H6  1  0.26264204  0.55434301  0.72587823  1.0
  H  H7  1  0.84490759  0.45846684  0.23127044  1.0
  H  H8  1  0.76025243  0.46920389  0.30901741  1.0
  H  H9  1  0.90391830  0.52363576  0.30009557  1.0
  H  H10  1  0.87996879  0.62679442  0.63796520  1.0
  H  H11  1  0.94538345  0.68260607  0.57379552  1.0
  H  H12  1  0.02821985  0.67986973  0.65658925  1.0
  H  H13  1  0.26378695  0.86947961  0.33187556  1.0
  H  H14  1  0.27332542  0.95737582  0.37393435  1.0
  H  H15  1  0.71832218  0.55048036  0.10846158  1.0
  H  H16  1  0.12422569  0.90415538  0.36002085  1.0
  H  H17  1  0.71298502  0.71137477  0.58193074  1.0
  H  H18  1  0.62356545  0.76745314  0.63332103  1.0
  H  H19  1  0.79126046  0.78691904  0.63249452  1.0
  H  H20  1  0.81613823  0.92395665  0.58035914  1.0
  H  H21  1  0.67552114  0.93854499  0.62415811  1.0
  H  H22  1  0.76869333  0.01131878  0.59082779  1.0
  H  H23  1  0.90805309  0.37353152  0.51226112  1.0
  H  H24  1  0.04509747  0.36332703  0.46319729  1.0
  H  H25  1  0.89202913  0.35646555  0.41948740  1.0
  H  H26  1  0.17478548  0.49420294  0.15706041  1.0
  H  H27  1  0.11841643  0.43940382  0.08003906  1.0
  H  H28  1  0.19479065  0.40176206  0.15107015  1.0
  H  H29  1  0.15181071  0.51008964  0.78093239  1.0
  C  C30  1  0.49777968  0.69586585  0.51161168  1.0
  C  C31  1  0.47880699  0.77197355  0.50502779  1.0
  C  C32  1  0.58086654  0.82448200  0.51980229  1.0
  C  C33  1  0.50276610  0.32211949  0.47333928  1.0
  C  C34  1  0.57000112  0.89467994  0.50369114  1.0
  C  C35  1  0.51004577  0.48776516  0.76618047  1.0
  C  C36  1  0.61850269  0.50059997  0.81067515  1.0
  C  C37  1  0.61041038  0.49668639  0.88280375  1.0
  C  C38  1  0.49107509  0.47881448  0.90972832  1.0
  C  C39  1  0.38375912  0.46263710  0.86380362  1.0
  C  C40  1  0.39214055  0.46842403  0.79222179  1.0
  C  C41  1  0.44802904  0.20302882  0.51892017  1.0
  C  C42  1  0.41385182  0.48337093  0.12741184  1.0
  C  C43  1  0.42071762  0.48354768  0.19981173  1.0
  C  C44  1  0.52465077  0.50778839  0.09403939  1.0
  C  C45  1  0.52434213  0.50769305  0.31727969  1.0
  C  C46  1  0.53244191  0.50564665  0.24020123  1.0
  C  C47  1  0.64276834  0.52854125  0.20667762  1.0
  C  C48  1  0.63500568  0.53121116  0.13475376  1.0
  C  C49  1  0.51283726  0.49360534  0.68883153  1.0
  C  C50  1  0.84021021  0.53734677  0.53089280  1.0
  C  C51  1  0.17684876  0.49647020  0.50315446  1.0
  C  C52  1  0.44740755  0.12933081  0.51481294  1.0
  C  C53  1  0.04071321  0.49932138  0.50173532  1.0
  C  C54  1  0.98162728  0.54498434  0.54230200  1.0
  C  C55  1  0.49766851  0.24280431  0.46580020  1.0
  C  C56  1  0.95259327  0.38304255  0.46298666  1.0
  C  C57  1  0.19263470  0.44915551  0.12169165  1.0
  C  C58  1  0.20836517  0.50395372  0.73531697  1.0
  C  C59  1  0.81902012  0.49684327  0.27186664  1.0
  C  C60  1  0.96725597  0.64902227  0.61575460  1.0
  C  C61  1  0.22498521  0.90342551  0.37178759  1.0
  C  C62  1  0.70527612  0.76611518  0.60120034  1.0
  C  C63  1  0.49799583  0.09586649  0.45667296  1.0
  C  C64  1  0.73597307  0.95480003  0.58225174  1.0
  C  C65  1  0.54524436  0.13613471  0.40293259  1.0
  C  C66  1  0.54501929  0.20936466  0.40737005  1.0
  C  C67  1  0.34951313  0.85832175  0.46180863  1.0
  C  C68  1  0.36350360  0.78905353  0.47712173  1.0
  C  C69  1  0.45377668  0.91134500  0.47390722  1.0
  I  I70  1  0.37646013  0.25870031  0.60362275  1.0
  I  I71  1  0.20918700  0.42916082  0.90292893  1.0
  I  I72  1  0.77812924  0.51043190  0.94664000  1.0
  I  I73  1  0.79048944  0.52693957  0.76408296  1.0
  I  I74  1  0.21075336  0.71065319  0.45188195  1.0
  I  I75  1  0.60693097  0.07939442  0.31673019  1.0
  I  I76  1  0.61866532  0.27216135  0.32989528  1.0
  I  I77  1  0.38038649  0.07068599  0.59685690  1.0
  N  N78  1  0.51859311  0.02413890  0.45140518  1.0
  N  N79  1  0.42796727  0.98049926  0.46625666  1.0
  N  N80  1  0.46957288  0.47015227  0.98087148  1.0
  N  N81  1  0.53659234  0.51413694  0.02264613  1.0
  O  O82  1  0.50976862  0.50879026  0.50354745  1.0
  O  O83  1  0.79401406  0.58002553  0.49184555  1.0
  O  O84  1  0.24068210  0.52766914  0.55639050  1.0
  O  O85  1  0.78339020  0.48881070  0.56337449  1.0
  O  O86  1  0.21922851  0.46275672  0.45142940  1.0
  O  O87  1  0.96400014  0.45746219  0.45189099  1.0
  O  O88  1  0.30672629  0.46422974  0.08723388  1.0
  O  O89  1  0.29229247  0.45047882  0.74484040  1.0
  O  O90  1  0.75738287  0.55079444  0.24039212  1.0
  O  O91  1  0.03895903  0.59400589  0.59037053  1.0
  O  O92  1  0.23456317  0.87385259  0.43848122  1.0
  O  O93  1  0.43021910  0.47077050  0.34008654  1.0
  O  O94  1  0.69702896  0.81077661  0.54444234  1.0
  O  O95  1  0.66508934  0.94760011  0.51608976  1.0
  O  O96  1  0.47535476  0.54937483  0.66666667  1.0
  O  O97  1  0.56766001  0.67045198  0.46734050  1.0
  O  O98  1  0.59744889  0.35406045  0.50928890  1.0
  O  O99  1  0.44383593  0.66457816  0.56011763  1.0
  O  O100  1  0.41281278  0.34876014  0.44395220  1.0
  O  O101  1  0.60972253  0.54711903  0.35437823  1.0
  O  O102  1  0.55075923  0.44266467  0.65304057  1.0
