# generated using pymatgen
data_Al2H18C29N3ClO14
_symmetry_space_group_name_H-M   'P 1'
_cell_length_a   6.73111388
_cell_length_b   22.32708426
_cell_length_c   25.58643054
_cell_angle_alpha   90.77497989
_cell_angle_beta   90.51718197
_cell_angle_gamma   90.15606906
_symmetry_Int_Tables_number   1
_chemical_formula_structural   Al2H18C29N3ClO14
_chemical_formula_sum   'Al4 H36 C58 N6 Cl2 O28'
_cell_volume   3844.76209740
_cell_formula_units_Z   2
loop_
 _symmetry_equiv_pos_site_id
 _symmetry_equiv_pos_as_xyz
  1  'x, y, z'
loop_
 _atom_site_type_symbol
 _atom_site_label
 _atom_site_symmetry_multiplicity
 _atom_site_fract_x
 _atom_site_fract_y
 _atom_site_fract_z
 _atom_site_occupancy
  Al  Al0  1  0.27288013  0.25567807  0.74589130  1.0
  Al  Al1  1  0.72711803  0.74432040  0.25410817  1.0
  Al  Al2  1  0.77245495  0.25171280  0.74680258  1.0
  Al  Al3  1  0.22754173  0.74828746  0.25319651  1.0
  H  H4  1  0.74188687  0.11289151  0.85131058  1.0
  H  H5  1  0.25810234  0.88710831  0.14869356  1.0
  H  H6  1  0.84638309  0.96004564  0.97296707  1.0
  H  H7  1  0.15362548  0.03995687  0.02703208  1.0
  H  H8  1  0.71575904  0.12184609  0.63036489  1.0
  H  H9  1  0.28423912  0.87815149  0.36963535  1.0
  H  H10  1  0.62962260  0.93051138  0.44767391  1.0
  H  H11  1  0.37037114  0.06948932  0.55232205  1.0
  H  H12  1  0.64915498  0.85523535  0.37444212  1.0
  H  H13  1  0.35084322  0.14476580  0.62555346  1.0
  H  H14  1  0.78379616  0.62091079  0.13243604  1.0
  H  H15  1  0.21621092  0.37909306  0.86756468  1.0
  H  H16  1  0.76725690  0.54816534  0.05638030  1.0
  H  H17  1  0.23274871  0.45184030  0.94361847  1.0
  H  H18  1  0.86865649  0.43618482  0.94682357  1.0
  H  H19  1  0.13134613  0.56381590  0.05317554  1.0
  H  H20  1  0.85212130  0.36399023  0.86994874  1.0
  H  H21  1  0.14788279  0.63600825  0.13005270  1.0
  H  H22  1  0.78196071  0.61848010  0.36949028  1.0
  H  H23  1  0.21803745  0.38151882  0.63050919  1.0
  H  H24  1  0.87187483  0.43294555  0.55234746  1.0
  H  H25  1  0.12811888  0.56705157  0.44765042  1.0
  H  H26  1  0.85332177  0.35974615  0.62545085  1.0
  H  H27  1  0.14667492  0.64025232  0.37454626  1.0
  H  H28  1  0.75691431  0.51339283  0.47480194  1.0
  H  H29  1  0.24308385  0.48660474  0.52519712  1.0
  H  H30  1  0.36621150  0.06253683  0.99249468  1.0
  H  H31  1  0.63380154  0.93746792  0.00750372  1.0
  H  H32  1  0.40910568  0.94022117  0.07344696  1.0
  H  H33  1  0.59089395  0.05978493  0.92655688  1.0
  H  H34  1  0.74218763  0.01379534  0.52479691  1.0
  H  H35  1  0.25780608  0.98620268  0.47520175  1.0
  H  H36  1  0.51286718  0.18040664  0.76800897  1.0
  H  H37  1  0.48713544  0.81959274  0.23199091  1.0
  H  H38  1  0.01512853  0.33236039  0.75597715  1.0
  H  H39  1  0.98487556  0.66763854  0.24402429  1.0
  C  C40  1  0.52456577  0.32634163  0.81796340  1.0
  C  C41  1  0.47543388  0.67365774  0.18203725  1.0
  C  C42  1  0.52761559  0.32365154  0.67591848  1.0
  C  C43  1  0.47238555  0.67634559  0.32407864  1.0
  C  C44  1  0.02638194  0.18163980  0.67600674  1.0
  C  C45  1  0.97361323  0.81835644  0.32399464  1.0
  C  C46  1  0.02636251  0.18421735  0.81850477  1.0
  C  C47  1  0.97363270  0.81578112  0.18149312  1.0
  C  C48  1  0.03882176  0.14453230  0.86514271  1.0
  C  C49  1  0.96117492  0.85546841  0.13485716  1.0
  C  C50  1  0.87333786  0.10882131  0.87605484  1.0
  C  C51  1  0.12665731  0.89118209  0.12394936  1.0
  C  C52  1  0.87419637  0.06856224  0.91709608  1.0
  C  C53  1  0.12580326  0.93144296  0.08290893  1.0
  C  C54  1  0.04457568  0.06226723  0.94937659  1.0
  C  C55  1  0.95543288  0.93773618  0.05062569  1.0
  C  C56  1  0.21122731  0.09814012  0.93751532  1.0
  C  C57  1  0.78878126  0.90186240  0.06248461  1.0
  C  C58  1  0.20986312  0.13967246  0.89694623  1.0
  C  C59  1  0.79013654  0.86032825  0.10305170  1.0
  C  C60  1  0.05357935  0.02513863  0.99552540  1.0
  C  C61  1  0.94643813  0.97486254  0.00447533  1.0
  C  C62  1  0.96759200  0.86254951  0.36828193  1.0
  C  C63  1  0.03240764  0.13744807  0.63171792  1.0
  C  C64  1  0.14185670  0.88946161  0.38704182  1.0
  C  C65  1  0.85814294  0.11053641  0.61295803  1.0
  C  C66  1  0.13413894  0.93143439  0.42809941  1.0
  C  C67  1  0.86585179  0.06856407  0.57189965  1.0
  C  C68  1  0.94569712  0.94601911  0.45037496  1.0
  C  C69  1  0.05429362  0.05397980  0.54962331  1.0
  C  C70  1  0.77179316  0.91815306  0.43069127  1.0
  C  C71  1  0.22820057  0.08184675  0.56930429  1.0
  C  C72  1  0.78197945  0.87695449  0.39019064  1.0
  C  C73  1  0.21802022  0.12304533  0.60980610  1.0
  C  C74  1  0.53347219  0.36801669  0.86411092  1.0
  C  C75  1  0.46652893  0.63198268  0.13589012  1.0
  C  C76  1  0.35812131  0.39220711  0.88513607  1.0
  C  C77  1  0.64188577  0.60779630  0.11486464  1.0
  C  C78  1  0.36647732  0.43213697  0.92706924  1.0
  C  C79  1  0.63352679  0.56786644  0.07293068  1.0
  C  C80  1  0.55229780  0.44812240  0.94897695  1.0
  C  C81  1  0.44770632  0.55188145  0.05102219  1.0
  C  C82  1  0.72740156  0.42329606  0.92866070  1.0
  C  C83  1  0.27259958  0.57670421  0.07133840  1.0
  C  C84  1  0.71801318  0.38363164  0.88636142  1.0
  C  C85  1  0.28198795  0.61636818  0.11363885  1.0
  C  C86  1  0.53488954  0.36666233  0.63182112  1.0
  C  C87  1  0.46510715  0.63333614  0.36817678  1.0
  C  C88  1  0.36040389  0.39268841  0.61316322  1.0
  C  C89  1  0.63959279  0.60730872  0.38683584  1.0
  C  C90  1  0.36756590  0.43356263  0.57223636  1.0
  C  C91  1  0.63243227  0.56643450  0.42776192  1.0
  C  C92  1  0.55564676  0.44786279  0.54979782  1.0
  C  C93  1  0.44434843  0.55213568  0.45020125  1.0
  C  C94  1  0.72982649  0.42090835  0.56940226  1.0
  C  C95  1  0.27017168  0.57909102  0.43059644  1.0
  C  C96  1  0.72026557  0.38082073  0.60987014  1.0
  C  C97  1  0.27972963  0.61917953  0.39012933  1.0
  N  N98  1  0.92090082  0.98687485  0.49088614  1.0
  N  N99  1  0.07909141  0.01312407  0.50911136  1.0
  N  N100  1  0.57951009  0.48855617  0.99136243  1.0
  N  N101  1  0.42049552  0.51144903  0.00863595  1.0
  N  N102  1  0.57935224  0.48737778  0.50909426  1.0
  N  N103  1  0.42064295  0.51262024  0.49090441  1.0
  Cl  Cl104  1  0.58011142  0.81666359  0.10963052  1.0
  Cl  Cl105  1  0.41988084  0.18333711  0.89036426  1.0
  O  O106  1  0.69289716  0.30202889  0.69092673  1.0
  O  O107  1  0.30711439  0.69797093  0.30907084  1.0
  O  O108  1  0.35271485  0.30981153  0.80185076  1.0
  O  O109  1  0.64728776  0.69018829  0.19814991  1.0
  O  O110  1  0.18820330  0.19733418  0.79619874  1.0
  O  O111  1  0.81179191  0.80266249  0.20379758  1.0
  O  O112  1  0.35859604  0.31220809  0.69556663  1.0
  O  O113  1  0.64141252  0.68778859  0.30443246  1.0
  O  O114  1  0.19273615  0.20402268  0.69010871  1.0
  O  O115  1  0.80725904  0.79597624  0.30988997  1.0
  O  O116  1  0.69033552  0.31118009  0.79803385  1.0
  O  O117  1  0.30966709  0.68881884  0.20196680  1.0
  O  O118  1  0.52042805  0.21692809  0.74801939  1.0
  O  O119  1  0.47957160  0.78307173  0.25198048  1.0
  O  O120  1  0.85878340  0.19308527  0.69667873  1.0
  O  O121  1  0.14120881  0.80691410  0.30332268  1.0
  O  O122  1  0.85305082  0.20035380  0.80388132  1.0
  O  O123  1  0.14694437  0.79964467  0.19611814  1.0
  O  O124  1  0.02057860  0.29005778  0.74731884  1.0
  O  O125  1  0.97941956  0.70994159  0.25268141  1.0
  O  O126  1  0.80088141  0.54112817  0.44538773  1.0
  O  O127  1  0.19911824  0.45886940  0.55461173  1.0
  O  O128  1  0.38533805  0.09267717  0.96559263  1.0
  O  O129  1  0.61467498  0.90732847  0.03440656  1.0
  O  O130  1  0.28975165  0.96565967  0.07251309  1.0
  O  O131  1  0.71025094  0.03434688  0.92749389  1.0
  O  O132  1  0.69762871  0.04242827  0.55408892  1.0
  O  O133  1  0.30236054  0.95756975  0.44590973  1.0
