# generated using pymatgen
data_Er4Si3H48(C7O2)12
_symmetry_space_group_name_H-M   'P 1'
_cell_length_a   17.49721221
_cell_length_b   17.49705844
_cell_length_c   24.89211499
_cell_angle_alpha   90.00202330
_cell_angle_beta   90.00374878
_cell_angle_gamma   65.40267955
_symmetry_Int_Tables_number   1
_chemical_formula_structural   Er4Si3H48(C7O2)12
_chemical_formula_sum   'Er8 Si6 H96 C168 O48'
_cell_volume   6929.17727185
_cell_formula_units_Z   2
loop_
 _symmetry_equiv_pos_site_id
 _symmetry_equiv_pos_as_xyz
  1  'x, y, z'
loop_
 _atom_site_type_symbol
 _atom_site_label
 _atom_site_symmetry_multiplicity
 _atom_site_fract_x
 _atom_site_fract_y
 _atom_site_fract_z
 _atom_site_occupancy
  Er  Er0  1  0.38354760  0.00220103  0.99998721  1.0
  Er  Er1  1  0.61645107  0.99778946  0.99998376  1.0
  Er  Er2  1  0.00221116  0.38354265  0.49999794  1.0
  Er  Er3  1  0.99778681  0.61646412  0.49998246  1.0
  Er  Er4  1  0.33117028  0.75572513  0.00000769  1.0
  Er  Er5  1  0.66879222  0.24427632  0.99996950  1.0
  Er  Er6  1  0.75575120  0.33109673  0.50003155  1.0
  Er  Er7  1  0.24425265  0.66888802  0.49994644  1.0
  Si  Si8  1  0.00002389  0.99995235  0.25001601  1.0
  Si  Si9  1  0.99996876  0.00005754  0.75003108  1.0
  Si  Si10  1  0.37955720  0.37954384  0.75000987  1.0
  Si  Si11  1  0.62039005  0.62047016  0.74997466  1.0
  Si  Si12  1  0.62049099  0.62039144  0.24997456  1.0
  Si  Si13  1  0.37957926  0.37956792  0.25001820  1.0
  H  H14  1  0.18118248  0.08065086  0.12514986  1.0
  H  H15  1  0.81880289  0.91934533  0.12512286  1.0
  H  H16  1  0.08064355  0.18120165  0.37487045  1.0
  H  H17  1  0.91945236  0.81865546  0.37484115  1.0
  H  H18  1  0.81868917  0.91945331  0.87485144  1.0
  H  H19  1  0.18133632  0.08054903  0.87486840  1.0
  H  H20  1  0.91929216  0.81889293  0.62513888  1.0
  H  H21  1  0.08058494  0.18129613  0.62516175  1.0
  H  H22  1  0.12629862  0.84458210  0.19963958  1.0
  H  H23  1  0.87377513  0.15531736  0.19965744  1.0
  H  H24  1  0.84464051  0.12622009  0.30037866  1.0
  H  H25  1  0.15540909  0.87369372  0.30036729  1.0
  H  H26  1  0.87370111  0.15544487  0.80038984  1.0
  H  H27  1  0.12624306  0.84463344  0.80036475  1.0
  H  H28  1  0.15532674  0.87379717  0.69964915  1.0
  H  H29  1  0.84460825  0.12631321  0.69965891  1.0
  H  H30  1  0.23090355  0.81833229  0.12735572  1.0
  H  H31  1  0.76916604  0.18161792  0.12735816  1.0
  H  H32  1  0.81835814  0.23085106  0.37265928  1.0
  H  H33  1  0.18175645  0.76898030  0.37259749  1.0
  H  H34  1  0.76901150  0.18175708  0.87262750  1.0
  H  H35  1  0.23094404  0.81827370  0.87260778  1.0
  H  H36  1  0.18156409  0.76922133  0.62734121  1.0
  H  H37  1  0.81829175  0.23097389  0.62740742  1.0
  H  H38  1  0.07408225  0.10880704  0.19692991  1.0
  H  H39  1  0.92589933  0.89113139  0.19692281  1.0
  H  H40  1  0.10882766  0.07407819  0.30309321  1.0
  H  H41  1  0.89122215  0.92584385  0.30310386  1.0
  H  H42  1  0.92585299  0.89124401  0.80311477  1.0
  H  H43  1  0.07414959  0.10880894  0.80312870  1.0
  H  H44  1  0.89111773  0.92596916  0.69694746  1.0
  H  H45  1  0.10880848  0.07415057  0.69691672  1.0
  H  H46  1  0.29997070  0.19894930  0.87276111  1.0
  H  H47  1  0.70001652  0.80104578  0.87272727  1.0
  H  H48  1  0.19891116  0.29998914  0.62725981  1.0
  H  H49  1  0.80102099  0.70003767  0.62723413  1.0
  H  H50  1  0.70004276  0.80104246  0.12723457  1.0
  H  H51  1  0.29998657  0.19893266  0.12727564  1.0
  H  H52  1  0.80107306  0.70000554  0.37273305  1.0
  H  H53  1  0.19896079  0.29996141  0.37274226  1.0
  H  H54  1  0.27354717  0.30180364  0.79813534  1.0
  H  H55  1  0.72641152  0.69820602  0.79809412  1.0
  H  H56  1  0.30177633  0.27354187  0.70188629  1.0
  H  H57  1  0.69812044  0.72648499  0.70182438  1.0
  H  H58  1  0.72649271  0.69815806  0.20184587  1.0
  H  H59  1  0.27356701  0.30180754  0.20189553  1.0
  H  H60  1  0.69825349  0.72640713  0.29807966  1.0
  H  H61  1  0.30183322  0.27355360  0.29812550  1.0
  H  H62  1  0.53748428  0.25007691  0.79666080  1.0
  H  H63  1  0.46247584  0.74991823  0.79665529  1.0
  H  H64  1  0.25013427  0.53747563  0.70333303  1.0
  H  H65  1  0.74986686  0.46252368  0.70331551  1.0
  H  H66  1  0.46255582  0.74984505  0.20331840  1.0
  H  H67  1  0.53749067  0.25016838  0.20331990  1.0
  H  H68  1  0.74992380  0.46248494  0.29664175  1.0
  H  H69  1  0.25011448  0.53748864  0.29667173  1.0
  H  H70  1  0.56154973  0.15068266  0.87269222  1.0
  H  H71  1  0.43844025  0.84930992  0.87269009  1.0
  H  H72  1  0.15072030  0.56155860  0.62731018  1.0
  H  H73  1  0.84930064  0.43845693  0.62730709  1.0
  H  H74  1  0.43846194  0.84927819  0.12730265  1.0
  H  H75  1  0.56156130  0.15073977  0.12729995  1.0
  H  H76  1  0.84929767  0.43842248  0.37269313  1.0
  H  H77  1  0.15070021  0.56155113  0.37269582  1.0
  H  H78  1  0.36105468  0.38929006  0.12962033  1.0
  H  H79  1  0.63906466  0.61064165  0.12957007  1.0
  H  H80  1  0.38930755  0.36102812  0.37042098  1.0
  H  H81  1  0.61100606  0.63845226  0.37041351  1.0
  H  H82  1  0.63854520  0.61093242  0.87039703  1.0
  H  H83  1  0.36134658  0.38910539  0.87042360  1.0
  H  H84  1  0.61059707  0.63911162  0.62959397  1.0
  H  H85  1  0.38909934  0.36138824  0.62959703  1.0
  H  H86  1  0.34458140  0.49826260  0.06242333  1.0
  H  H87  1  0.65555197  0.50161035  0.06239841  1.0
  H  H88  1  0.49831854  0.34453679  0.43760039  1.0
  H  H89  1  0.50212968  0.65473046  0.43762445  1.0
  H  H90  1  0.65482493  0.50205675  0.93761331  1.0
  H  H91  1  0.34504715  0.49801267  0.93763101  1.0
  H  H92  1  0.50156463  0.65566584  0.56241216  1.0
  H  H93  1  0.49800036  0.34505852  0.56238769  1.0
  H  H94  1  0.35399013  0.66368569  0.18755641  1.0
  H  H95  1  0.64592450  0.33633471  0.18755423  1.0
  H  H96  1  0.66368461  0.35400116  0.31244983  1.0
  H  H97  1  0.33618858  0.64657737  0.31242224  1.0
  H  H98  1  0.64644154  0.33620908  0.81242762  1.0
  H  H99  1  0.35365294  0.66374886  0.81244304  1.0
  H  H100  1  0.33634354  0.64583684  0.68753861  1.0
  H  H101  1  0.66377863  0.35359817  0.68757705  1.0
  H  H102  1  0.37177114  0.55326224  0.25539017  1.0
  H  H103  1  0.62822175  0.44679748  0.25536182  1.0
  H  H104  1  0.55321822  0.37175054  0.24463728  1.0
  H  H105  1  0.44663605  0.62867940  0.24461514  1.0
  H  H106  1  0.62857189  0.44663940  0.74460631  1.0
  H  H107  1  0.37144581  0.55330003  0.74463425  1.0
  H  H108  1  0.44679434  0.62810815  0.75536000  1.0
  H  H109  1  0.55333484  0.37146716  0.75539339  1.0
  C  C110  1  0.27396930  0.93221749  0.07695142  1.0
  C  C111  1  0.72606321  0.06777151  0.07692893  1.0
  C  C112  1  0.93221579  0.27393787  0.42307399  1.0
  C  C113  1  0.06790449  0.72579644  0.42298498  1.0
  C  C114  1  0.72585290  0.06789953  0.92299886  1.0
  C  C115  1  0.27412100  0.93210429  0.92302416  1.0
  C  C116  1  0.06770751  0.72619823  0.57690722  1.0
  C  C117  1  0.93213576  0.27411165  0.57700547  1.0
  C  C118  1  0.21267667  0.94799946  0.12183630  1.0
  C  C119  1  0.78736784  0.05196562  0.12181585  1.0
  C  C120  1  0.94801190  0.21264499  0.37818628  1.0
  C  C121  1  0.05210070  0.78717066  0.37814428  1.0
  C  C122  1  0.78720690  0.05210353  0.87815174  1.0
  C  C123  1  0.21277638  0.94791555  0.87816215  1.0
  C  C124  1  0.05190992  0.78747028  0.62180979  1.0
  C  C125  1  0.94793934  0.21278662  0.62187711  1.0
  C  C126  1  0.09207995  0.97874273  0.20401133  1.0
  C  C127  1  0.90795560  0.02118045  0.20402098  1.0
  C  C128  1  0.97878645  0.09202423  0.29602011  1.0
  C  C129  1  0.02127606  0.90786755  0.29600742  1.0
  C  C130  1  0.90787925  0.02130031  0.79602773  1.0
  C  C131  1  0.09207749  0.97877300  0.79602973  1.0
  C  C132  1  0.02117412  0.90800747  0.70401936  1.0
  C  C133  1  0.97874318  0.09214570  0.70403967  1.0
  C  C134  1  0.16862491  0.02955543  0.14208522  1.0
  C  C135  1  0.83137852  0.97041527  0.14207855  1.0
  C  C136  1  0.02956072  0.16862563  0.35793202  1.0
  C  C137  1  0.97052438  0.83124253  0.35791223  1.0
  C  C138  1  0.83126473  0.97053185  0.85792090  1.0
  C  C139  1  0.16874262  0.02948400  0.85792837  1.0
  C  C140  1  0.97036516  0.83147328  0.64208052  1.0
  C  C141  1  0.02950810  0.16872857  0.64211358  1.0
  C  C142  1  0.13794065  0.89704450  0.18394638  1.0
  C  C143  1  0.86211594  0.10287859  0.18394993  1.0
  C  C144  1  0.89708855  0.13788103  0.31607334  1.0
  C  C145  1  0.10298292  0.86199531  0.31606247  1.0
  C  C146  1  0.86201366  0.10300608  0.81607741  1.0
  C  C147  1  0.13793883  0.89705737  0.81606502  1.0
  C  C148  1  0.10286671  0.86216325  0.68394443  1.0
  C  C149  1  0.89704547  0.13799089  0.68397056  1.0
  C  C150  1  0.19731350  0.88159562  0.14334996  1.0
  C  C151  1  0.80274115  0.11835153  0.14334835  1.0
  C  C152  1  0.88161994  0.19726690  0.35666690  1.0
  C  C153  1  0.11848155  0.80256353  0.35662714  1.0
  C  C154  1  0.80258958  0.11849366  0.85664129  1.0
  C  C155  1  0.19737448  0.88154454  0.85663367  1.0
  C  C156  1  0.11831367  0.80281504  0.64333640  1.0
  C  C157  1  0.88155572  0.19740571  0.64339625  1.0
  C  C158  1  0.10891209  0.04457408  0.18249240  1.0
  C  C159  1  0.89110226  0.95536884  0.18248692  1.0
  C  C160  1  0.04459536  0.10890213  0.31752967  1.0
  C  C161  1  0.95546416  0.89100819  0.31753357  1.0
  C  C162  1  0.89101457  0.95548511  0.81754224  1.0
  C  C163  1  0.10896933  0.04456788  0.81755254  1.0
  C  C164  1  0.95534619  0.89116916  0.68249533  1.0
  C  C165  1  0.04456214  0.10897484  0.68249544  1.0
  C  C166  1  0.44591776  0.11315547  0.92422026  1.0
  C  C167  1  0.55409289  0.88684549  0.92420272  1.0
  C  C168  1  0.11315281  0.44593935  0.57577789  1.0
  C  C169  1  0.88685340  0.55409432  0.57578626  1.0
  C  C170  1  0.55409035  0.88685705  0.07576376  1.0
  C  C171  1  0.44593082  0.11313689  0.07578090  1.0
  C  C172  1  0.88685823  0.55406626  0.42421979  1.0
  C  C173  1  0.11312262  0.44591166  0.42421825  1.0
  C  C174  1  0.43192757  0.16974670  0.87724633  1.0
  C  C175  1  0.56805651  0.83025409  0.87722722  1.0
  C  C176  1  0.16974031  0.43194613  0.62276499  1.0
  C  C177  1  0.83022947  0.56808533  0.62275663  1.0
  C  C178  1  0.56808472  0.83024379  0.12274211  1.0
  C  C179  1  0.43195270  0.16974773  0.12276685  1.0
  C  C180  1  0.83027801  0.56803684  0.37723109  1.0
  C  C181  1  0.16974621  0.43192821  0.37725150  1.0
  C  C182  1  0.40369499  0.28345506  0.79194700  1.0
  C  C183  1  0.59626301  0.71654947  0.79192232  1.0
  C  C184  1  0.28347647  0.40368719  0.70807058  1.0
  C  C185  1  0.71645660  0.59632678  0.70803076  1.0
  C  C186  1  0.59634439  0.71647132  0.20803180  1.0
  C  C187  1  0.40370364  0.28350435  0.20806692  1.0
  C  C188  1  0.71658179  0.59627023  0.29191184  1.0
  C  C189  1  0.28349352  0.40369853  0.29195969  1.0
  C  C190  1  0.35119242  0.21082114  0.85542602  1.0
  C  C191  1  0.64878881  0.78917619  0.85540037  1.0
  C  C192  1  0.21080946  0.35120260  0.64459272  1.0
  C  C193  1  0.78912148  0.64882821  0.64456641  1.0
  C  C194  1  0.64883167  0.78914548  0.14456443  1.0
  C  C195  1  0.35120908  0.21082806  0.14459571  1.0
  C  C196  1  0.78921152  0.64877409  0.35540095  1.0
  C  C197  1  0.21083449  0.35119274  0.35542324  1.0
  C  C198  1  0.33733186  0.26754837  0.81342717  1.0
  C  C199  1  0.66263355  0.73245145  0.81339471  1.0
  C  C200  1  0.26754917  0.33733414  0.68659310  1.0
  C  C201  1  0.73236339  0.66269390  0.68654804  1.0
  C  C202  1  0.66269928  0.73238804  0.18655484  1.0
  C  C203  1  0.33734524  0.26758040  0.18659012  1.0
  C  C204  1  0.73249029  0.66263259  0.31338932  1.0
  C  C205  1  0.26758430  0.33733581  0.31343236  1.0
  C  C206  1  0.48496368  0.23896299  0.81278664  1.0
  C  C207  1  0.51500119  0.76103934  0.81276656  1.0
  C  C208  1  0.23900276  0.48495396  0.68722581  1.0
  C  C209  1  0.76096097  0.51505999  0.68719244  1.0
  C  C210  1  0.51507950  0.76095711  0.18719216  1.0
  C  C211  1  0.48496467  0.23903529  0.18721666  1.0
  C  C212  1  0.76104684  0.51500907  0.31275660  1.0
  C  C213  1  0.23900214  0.48496165  0.31280122  1.0
  C  C214  1  0.49916643  0.18305827  0.85526036  1.0
  C  C215  1  0.50081767  0.81694034  0.85525107  1.0
  C  C216  1  0.18308769  0.49917005  0.64474579  1.0
  C  C217  1  0.81690295  0.50084798  0.64473513  1.0
  C  C218  1  0.50086031  0.81689260  0.14472326  1.0
  C  C219  1  0.49917545  0.18311306  0.14473938  1.0
  C  C220  1  0.81694650  0.50080106  0.35524828  1.0
  C  C221  1  0.18307440  0.49916430  0.35527099  1.0
  C  C222  1  0.46305440  0.36702403  0.69826031  1.0
  C  C223  1  0.53684449  0.63303622  0.69823763  1.0
  C  C224  1  0.36702765  0.46303340  0.80176597  1.0
  C  C225  1  0.63292680  0.53696681  0.80173366  1.0
  C  C226  1  0.53699726  0.63295037  0.30174018  1.0
  C  C227  1  0.46309869  0.36699472  0.30176086  1.0
  C  C228  1  0.63304989  0.53687436  0.19823131  1.0
  C  C229  1  0.36699843  0.46311065  0.19827928  1.0
  C  C230  1  0.65236223  0.34226767  0.57953119  1.0
  C  C231  1  0.34751170  0.65779717  0.57951525  1.0
  C  C232  1  0.34231802  0.65235479  0.92049332  1.0
  C  C233  1  0.65765954  0.34766415  0.92048071  1.0
  C  C234  1  0.34769095  0.65771936  0.42047694  1.0
  C  C235  1  0.65248372  0.34219129  0.42046797  1.0
  C  C236  1  0.65774289  0.34754905  0.07952686  1.0
  C  C237  1  0.34224750  0.65244281  0.07955915  1.0
  C  C238  1  0.58760596  0.34915393  0.62070185  1.0
  C  C239  1  0.41224149  0.65094339  0.62070159  1.0
  C  C240  1  0.34919830  0.58758982  0.87932220  1.0
  C  C241  1  0.65078251  0.41241917  0.87930809  1.0
  C  C242  1  0.41244624  0.65082868  0.37930266  1.0
  C  C243  1  0.58771335  0.34908701  0.37929730  1.0
  C  C244  1  0.65092633  0.41227417  0.12071244  1.0
  C  C245  1  0.34910528  0.58768197  0.12072455  1.0
  C  C246  1  0.44910865  0.35940359  0.64319788  1.0
  C  C247  1  0.55066547  0.64092489  0.64318728  1.0
  C  C248  1  0.35940922  0.44909200  0.85682643  1.0
  C  C249  1  0.64051449  0.55092949  0.85679844  1.0
  C  C250  1  0.55098655  0.64047593  0.35680623  1.0
  C  C251  1  0.44925232  0.35917963  0.35681562  1.0
  C  C252  1  0.64089339  0.55070653  0.14317809  1.0
  C  C253  1  0.35919399  0.44924024  0.14322415  1.0
  C  C254  1  0.51043864  0.35024860  0.60486134  1.0
  C  C255  1  0.48927185  0.65018546  0.60487023  1.0
  C  C256  1  0.35026125  0.51043946  0.89516242  1.0
  C  C257  1  0.64965361  0.48960326  0.89514215  1.0
  C  C258  1  0.48965404  0.64962333  0.39514880  1.0
  C  C259  1  0.51063584  0.34995241  0.39513709  1.0
  C  C260  1  0.65012189  0.48931997  0.10486419  1.0
  C  C261  1  0.34997456  0.51060367  0.10489128  1.0
  C  C262  1  0.60319822  0.35544403  0.67521072  1.0
  C  C263  1  0.39682865  0.64424485  0.67519029  1.0
  C  C264  1  0.35548760  0.60317621  0.82481452  1.0
  C  C265  1  0.64453781  0.39680720  0.82479490  1.0
  C  C266  1  0.39680167  0.64464474  0.32479339  1.0
  C  C267  1  0.60316425  0.35566981  0.32480458  1.0
  C  C268  1  0.64430575  0.39683464  0.17520164  1.0
  C  C269  1  0.35566123  0.60316331  0.17522006  1.0
  C  C270  1  0.54143111  0.36433640  0.71320979  1.0
  C  C271  1  0.45858648  0.63544497  0.71319159  1.0
  C  C272  1  0.36435878  0.54139649  0.78681838  1.0
  C  C273  1  0.63564794  0.45857682  0.78679147  1.0
  C  C274  1  0.45858773  0.63572918  0.28679593  1.0
  C  C275  1  0.54138987  0.36450614  0.28681011  1.0
  C  C276  1  0.63550163  0.45860037  0.21319055  1.0
  C  C277  1  0.36450534  0.54140594  0.21322028  1.0
  O  O278  1  0.30944190  0.85720135  0.05806138  1.0
  O  O279  1  0.69064145  0.14278087  0.05802869  1.0
  O  O280  1  0.85720444  0.30938681  0.44196945  1.0
  O  O281  1  0.14297376  0.69003477  0.44177454  1.0
  O  O282  1  0.69012199  0.14295211  0.94181377  1.0
  O  O283  1  0.30979074  0.85706534  0.94185169  1.0
  O  O284  1  0.14269739  0.69086767  0.55797038  1.0
  O  O285  1  0.85707983  0.30978766  0.55818457  1.0
  O  O286  1  0.28879306  0.99266399  0.05931159  1.0
  O  O287  1  0.71117211  0.00736146  0.05928730  1.0
  O  O288  1  0.99263084  0.28880937  0.44072092  1.0
  O  O289  1  0.00738060  0.71118224  0.44071753  1.0
  O  O290  1  0.71118543  0.00738614  0.94070015  1.0
  O  O291  1  0.28883800  0.99258550  0.94073408  1.0
  O  O292  1  0.00733580  0.71123500  0.55928721  1.0
  O  O293  1  0.99262150  0.28881069  0.55929823  1.0
  O  O294  1  0.38394957  0.10073590  0.94230994  1.0
  O  O295  1  0.61609489  0.89921069  0.94228915  1.0
  O  O296  1  0.10077656  0.38394973  0.55767913  1.0
  O  O297  1  0.89925158  0.61607000  0.55769444  1.0
  O  O298  1  0.61607357  0.89924647  0.05767408  1.0
  O  O299  1  0.38394067  0.10074908  0.05770371  1.0
  O  O300  1  0.89923129  0.61606343  0.44230931  1.0
  O  O301  1  0.10072755  0.38392590  0.44229440  1.0
  O  O302  1  0.51997874  0.07964545  0.94395229  1.0
  O  O303  1  0.48003896  0.92039996  0.94394423  1.0
  O  O304  1  0.07964324  0.52000387  0.55604770  1.0
  O  O305  1  0.92036334  0.48003270  0.55605014  1.0
  O  O306  1  0.48001984  0.92036259  0.05604137  1.0
  O  O307  1  0.51998731  0.07965748  0.05603176  1.0
  O  O308  1  0.92037292  0.48000179  0.44395239  1.0
  O  O309  1  0.07960060  0.51997885  0.44394513  1.0
  O  O310  1  0.69864959  0.26996601  0.55951377  1.0
  O  O311  1  0.30225608  0.72990612  0.55881056  1.0
  O  O312  1  0.27001808  0.69861128  0.94053793  1.0
  O  O313  1  0.72997376  0.30128632  0.94044836  1.0
  O  O314  1  0.30112504  0.73007559  0.44030313  1.0
  O  O315  1  0.69807161  0.27001558  0.44095091  1.0
  O  O316  1  0.72986888  0.30207318  0.05894031  1.0
  O  O317  1  0.27007367  0.69810849  0.05910419  1.0
  O  O318  1  0.66039585  0.40859015  0.56396704  1.0
  O  O319  1  0.33844572  0.59172055  0.56463119  1.0
  O  O320  1  0.40864459  0.66041640  0.93601673  1.0
  O  O321  1  0.59129884  0.33973806  0.93609005  1.0
  O  O322  1  0.33994135  0.59132532  0.43621424  1.0
  O  O323  1  0.66122496  0.40834798  0.43556615  1.0
  O  O324  1  0.59159005  0.33871818  0.06453212  1.0
  O  O325  1  0.40843211  0.66108707  0.06441302  1.0
