# generated using pymatgen
data_ZnH10C12(NO)4
_symmetry_space_group_name_H-M   'P 1'
_cell_length_a   17.21223109
_cell_length_b   17.21225761
_cell_length_c   17.21237327
_cell_angle_alpha   64.69882695
_cell_angle_beta   81.64819899
_cell_angle_gamma   115.30092252
_symmetry_Int_Tables_number   1
_chemical_formula_structural   ZnH10C12(NO)4
_chemical_formula_sum   'Zn8 H80 C96 N32 O32'
_cell_volume   3817.86775124
_cell_formula_units_Z   8
loop_
 _symmetry_equiv_pos_site_id
 _symmetry_equiv_pos_as_xyz
  1  'x, y, z'
loop_
 _atom_site_type_symbol
 _atom_site_label
 _atom_site_symmetry_multiplicity
 _atom_site_fract_x
 _atom_site_fract_y
 _atom_site_fract_z
 _atom_site_occupancy
  Zn  Zn0  1  0.84642308  0.06042374  0.53699817  1.0
  Zn  Zn1  1  0.96300296  0.11657979  0.09742244  1.0
  Zn  Zn2  1  0.78600021  0.38342182  0.65357562  1.0
  Zn  Zn3  1  0.40257819  0.43957355  0.71400232  1.0
  Zn  Zn4  1  0.15357762  0.93957615  0.46300137  1.0
  Zn  Zn5  1  0.03699672  0.88341937  0.90257854  1.0
  Zn  Zn6  1  0.21400137  0.61657795  0.34642475  1.0
  Zn  Zn7  1  0.59742170  0.56042646  0.28599781  1.0
  H  H8  1  0.97144872  0.08467240  0.35922067  1.0
  H  H9  1  0.14078152  0.16933346  0.94389215  1.0
  H  H10  1  0.88677721  0.33066822  0.52855136  1.0
  H  H11  1  0.55610946  0.41532772  0.61322417  1.0
  H  H12  1  0.02855205  0.91532748  0.64078029  1.0
  H  H13  1  0.85921896  0.83066714  0.05610739  1.0
  H  H14  1  0.11322451  0.66933197  0.47144928  1.0
  H  H15  1  0.44389136  0.58467414  0.38677481  1.0
  H  H16  1  0.68507821  0.87468924  0.53849415  1.0
  H  H17  1  0.96150491  0.27642807  0.91318375  1.0
  H  H18  1  0.81038877  0.22357407  0.81492003  1.0
  H  H19  1  0.58681482  0.62530840  0.68961246  1.0
  H  H20  1  0.31492153  0.12531190  0.46150484  1.0
  H  H21  1  0.03849368  0.72357036  0.08681726  1.0
  H  H22  1  0.18961086  0.77642355  0.18508038  1.0
  H  H23  1  0.41318530  0.37469092  0.31038766  1.0
  H  H24  1  0.63549192  0.75544124  0.46004384  1.0
  H  H25  1  0.03995488  0.40446436  0.71548474  1.0
  H  H26  1  0.88005125  0.09553583  0.86450701  1.0
  H  H27  1  0.78451481  0.74455990  0.61994906  1.0
  H  H28  1  0.36450913  0.24455993  0.53995513  1.0
  H  H29  1  0.96004581  0.59553709  0.28451395  1.0
  H  H30  1  0.11994757  0.90446190  0.13549399  1.0
  H  H31  1  0.21548251  0.25544003  0.38005255  1.0
  H  H32  1  0.80626279  0.81935959  0.30375036  1.0
  H  H33  1  0.19624734  0.38998588  0.62311208  1.0
  H  H34  1  0.98690303  0.11001457  0.69373573  1.0
  H  H35  1  0.87688858  0.68064043  0.51309716  1.0
  H  H36  1  0.19373815  0.18063962  0.69624916  1.0
  H  H37  1  0.80375131  0.61001410  0.37688949  1.0
  H  H38  1  0.01309723  0.88998517  0.30626467  1.0
  H  H39  1  0.12311054  0.31936279  0.48690327  1.0
  H  H40  1  0.88267543  0.88298466  0.64840189  1.0
  H  H41  1  0.85159925  0.96892478  0.03138741  1.0
  H  H42  1  0.99969029  0.53107748  0.61732319  1.0
  H  H43  1  0.46861196  0.61701090  0.50031143  1.0
  H  H44  1  0.11732519  0.11701636  0.35159793  1.0
  H  H45  1  0.14840006  0.03107465  0.96861330  1.0
  H  H46  1  0.00030997  0.46892225  0.38267721  1.0
  H  H47  1  0.53138794  0.38298911  0.49968869  1.0
  H  H48  1  0.71030106  0.96258599  0.75117983  1.0
  H  H49  1  0.74881881  0.03851576  0.21376891  1.0
  H  H50  1  0.74771478  0.46148455  0.78969517  1.0
  H  H51  1  0.28623116  0.53741083  0.75228398  1.0
  H  H52  1  0.28969878  0.03741405  0.24881887  1.0
  H  H53  1  0.25118087  0.96148339  0.78623207  1.0
  H  H54  1  0.25228511  0.53851546  0.21030495  1.0
  H  H55  1  0.71376836  0.46258945  0.24771587  1.0
  H  H56  1  0.66574317  0.83764527  0.94640318  1.0
  H  H57  1  0.55359428  0.88784990  0.28405266  1.0
  H  H58  1  0.82809695  0.61214694  0.83425607  1.0
  H  H59  1  0.21594955  0.66235386  0.67190138  1.0
  H  H60  1  0.33425717  0.16235491  0.05359608  1.0
  H  H61  1  0.44640518  0.11214996  0.71594832  1.0
  H  H62  1  0.17190339  0.38785323  0.16574319  1.0
  H  H63  1  0.78405100  0.33764717  0.32809702  1.0
  H  H64  1  0.74096791  0.69704612  0.98104238  1.0
  H  H65  1  0.51895861  0.77798948  0.17808991  1.0
  H  H66  1  0.04392074  0.72200825  0.75903364  1.0
  H  H67  1  0.32191214  0.80295167  0.45608018  1.0
  H  H68  1  0.25903185  0.30295347  0.01895746  1.0
  H  H69  1  0.48104200  0.22201153  0.82190992  1.0
  H  H70  1  0.95607988  0.27799277  0.24096618  1.0
  H  H71  1  0.67808822  0.19704696  0.54391992  1.0
  H  H72  1  0.90484357  0.96562084  0.30296870  1.0
  H  H73  1  0.19703119  0.29218818  0.76858892  1.0
  H  H74  1  0.93922300  0.20781062  0.59515753  1.0
  H  H75  1  0.73141296  0.53438220  0.56077631  1.0
  H  H76  1  0.09515726  0.03438103  0.69703027  1.0
  H  H77  1  0.80296820  0.70781169  0.23141064  1.0
  H  H78  1  0.06077626  0.79218728  0.40484261  1.0
  H  H79  1  0.26858847  0.46561870  0.43922292  1.0
  H  H80  1  0.83374045  0.78766044  0.82633397  1.0
  H  H81  1  0.67366691  0.83992596  0.11399589  1.0
  H  H82  1  0.04608001  0.66007529  0.66625742  1.0
  H  H83  1  0.38600379  0.71233473  0.45392240  1.0
  H  H84  1  0.16625945  0.21233958  0.17366614  1.0
  H  H85  1  0.32633277  0.16007319  0.88600509  1.0
  H  H86  1  0.95392047  0.33992531  0.33374211  1.0
  H  H87  1  0.61399610  0.28766528  0.54607773  1.0
  C  C88  1  0.89941705  0.02098220  0.39025593  1.0
  C  C89  1  0.10974495  0.21032893  0.91123810  1.0
  C  C90  1  0.87843485  0.28967249  0.60058311  1.0
  C  C91  1  0.58876265  0.47901784  0.62156573  1.0
  C  C92  1  0.10058364  0.97901925  0.60974275  1.0
  C  C93  1  0.89025567  0.78967209  0.08876172  1.0
  C  C94  1  0.12156592  0.71032740  0.39941784  1.0
  C  C95  1  0.41123841  0.52098334  0.37843322  1.0
  C  C96  1  0.75112845  0.91129017  0.48204986  1.0
  C  C97  1  0.01795042  0.26682340  0.89334081  1.0
  C  C98  1  0.83983984  0.23318128  0.74887038  1.0
  C  C99  1  0.60665820  0.58870679  0.66016484  1.0
  C  C100  1  0.24887291  0.08871074  0.51794796  1.0
  C  C101  1  0.98205026  0.73317760  0.10666043  1.0
  C  C102  1  0.16016333  0.76681935  0.25113052  1.0
  C  C103  1  0.39334096  0.41129377  0.33983473  1.0
  C  C104  1  0.77022411  0.88510199  0.41900312  1.0
  C  C105  1  0.08099705  0.31077426  0.80410570  1.0
  C  C106  1  0.88512095  0.18922620  0.72977576  1.0
  C  C107  1  0.69589256  0.61489572  0.61488039  1.0
  C  C108  1  0.22977694  0.11489918  0.58099585  1.0
  C  C109  1  0.91900176  0.68922503  0.19589444  1.0
  C  C110  1  0.11487854  0.81077100  0.27022437  1.0
  C  C111  1  0.30410559  0.38510456  0.38511807  1.0
  C  C112  1  0.70926236  0.80224305  0.41224917  1.0
  C  C113  1  0.08774911  0.37848748  0.71449332  1.0
  C  C114  1  0.90701898  0.12151197  0.79073608  1.0
  C  C115  1  0.78550650  0.69775667  0.59297996  1.0
  C  C116  1  0.29073856  0.19775771  0.58774951  1.0
  C  C117  1  0.91224925  0.62151164  0.28550769  1.0
  C  C118  1  0.09298179  0.87848791  0.20926487  1.0
  C  C119  1  0.21449061  0.30224240  0.40702250  1.0
  C  C120  1  0.73400678  0.77645732  0.35347659  1.0
  C  C121  1  0.14652332  0.41251737  0.62993486  1.0
  C  C122  1  0.95754785  0.08748285  0.76599240  1.0
  C  C123  1  0.87006254  0.72354111  0.54245386  1.0
  C  C124  1  0.26599459  0.22354160  0.64652463  1.0
  C  C125  1  0.85347764  0.58748491  0.37006440  1.0
  C  C126  1  0.04245206  0.91251562  0.23400857  1.0
  C  C127  1  0.12993600  0.27646152  0.45754715  1.0
  C  C128  1  0.66267494  0.68986748  0.35298332  1.0
  C  C129  1  0.14701503  0.48433992  0.54285212  1.0
  C  C130  1  0.97280646  0.01565906  0.83732260  1.0
  C  C131  1  0.95714746  0.81013218  0.52719141  1.0
  C  C132  1  0.33732496  0.31013254  0.64701679  1.0
  C  C133  1  0.85298436  0.51565995  0.45714744  1.0
  C  C134  1  0.02719380  0.98434068  0.16267780  1.0
  C  C135  1  0.04285247  0.18987092  0.47280843  1.0
  C  C136  1  0.83741890  0.88641246  0.69643074  1.0
  C  C137  1  0.80357048  0.96615207  0.08284413  1.0
  C  C138  1  0.95100541  0.53384952  0.66257952  1.0
  C  C139  1  0.41715505  0.61358330  0.54899476  1.0
  C  C140  1  0.16258209  0.11358829  0.30356935  1.0
  C  C141  1  0.19642978  0.03384766  0.91715627  1.0
  C  C142  1  0.04899413  0.46614921  0.33742118  1.0
  C  C143  1  0.58284427  0.38641614  0.45100594  1.0
  C  C144  1  0.74726413  0.92476069  0.75226376  1.0
  C  C145  1  0.74773518  0.00047034  0.17702583  1.0
  C  C146  1  0.82250485  0.49952951  0.75273431  1.0
  C  C147  1  0.32297514  0.57523932  0.67749525  1.0
  C  C148  1  0.25273526  0.07523917  0.24773581  1.0
  C  C149  1  0.25226434  0.99952994  0.82297402  1.0
  C  C150  1  0.17749600  0.50047082  0.24726550  1.0
  C  C151  1  0.67702461  0.42476183  0.32250373  1.0
  C  C152  1  0.74991609  0.85305101  0.82854664  1.0
  C  C153  1  0.67145238  0.92153551  0.18159963  1.0
  C  C154  1  0.89686535  0.57846423  0.75008140  1.0
  C  C155  1  0.31840220  0.64694873  0.60313392  1.0
  C  C156  1  0.25008330  0.14694886  0.17145293  1.0
  C  C157  1  0.32854738  0.07846409  0.81840021  1.0
  C  C158  1  0.10313462  0.42153621  0.24991759  1.0
  C  C159  1  0.68159921  0.35305372  0.39686447  1.0
  C  C160  1  0.70443994  0.80763460  0.92716836  1.0
  C  C161  1  0.57282922  0.86838772  0.23480750  1.0
  C  C162  1  0.89680458  0.63160871  0.79555915  1.0
  C  C163  1  0.26519587  0.69236427  0.60319466  1.0
  C  C164  1  0.29555996  0.19236542  0.07283176  1.0
  C  C165  1  0.42717039  0.13161100  0.76519461  1.0
  C  C166  1  0.10319597  0.36839232  0.20443926  1.0
  C  C167  1  0.73480410  0.30763618  0.39680432  1.0
  C  C168  1  0.70495138  0.73107583  0.99620753  1.0
  C  C169  1  0.50379111  0.79883746  0.22728632  1.0
  C  C170  1  0.97387525  0.70115932  0.79504864  1.0
  C  C171  1  0.27271553  0.76892294  0.52612356  1.0
  C  C172  1  0.29504801  0.26892404  0.00379203  1.0
  C  C173  1  0.49620842  0.20116283  0.77271352  1.0
  C  C174  1  0.02612486  0.29884155  0.20495062  1.0
  C  C175  1  0.72728525  0.23107740  0.47387484  1.0
  C  C176  1  0.65630450  0.68763984  0.09641356  1.0
  C  C177  1  0.40358395  0.74727526  0.28405600  1.0
  C  C178  1  0.96866564  0.75271708  0.84369687  1.0
  C  C179  1  0.21594730  0.81236197  0.53133286  1.0
  C  C180  1  0.34369598  0.31236076  0.90358597  1.0
  C  C181  1  0.59641537  0.25272418  0.71594470  1.0
  C  C182  1  0.03133542  0.24728410  0.15630209  1.0
  C  C183  1  0.78405275  0.18763736  0.46866585  1.0
  N  N184  1  0.83206265  0.99528002  0.46359320  1.0
  N  N185  1  0.03640653  0.20434536  0.95887295  1.0
  N  N186  1  0.83678243  0.29565622  0.66793718  1.0
  N  N187  1  0.54112667  0.50471857  0.66321921  1.0
  N  N188  1  0.16793767  0.00472170  0.53640521  1.0
  N  N189  1  0.96359265  0.79565365  0.04112747  1.0
  N  N190  1  0.16321762  0.70434267  0.33206407  1.0
  N  N191  1  0.45887301  0.49528059  0.33678177  1.0
  N  N192  1  0.86510806  0.95650852  0.36209262  1.0
  N  N193  1  0.13790871  0.27280149  0.81860113  1.0
  N  N194  1  0.90859891  0.22719931  0.63489215  1.0
  N  N195  1  0.68139991  0.54349085  0.59140209  1.0
  N  N196  1  0.13489337  0.04349238  0.63790661  1.0
  N  N197  1  0.86209118  0.72719851  0.18139900  1.0
  N  N198  1  0.09140180  0.77280059  0.36510738  1.0
  N  N199  1  0.31860020  0.45651002  0.40859718  1.0
  N  N200  1  0.80151272  0.94440666  0.67102781  1.0
  N  N201  1  0.82897174  0.02745949  0.11543690  1.0
  N  N202  1  0.85710589  0.47254296  0.69848468  1.0
  N  N203  1  0.38456225  0.55558916  0.64289522  1.0
  N  N204  1  0.19848762  0.05559352  0.32897144  1.0
  N  N205  1  0.17102772  0.97254037  0.88456408  1.0
  N  N206  1  0.14289437  0.52745678  0.30151572  1.0
  N  N207  1  0.61543714  0.44441071  0.35710434  1.0
  N  N208  1  0.80756621  0.83044608  0.79034550  1.0
  N  N209  1  0.70965526  0.90208836  0.12079360  1.0
  N  N210  1  0.97711999  0.59791239  0.69243255  1.0
  N  N211  1  0.37920694  0.66954995  0.52288139  1.0
  N  N212  1  0.19243368  0.16955393  0.20965463  1.0
  N  N213  1  0.29034443  0.09791081  0.87920737  1.0
  N  N214  1  0.02288071  0.40208750  0.30756699  1.0
  N  N215  1  0.62079319  0.33044937  0.47711872  1.0
  O  O216  1  0.69505181  0.67087156  0.29384811  1.0
  O  O217  1  0.20614879  0.51109651  0.46472129  1.0
  O  O218  1  0.02418059  0.98889986  0.80494961  1.0
  O  O219  1  0.03527988  0.82913239  0.47581780  1.0
  O  O220  1  0.30494859  0.32912860  0.70615257  1.0
  O  O221  1  0.79385170  0.48890253  0.53527910  1.0
  O  O222  1  0.97582062  0.01110019  0.19505048  1.0
  O  O223  1  0.96471898  0.17086844  0.52418291  1.0
  O  O224  1  0.57771027  0.63885235  0.40468818  1.0
  O  O225  1  0.09530708  0.51759643  0.54354461  1.0
  O  O226  1  0.93885207  0.98239519  0.92229201  1.0
  O  O227  1  0.95645698  0.86115019  0.56114361  1.0
  O  O228  1  0.42228999  0.36114739  0.59531222  1.0
  O  O229  1  0.90469464  0.48240376  0.45645604  1.0
  O  O230  1  0.06114951  0.01760458  0.07770835  1.0
  O  O231  1  0.04354316  0.13885376  0.43885538  1.0
  O  O232  1  0.65283496  0.60592355  0.15398803  1.0
  O  O233  1  0.34601097  0.69317489  0.25991073  1.0
  O  O234  1  0.04691151  0.80682208  0.84716632  1.0
  O  O235  1  0.24009041  0.89407957  0.45308687  1.0
  O  O236  1  0.34716515  0.39407732  0.84601124  1.0
  O  O237  1  0.65398915  0.30682443  0.74008939  1.0
  O  O238  1  0.95308839  0.19317794  0.15283380  1.0
  O  O239  1  0.75991006  0.10592102  0.54691268  1.0
  O  O240  1  0.62149397  0.72802512  0.12322629  1.0
  O  O241  1  0.37676931  0.75526830  0.35125708  1.0
  O  O242  1  0.89346941  0.74472113  0.87850586  1.0
  O  O243  1  0.14874472  0.77197435  0.60652543  1.0
  O  O244  1  0.37850492  0.27197461  0.87677271  1.0
  O  O245  1  0.62323103  0.24473187  0.64874217  1.0
  O  O246  1  0.10653144  0.25527920  0.12149395  1.0
  O  O247  1  0.85125534  0.22802498  0.39347327  1.0
