# generated using pymatgen
data_Zn3H68C98(N3O7)2
_symmetry_space_group_name_H-M   'P 1'
_cell_length_a   9.40193089
_cell_length_b   17.42773804
_cell_length_c   19.85892557
_cell_angle_alpha   76.12698183
_cell_angle_beta   83.48193613
_cell_angle_gamma   88.31093569
_symmetry_Int_Tables_number   1
_chemical_formula_structural   Zn3H68C98(N3O7)2
_chemical_formula_sum   'Zn3 H68 C98 N6 O14'
_cell_volume   3138.62378074
_cell_formula_units_Z   1
loop_
 _symmetry_equiv_pos_site_id
 _symmetry_equiv_pos_as_xyz
  1  'x, y, z'
loop_
 _atom_site_type_symbol
 _atom_site_label
 _atom_site_symmetry_multiplicity
 _atom_site_fract_x
 _atom_site_fract_y
 _atom_site_fract_z
 _atom_site_occupancy
  Zn  Zn0  1  0.12896934  0.95470631  0.01020359  1.0
  Zn  Zn1  1  0.87102658  0.04529386  0.98979599  1.0
  Zn  Zn2  1  0.00000043  0.50000077  0.00000189  1.0
  H  H3  1  0.81131338  0.40514401  0.98957901  1.0
  H  H4  1  0.18868684  0.59485792  0.01042348  1.0
  H  H5  1  0.84110892  0.36415468  0.06850163  1.0
  H  H6  1  0.15888916  0.63584607  0.93150022  1.0
  H  H7  1  0.27560988  0.03898006  0.18456865  1.0
  H  H8  1  0.72438173  0.96101775  0.81542763  1.0
  H  H9  1  0.25515824  0.16373108  0.37420191  1.0
  H  H10  1  0.74484624  0.83626671  0.62579669  1.0
  H  H11  1  0.33540501  0.12213654  0.26365766  1.0
  H  H12  1  0.66459195  0.87786185  0.73633870  1.0
  H  H13  1  0.32691772  0.25908438  0.43915972  1.0
  H  H14  1  0.67308462  0.74091282  0.56084062  1.0
  H  H15  1  0.56196132  0.88660994  0.14238803  1.0
  H  H16  1  0.43803889  0.11338608  0.85761268  1.0
  H  H17  1  0.93110049  0.38938530  0.56331143  1.0
  H  H18  1  0.06890079  0.61061545  0.43668924  1.0
  H  H19  1  0.95673286  0.26191156  0.21960384  1.0
  H  H20  1  0.04326627  0.73809155  0.78039645  1.0
  H  H21  1  0.42760843  0.77313876  0.22142749  1.0
  H  H22  1  0.57239822  0.22685784  0.77857476  1.0
  H  H23  1  0.94089619  0.74322999  0.13917281  1.0
  H  H24  1  0.05910613  0.25677076  0.86082377  1.0
  H  H25  1  0.21370918  0.45214022  0.27395054  1.0
  H  H26  1  0.78628889  0.54785817  0.72605080  1.0
  H  H27  1  0.81380657  0.35417140  0.80340689  1.0
  H  H28  1  0.18619474  0.64582698  0.19659880  1.0
  H  H29  1  0.80824771  0.62958895  0.21683707  1.0
  H  H30  1  0.19176212  0.37041120  0.78316124  1.0
  H  H31  1  0.89828977  0.17748928  0.14067048  1.0
  H  H32  1  0.10170400  0.82251502  0.85932985  1.0
  H  H33  1  0.14016685  0.35824964  0.20945194  1.0
  H  H34  1  0.85983443  0.64174934  0.79054860  1.0
  H  H35  1  0.40859714  0.68518945  0.33852315  1.0
  H  H36  1  0.59140842  0.31480598  0.66147639  1.0
  H  H37  1  0.44852035  0.44767515  0.49838045  1.0
  H  H38  1  0.55147878  0.55232323  0.50161983  1.0
  H  H39  1  0.90781738  0.34048091  0.68489060  1.0
  H  H40  1  0.09218178  0.65951925  0.31511383  1.0
  H  H41  1  0.35099733  0.12982985  0.03670625  1.0
  H  H42  1  0.64900073  0.87017208  0.96329333  1.0
  H  H43  1  0.26154840  0.47687977  0.90324504  1.0
  H  H44  1  0.73844859  0.52312039  0.09675498  1.0
  H  H45  1  0.45606765  0.37771492  0.89422325  1.0
  H  H46  1  0.54392719  0.62228465  0.10577449  1.0
  H  H47  1  0.51820098  0.42242995  0.28903087  1.0
  H  H48  1  0.48180134  0.57756725  0.71096594  1.0
  H  H49  1  0.24509747  0.22754695  0.08295405  1.0
  H  H50  1  0.75490488  0.77245439  0.91704744  1.0
  H  H51  1  0.64970831  0.31920316  0.93514420  1.0
  H  H52  1  0.35029189  0.68079818  0.06485640  1.0
  H  H53  1  0.04525790  0.38031607  0.44715466  1.0
  H  H54  1  0.95474017  0.61968409  0.55284681  1.0
  H  H55  1  0.18737157  0.53880059  0.66210795  1.0
  H  H56  1  0.81262434  0.46120134  0.33789175  1.0
  H  H57  1  0.33416024  0.45956983  0.61359836  1.0
  H  H58  1  0.66583889  0.54043033  0.38640154  1.0
  H  H59  1  0.55595751  0.03673468  0.03446666  1.0
  H  H60  1  0.44404268  0.96326725  0.96553129  1.0
  H  H61  1  0.64039144  0.54092502  0.21484949  1.0
  H  H62  1  0.35961089  0.45907396  0.78514847  1.0
  H  H63  1  0.09637533  0.54921481  0.78215857  1.0
  H  H64  1  0.90362486  0.45078948  0.21784040  1.0
  H  H65  1  0.28663597  0.56643756  0.41318697  1.0
  H  H66  1  0.71336314  0.43355964  0.58681003  1.0
  H  H67  1  0.83751256  0.21681562  0.93422533  1.0
  H  H68  1  0.16248122  0.78318572  0.06577462  1.0
  H  H69  1  0.06422571  0.33333333  0.08432977  1.0
  H  H70  1  0.93577987  0.66666667  0.91567381  1.0
  C  C71  1  0.20589193  0.08763294  0.19308640  1.0
  C  C72  1  0.79409968  0.91236663  0.80690950  1.0
  C  C73  1  0.24621749  0.22709586  0.35189816  1.0
  C  C74  1  0.75378484  0.77290193  0.64810005  1.0
  C  C75  1  0.23838739  0.13406543  0.23745241  1.0
  C  C76  1  0.76160957  0.86593355  0.76254282  1.0
  C  C77  1  0.28647667  0.28036584  0.38861604  1.0
  C  C78  1  0.71352889  0.71963136  0.61138362  1.0
  C  C79  1  0.90840553  0.45492210  0.87501455  1.0
  C  C80  1  0.09159789  0.54507983  0.12498625  1.0
  C  C81  1  0.61529450  0.83007764  0.15962782  1.0
  C  C82  1  0.38470570  0.16991956  0.84037163  1.0
  C  C83  1  0.04506767  0.40195647  0.54970603  1.0
  C  C84  1  0.95493146  0.59804369  0.45029387  1.0
  C  C85  1  0.02726774  0.21324966  0.21157700  1.0
  C  C86  1  0.97273032  0.78675345  0.78842234  1.0
  C  C87  1  0.08470885  0.10423949  0.15687411  1.0
  C  C88  1  0.91528171  0.89576363  0.84312615  1.0
  C  C89  1  0.54069152  0.76636303  0.20410424  1.0
  C  C90  1  0.45931404  0.23363357  0.79589605  1.0
  C  C91  1  0.82823126  0.74937819  0.15701174  1.0
  C  C92  1  0.17177107  0.25061961  0.84298546  1.0
  C  C93  1  0.22220769  0.38888052  0.29578630  1.0
  C  C94  1  0.77779359  0.61111727  0.70421398  1.0
  C  C95  1  0.89584641  0.39437934  0.77202110  1.0
  C  C96  1  0.10415595  0.60562082  0.22798164  1.0
  C  C97  1  0.19261833  0.25365457  0.28694375  1.0
  C  C98  1  0.80738614  0.74634322  0.71305384  1.0
  C  C99  1  0.75333348  0.68564639  0.20047727  1.0
  C  C100  1  0.24667313  0.31435140  0.79952070  1.0
  C  C101  1  0.99380763  0.16635782  0.16798586  1.0
  C  C102  1  0.00618508  0.83364530  0.83201528  1.0
  C  C103  1  0.18063666  0.33563608  0.25987973  1.0
  C  C104  1  0.81936033  0.66436231  0.74012116  1.0
  C  C105  1  0.75985913  0.82221278  0.13541986  1.0
  C  C106  1  0.24013785  0.17778384  0.86457889  1.0
  C  C107  1  0.43195543  0.62780638  0.32673241  1.0
  C  C108  1  0.56805119  0.37219200  0.67326644  1.0
  C  C109  1  0.25374264  0.41593826  0.46414779  1.0
  C  C110  1  0.74625863  0.58405954  0.53585198  1.0
  C  C111  1  0.33420843  0.43689075  0.51232257  1.0
  C  C112  1  0.66579070  0.56310941  0.48767783  1.0
  C  C113  1  0.05607520  0.06035250  0.10335149  1.0
  C  C114  1  0.94390682  0.93964826  0.89665175  1.0
  C  C115  1  0.94776256  0.38755680  0.70520112  1.0
  C  C116  1  0.05223873  0.61244336  0.29480219  1.0
  C  C117  1  0.45689408  0.15290356  0.01444997  1.0
  C  C118  1  0.54310612  0.84709956  0.98554976  1.0
  C  C119  1  0.26273170  0.42036360  0.94136841  1.0
  C  C120  1  0.73726851  0.57963774  0.05863169  1.0
  C  C121  1  0.37083488  0.36510648  0.93726575  1.0
  C  C122  1  0.62916318  0.63489486  0.06273447  1.0
  C  C123  1  0.49426268  0.48002586  0.30009486  1.0
  C  C124  1  0.50573645  0.51997135  0.69990365  1.0
  C  C125  1  0.48181807  0.23386019  0.98626425  1.0
  C  C126  1  0.51818533  0.76614351  0.01373367  1.0
  C  C127  1  0.25327631  0.28126365  0.04127810  1.0
  C  C128  1  0.74672498  0.71873946  0.95872459  1.0
  C  C129  1  0.62096897  0.25738966  0.95662110  1.0
  C  C130  1  0.37903445  0.74261286  0.04337908  1.0
  C  C131  1  0.15176647  0.19899635  0.24603350  1.0
  C  C132  1  0.84823264  0.80100322  0.75396401  1.0
  C  C133  1  0.60828385  0.69261031  0.22480117  1.0
  C  C134  1  0.39172599  0.30738807  0.77519750  1.0
  C  C135  1  0.39226008  0.48577915  0.35628135  1.0
  C  C136  1  0.60774226  0.51421983  0.64371762  1.0
  C  C137  1  0.53220173  0.62283830  0.26979604  1.0
  C  C138  1  0.46780704  0.37716008  0.73020370  1.0
  C  C139  1  0.10869446  0.39670751  0.48414198  1.0
  C  C140  1  0.89130467  0.60329265  0.51585842  1.0
  C  C141  1  0.10626632  0.49767960  0.69305900  1.0
  C  C142  1  0.89373283  0.50232233  0.30694355  1.0
  C  C143  1  0.12245871  0.42764492  0.59673789  1.0
  C  C144  1  0.87754257  0.57235405  0.40326315  1.0
  C  C145  1  0.26922694  0.44379760  0.57687574  1.0
  C  C146  1  0.73077433  0.55620197  0.42312417  1.0
  C  C147  1  0.05651611  0.43781126  0.66498456  1.0
  C  C148  1  0.94348518  0.56218949  0.33501762  1.0
  C  C149  1  0.95179916  0.45150059  0.80083706  1.0
  C  C150  1  0.04820213  0.54849957  0.19916474  1.0
  C  C151  1  0.56977555  0.09999032  0.01225715  1.0
  C  C152  1  0.43022143  0.90001280  0.98774225  1.0
  C  C153  1  0.36745561  0.29336552  0.98796046  1.0
  C  C154  1  0.63254459  0.70663700  0.01203989  1.0
  C  C155  1  0.27569187  0.36191896  0.36033220  1.0
  C  C156  1  0.72431262  0.63808001  0.63966815  1.0
  C  C157  1  0.56179130  0.54717927  0.25797020  1.0
  C  C158  1  0.43820890  0.45281971  0.74202939  1.0
  C  C159  1  0.84068742  0.88943659  0.08619928  1.0
  C  C160  1  0.15931062  0.11055944  0.91379651  1.0
  C  C161  1  0.05575062  0.50391776  0.75995268  1.0
  C  C162  1  0.94424960  0.49608240  0.24004917  1.0
  C  C163  1  0.36360102  0.56087741  0.36933890  1.0
  C  C164  1  0.63640132  0.43912097  0.63065968  1.0
  C  C165  1  0.72777601  0.20083034  0.95624507  1.0
  C  C166  1  0.27222525  0.79917218  0.04375421  1.0
  C  C167  1  0.15100718  0.34020711  0.04204451  1.0
  C  C168  1  0.84899411  0.65979719  0.95795842  1.0
  N  N169  1  0.31854425  0.41753776  0.39599980  1.0
  N  N170  1  0.68145810  0.58246063  0.60400080  1.0
  N  N171  1  0.15432049  0.40854440  0.99308362  1.0
  N  N172  1  0.84568401  0.59145930  0.00691826  1.0
  N  N173  1  0.70296890  0.12325365  0.98353074  1.0
  N  N174  1  0.29702701  0.87674888  0.01646834  1.0
  O  O175  1  0.82311831  0.40235503  0.91257989  1.0
  O  O176  1  0.17688618  0.59764985  0.08742074  1.0
  O  O177  1  0.97556094  0.88053962  0.07410906  1.0
  O  O178  1  0.02443816  0.11945345  0.92588579  1.0
  O  O179  1  0.94135668  0.07793990  0.07481289  1.0
  O  O180  1  0.05863178  0.92206145  0.92519138  1.0
  O  O181  1  0.81992051  0.41486894  0.03830383  1.0
  O  O182  1  0.18007970  0.58513358  0.96169803  1.0
  O  O183  1  0.15093573  0.01100725  0.08907670  1.0
  O  O184  1  0.84903984  0.98898879  0.91092285  1.0
  O  O185  1  0.76917714  0.95010125  0.05920321  1.0
  O  O186  1  0.23082950  0.04989536  0.94079803  1.0
  O  O187  1  0.96464383  0.50982289  0.89604884  1.0
  O  O188  1  0.03535424  0.49018082  0.10395289  1.0
