# generated using pymatgen
data_ZnH11C18NO4
_symmetry_space_group_name_H-M   'P 1'
_cell_length_a   16.15073518
_cell_length_b   18.16732966
_cell_length_c   19.09993704
_cell_angle_alpha   89.99995271
_cell_angle_beta   89.99997639
_cell_angle_gamma   92.61881086
_symmetry_Int_Tables_number   1
_chemical_formula_structural   ZnH11C18NO4
_chemical_formula_sum   'Zn8 H88 C144 N8 O32'
_cell_volume   5598.36905278
_cell_formula_units_Z   8
loop_
 _symmetry_equiv_pos_site_id
 _symmetry_equiv_pos_as_xyz
  1  'x, y, z'
loop_
 _atom_site_type_symbol
 _atom_site_label
 _atom_site_symmetry_multiplicity
 _atom_site_fract_x
 _atom_site_fract_y
 _atom_site_fract_z
 _atom_site_occupancy
  Zn  Zn0  1  0.63794152  0.32872417  0.49973753  1.0
  Zn  Zn1  1  0.36205930  0.17127730  0.99973510  1.0
  Zn  Zn2  1  0.36205894  0.67127644  0.50026415  1.0
  Zn  Zn3  1  0.63794056  0.82872387  0.00026449  1.0
  Zn  Zn4  1  0.81132504  0.35777778  0.50027362  1.0
  Zn  Zn5  1  0.18867537  0.14222303  0.00027583  1.0
  Zn  Zn6  1  0.18867604  0.64222283  0.49972440  1.0
  Zn  Zn7  1  0.81132447  0.85777758  0.99972428  1.0
  H  H8  1  0.57017065  0.49301154  0.64943379  1.0
  H  H9  1  0.42982832  0.00698693  0.14943183  1.0
  H  H10  1  0.42982842  0.50698631  0.35056895  1.0
  H  H11  1  0.57017151  0.99301368  0.85056724  1.0
  H  H12  1  0.55362042  0.58681378  0.74356076  1.0
  H  H13  1  0.44638028  0.91318797  0.24356005  1.0
  H  H14  1  0.44637942  0.41318684  0.25643935  1.0
  H  H15  1  0.55362080  0.08681265  0.75643849  1.0
  H  H16  1  0.61817944  0.67160935  0.83333903  1.0
  H  H17  1  0.38182045  0.82838956  0.33333333  1.0
  H  H18  1  0.38182164  0.32839127  0.16666056  1.0
  H  H19  1  0.61818051  0.17160885  0.66666667  1.0
  H  H20  1  0.87827093  0.66601504  0.87686530  1.0
  H  H21  1  0.12172827  0.83398272  0.37686163  1.0
  H  H22  1  0.12172945  0.33398392  0.12313743  1.0
  H  H23  1  0.87827391  0.16601514  0.62313744  1.0
  H  H24  1  0.89352291  0.56770980  0.78703782  1.0
  H  H25  1  0.10647636  0.93228859  0.28703512  1.0
  H  H26  1  0.10647620  0.43228861  0.21296439  1.0
  H  H27  1  0.89352463  0.06771037  0.71296499  1.0
  H  H28  1  0.83058011  0.48847467  0.69203650  1.0
  H  H29  1  0.16941888  0.01152432  0.19203568  1.0
  H  H30  1  0.16941841  0.51152429  0.30796518  1.0
  H  H31  1  0.83058093  0.98847574  0.80796496  1.0
  H  H32  1  0.57839663  0.46421842  0.32620760  1.0
  H  H33  1  0.42160600  0.03578045  0.82620525  1.0
  H  H34  1  0.42160690  0.53578164  0.67379356  1.0
  H  H35  1  0.57839314  0.96421851  0.17379538  1.0
  H  H36  1  0.56202656  0.55264399  0.22741195  1.0
  H  H37  1  0.43797460  0.94735446  0.72741033  1.0
  H  H38  1  0.43797505  0.44735497  0.77258921  1.0
  H  H39  1  0.56202392  0.05264450  0.27258978  1.0
  H  H40  1  0.62276574  0.65315074  0.15127762  1.0
  H  H41  1  0.37723309  0.84684998  0.65127557  1.0
  H  H42  1  0.37723418  0.34685153  0.84872197  1.0
  H  H43  1  0.62276598  0.15314788  0.34872349  1.0
  H  H44  1  0.87189353  0.73688458  0.18560384  1.0
  H  H45  1  0.12810594  0.76311667  0.68560561  1.0
  H  H46  1  0.12810637  0.26311714  0.81439418  1.0
  H  H47  1  0.87189157  0.23688670  0.31439398  1.0
  H  H48  1  0.88783206  0.64908766  0.28506964  1.0
  H  H49  1  0.11216740  0.85091460  0.78507030  1.0
  H  H50  1  0.11216789  0.35091516  0.71492943  1.0
  H  H51  1  0.88783001  0.14908712  0.21492824  1.0
  H  H52  1  0.82737553  0.54809164  0.36100973  1.0
  H  H53  1  0.17262463  0.95191275  0.86100924  1.0
  H  H54  1  0.17262763  0.45191338  0.63898933  1.0
  H  H55  1  0.82737271  0.04808731  0.13898930  1.0
  H  H56  1  0.94718473  0.30082651  0.58181525  1.0
  H  H57  1  0.05281434  0.19917313  0.08181484  1.0
  H  H58  1  0.05281505  0.69917300  0.41818434  1.0
  H  H59  1  0.94718545  0.80082638  0.91818370  1.0
  H  H60  1  0.10223377  0.30811159  0.58300911  1.0
  H  H61  1  0.89776598  0.19188915  0.08300894  1.0
  H  H62  1  0.89776604  0.69188847  0.41699100  1.0
  H  H63  1  0.10223448  0.80811146  0.91699117  1.0
  H  H64  1  0.22887752  0.43601200  0.46292383  1.0
  H  H65  1  0.77112205  0.06398895  0.96292291  1.0
  H  H66  1  0.77112347  0.56398696  0.53707733  1.0
  H  H67  1  0.22887838  0.93601111  0.03707668  1.0
  H  H68  1  0.21879133  0.28390372  0.53523512  1.0
  H  H69  1  0.78120718  0.21609651  0.03523654  1.0
  H  H70  1  0.78120843  0.71609524  0.46476499  1.0
  H  H71  1  0.21879199  0.78390300  0.96476462  1.0
  H  H72  1  0.34208897  0.21700259  0.53512466  1.0
  H  H73  1  0.65790957  0.28299819  0.03512554  1.0
  H  H74  1  0.65791084  0.78299747  0.46487598  1.0
  H  H75  1  0.34209027  0.71700242  0.96487352  1.0
  H  H76  1  0.49698421  0.21564001  0.52767958  1.0
  H  H77  1  0.50301433  0.28436078  0.02768052  1.0
  H  H78  1  0.50301557  0.78435950  0.47232053  1.0
  H  H79  1  0.49698549  0.71563928  0.97231907  1.0
  H  H80  1  0.51589145  0.43653856  0.47531701  1.0
  H  H81  1  0.48410874  0.06346238  0.97531672  1.0
  H  H82  1  0.48410837  0.56346150  0.52468467  1.0
  H  H83  1  0.51589107  0.93653768  0.02468340  1.0
  H  H84  1  0.36341320  0.44908253  0.48178826  1.0
  H  H85  1  0.63658699  0.05091840  0.98178844  1.0
  H  H86  1  0.63658659  0.55091698  0.51821238  1.0
  H  H87  1  0.36341285  0.94908221  0.01821062  1.0
  H  H88  1  0.09345164  0.46353270  0.41203100  1.0
  H  H89  1  0.90654801  0.03646940  0.91202953  1.0
  H  H90  1  0.90655188  0.53646736  0.58797016  1.0
  H  H91  1  0.09345180  0.96353067  0.08797058  1.0
  H  H92  1  0.93756744  0.44903755  0.41830942  1.0
  H  H93  1  0.06243216  0.05096344  0.91830876  1.0
  H  H94  1  0.06243612  0.55096306  0.58169070  1.0
  H  H95  1  0.93756700  0.94903607  0.08169031  1.0
  C  C96  1  0.71219585  0.43539209  0.60447447  1.0
  C  C97  1  0.28780754  0.06460753  0.10447461  1.0
  C  C98  1  0.28780948  0.56460688  0.39552616  1.0
  C  C99  1  0.71219165  0.93539253  0.89552602  1.0
  C  C100  1  0.70230820  0.48724771  0.66461444  1.0
  C  C101  1  0.29769015  0.01275076  0.16461305  1.0
  C  C102  1  0.29768905  0.51275070  0.33538724  1.0
  C  C103  1  0.70230969  0.98724986  0.83538654  1.0
  C  C104  1  0.62303932  0.51401586  0.68005010  1.0
  C  C105  1  0.37695818  0.98598319  0.18004883  1.0
  C  C106  1  0.37695852  0.48598200  0.31995158  1.0
  C  C107  1  0.62304231  0.01401798  0.81994971  1.0
  C  C108  1  0.61426120  0.56541206  0.73209266  1.0
  C  C109  1  0.38573754  0.93458749  0.23209300  1.0
  C  C110  1  0.38573670  0.43458690  0.26790693  1.0
  C  C111  1  0.61426292  0.06541313  0.76790554  1.0
  C  C112  1  0.68399864  0.59262924  0.77131580  1.0
  C  C113  1  0.31600190  0.90736973  0.27131619  1.0
  C  C114  1  0.31600244  0.40737138  0.22868483  1.0
  C  C115  1  0.68399909  0.09262923  0.72868340  1.0
  C  C116  1  0.67780508  0.64811147  0.82270339  1.0
  C  C117  1  0.32219358  0.85188744  0.32270277  1.0
  C  C118  1  0.32219417  0.35188969  0.17729673  1.0
  C  C119  1  0.67780865  0.14811152  0.67729525  1.0
  C  C120  1  0.74689259  0.67471640  0.85922547  1.0
  C  C121  1  0.25310411  0.82528083  0.35922438  1.0
  C  C122  1  0.25310657  0.32528311  0.14077516  1.0
  C  C123  1  0.74689683  0.17471703  0.64077416  1.0
  C  C124  1  0.82523089  0.64484430  0.84656784  1.0
  C  C125  1  0.17476705  0.85515294  0.34656518  1.0
  C  C126  1  0.17476760  0.35515410  0.15343437  1.0
  C  C127  1  0.82523515  0.14484547  0.65343389  1.0
  C  C128  1  0.83330005  0.59058497  0.79707869  1.0
  C  C129  1  0.16669856  0.90941287  0.29707756  1.0
  C  C130  1  0.16669905  0.40941344  0.20292299  1.0
  C  C131  1  0.83330302  0.09058554  0.70292308  1.0
  C  C132  1  0.76375654  0.56375683  0.75746078  1.0
  C  C133  1  0.23624460  0.93624160  0.25746013  1.0
  C  C134  1  0.23624383  0.43624213  0.24254038  1.0
  C  C135  1  0.76375701  0.06375736  0.74253946  1.0
  C  C136  1  0.77062550  0.51090574  0.70368890  1.0
  C  C137  1  0.22937511  0.98909383  0.20368663  1.0
  C  C138  1  0.22937488  0.48909322  0.29631331  1.0
  C  C139  1  0.77062594  0.01090623  0.79631348  1.0
  C  C140  1  0.73872489  0.73614934  0.91086489  1.0
  C  C141  1  0.26127612  0.76384784  0.41086384  1.0
  C  C142  1  0.26127614  0.26385017  0.08913575  1.0
  C  C143  1  0.73873287  0.23615002  0.58913523  1.0
  C  C144  1  0.71248393  0.44798170  0.40745183  1.0
  C  C145  1  0.28752020  0.05202315  0.90744952  1.0
  C  C146  1  0.28752480  0.55202332  0.59254933  1.0
  C  C147  1  0.71247772  0.94797636  0.09255060  1.0
  C  C148  1  0.70413678  0.50202341  0.34906628  1.0
  C  C149  1  0.29586339  0.99798099  0.84906362  1.0
  C  C150  1  0.29586506  0.49797996  0.65093488  1.0
  C  C151  1  0.70413524  0.00202017  0.15093755  1.0
  C  C152  1  0.62854707  0.50315951  0.31114575  1.0
  C  C153  1  0.37145421  0.99684217  0.81114358  1.0
  C  C154  1  0.37145719  0.49684275  0.68885542  1.0
  C  C155  1  0.62854428  0.00315624  0.18885758  1.0
  C  C156  1  0.62003733  0.55173407  0.25669947  1.0
  C  C157  1  0.37996142  0.94826601  0.75669839  1.0
  C  C158  1  0.37996374  0.44826654  0.74330011  1.0
  C  C159  1  0.62003707  0.05173240  0.24330277  1.0
  C  C160  1  0.68656291  0.60158369  0.23737739  1.0
  C  C161  1  0.31343526  0.89841696  0.73737637  1.0
  C  C162  1  0.31343696  0.39841748  0.76262220  1.0
  C  C163  1  0.68656390  0.10158255  0.26262322  1.0
  C  C164  1  0.68009221  0.65174318  0.18128504  1.0
  C  C165  1  0.31990658  0.84825697  0.68128458  1.0
  C  C166  1  0.31990698  0.34825688  0.81871403  1.0
  C  C167  1  0.68009191  0.15174144  0.31871344  1.0
  C  C168  1  0.74580843  0.69950107  0.16321794  1.0
  C  C169  1  0.25418975  0.80049909  0.66321806  1.0
  C  C170  1  0.25419138  0.30049899  0.83678113  1.0
  C  C171  1  0.74580705  0.19950262  0.33678101  1.0
  C  C172  1  0.82130032  0.69870328  0.20127721  1.0
  C  C173  1  0.17869719  0.80129630  0.70127841  1.0
  C  C174  1  0.17869887  0.30129678  0.79872133  1.0
  C  C175  1  0.82129899  0.19870542  0.29872013  1.0
  C  C176  1  0.82958420  0.65043340  0.25611877  1.0
  C  C177  1  0.17041579  0.84956667  0.75611784  1.0
  C  C178  1  0.17041626  0.34956721  0.74388082  1.0
  C  C179  1  0.82958157  0.15043394  0.24388018  1.0
  C  C180  1  0.76308850  0.60068352  0.27576337  1.0
  C  C181  1  0.23691091  0.89931764  0.77576238  1.0
  C  C182  1  0.23691201  0.39931819  0.72423622  1.0
  C  C183  1  0.76308769  0.10068297  0.22423721  1.0
  C  C184  1  0.76978212  0.54999288  0.33142535  1.0
  C  C185  1  0.23021986  0.95001044  0.83142275  1.0
  C  C186  1  0.23022161  0.45001104  0.66857529  1.0
  C  C187  1  0.76977812  0.04999018  0.16857684  1.0
  C  C188  1  0.73703785  0.75180484  0.10321562  1.0
  C  C189  1  0.26296227  0.74819648  0.60321526  1.0
  C  C190  1  0.26296137  0.24819577  0.89678292  1.0
  C  C191  1  0.73703835  0.25180744  0.39678328  1.0
  C  C192  1  0.98280087  0.33558824  0.54504861  1.0
  C  C193  1  0.01719827  0.16441253  0.04504877  1.0
  C  C194  1  0.01719956  0.66441182  0.45495045  1.0
  C  C195  1  0.98280218  0.83558808  0.95495082  1.0
  C  C196  1  0.06860907  0.33943010  0.54453987  1.0
  C  C197  1  0.93139129  0.16057012  0.04453971  1.0
  C  C198  1  0.93139254  0.66056886  0.45546077  1.0
  C  C199  1  0.06861041  0.83943049  0.95545988  1.0
  C  C200  1  0.11126088  0.38430422  0.49499204  1.0
  C  C201  1  0.88873867  0.11569670  0.99499261  1.0
  C  C202  1  0.88874079  0.61569584  0.50500807  1.0
  C  C203  1  0.11126111  0.88430281  0.00500698  1.0
  C  C204  1  0.20126105  0.38767314  0.48940980  1.0
  C  C205  1  0.79873727  0.11232778  0.98940988  1.0
  C  C206  1  0.79873873  0.61232637  0.51059188  1.0
  C  C207  1  0.20126133  0.88767283  0.01059075  1.0
  C  C208  1  0.24888322  0.33354709  0.51263345  1.0
  C  C209  1  0.75111657  0.16645372  0.01263388  1.0
  C  C210  1  0.75111713  0.66645132  0.48736771  1.0
  C  C211  1  0.24888384  0.83354579  0.98736624  1.0
  C  C212  1  0.33871762  0.33300547  0.50834651  1.0
  C  C213  1  0.66128219  0.16699589  0.00834749  1.0
  C  C214  1  0.66128281  0.66699459  0.49165465  1.0
  C  C215  1  0.33871762  0.83300417  0.99165210  1.0
  C  C216  1  0.37841716  0.26708195  0.52174396  1.0
  C  C217  1  0.62158203  0.23291940  0.02174437  1.0
  C  C218  1  0.62158265  0.73291812  0.47825720  1.0
  C  C219  1  0.37841717  0.76708066  0.97825469  1.0
  C  C220  1  0.46410910  0.26566597  0.51754864  1.0
  C  C221  1  0.53589189  0.23433428  0.01754961  1.0
  C  C222  1  0.53589192  0.73433355  0.48245200  1.0
  C  C223  1  0.46410792  0.76566578  0.98244998  1.0
  C  C224  1  0.47430522  0.38969527  0.48846787  1.0
  C  C225  1  0.52569434  0.11030566  0.98846804  1.0
  C  C226  1  0.52569459  0.61030480  0.51153277  1.0
  C  C227  1  0.47430488  0.88969495  0.01153102  1.0
  C  C228  1  0.38927172  0.39571887  0.49169197  1.0
  C  C229  1  0.61072722  0.10428205  0.99169265  1.0
  C  C230  1  0.61072809  0.60428119  0.50830814  1.0
  C  C231  1  0.38927259  0.89571801  0.00830642  1.0
  C  C232  1  0.06325617  0.42606225  0.44971073  1.0
  C  C233  1  0.93674403  0.07393871  0.94971027  1.0
  C  C234  1  0.93674733  0.57393726  0.55028991  1.0
  C  C235  1  0.06325581  0.92606190  0.05028985  1.0
  C  C236  1  0.97735585  0.41873193  0.45308702  1.0
  C  C237  1  0.02264249  0.08126903  0.95308688  1.0
  C  C238  1  0.02264396  0.58126813  0.54691257  1.0
  C  C239  1  0.97735670  0.91873103  0.04691271  1.0
  N  N240  1  0.93765189  0.37391820  0.49954531  1.0
  N  N241  1  0.06234767  0.12608272  0.99954564  1.0
  N  N242  1  0.06235046  0.62608297  0.50045218  1.0
  N  N243  1  0.93765091  0.87391734  0.00045342  1.0
  N  N244  1  0.51143433  0.32597716  0.50106007  1.0
  N  N245  1  0.48856478  0.17402256  0.00105954  1.0
  N  N246  1  0.48856545  0.67402235  0.49894109  1.0
  N  N247  1  0.51143503  0.82597751  0.99894005  1.0
  O  O248  1  0.64709675  0.41741918  0.56967019  1.0
  O  O249  1  0.35290117  0.08258212  0.06967082  1.0
  O  O250  1  0.35290058  0.58258088  0.43032888  1.0
  O  O251  1  0.64709805  0.91741849  0.93032877  1.0
  O  O252  1  0.78505966  0.41484910  0.59110741  1.0
  O  O253  1  0.21494003  0.08515053  0.09110651  1.0
  O  O254  1  0.21493830  0.58515096  0.40889323  1.0
  O  O255  1  0.78505919  0.91485008  0.90889360  1.0
  O  O256  1  0.80482371  0.76141388  0.94049795  1.0
  O  O257  1  0.19517427  0.73858493  0.44049694  1.0
  O  O258  1  0.19517672  0.23858618  0.05950269  1.0
  O  O259  1  0.80482982  0.26141403  0.55950160  1.0
  O  O260  1  0.66617083  0.75905124  0.92064241  1.0
  O  O261  1  0.33382530  0.74094759  0.42064240  1.0
  O  O262  1  0.33383024  0.24094937  0.07935822  1.0
  O  O263  1  0.66617513  0.25905248  0.57935562  1.0
  O  O264  1  0.78123833  0.44834911  0.44056083  1.0
  O  O265  1  0.21876379  0.05165296  0.94056011  1.0
  O  O266  1  0.21876404  0.55165261  0.55943876  1.0
  O  O267  1  0.78123605  0.94834765  0.05944053  1.0
  O  O268  1  0.64950203  0.40527468  0.41979221  1.0
  O  O269  1  0.35049571  0.09472630  0.91978775  1.0
  O  O270  1  0.35049716  0.59472538  0.58021104  1.0
  O  O271  1  0.64950284  0.90527321  0.08021184  1.0
  O  O272  1  0.66808460  0.74912813  0.07067940  1.0
  O  O273  1  0.33191301  0.75087212  0.57067954  1.0
  O  O274  1  0.33191645  0.25087194  0.92931966  1.0
  O  O275  1  0.66807813  0.24912794  0.42932005  1.0
  O  O276  1  0.79930870  0.79503855  0.08941136  1.0
  O  O277  1  0.20068887  0.70496113  0.58941158  1.0
  O  O278  1  0.20069173  0.20496151  0.91058823  1.0
  O  O279  1  0.79930408  0.29503783  0.41058748  1.0
