# generated using pymatgen
data_ZnH22C21NO6
_symmetry_space_group_name_H-M   'P 1'
_cell_length_a   10.87152419
_cell_length_b   13.98870730
_cell_length_c   15.03817040
_cell_angle_alpha   89.89671402
_cell_angle_beta   89.52916476
_cell_angle_gamma   89.84721481
_symmetry_Int_Tables_number   1
_chemical_formula_structural   ZnH22C21NO6
_chemical_formula_sum   'Zn2 H44 C42 N2 O12'
_cell_volume   2286.89447085
_cell_formula_units_Z   2
loop_
 _symmetry_equiv_pos_site_id
 _symmetry_equiv_pos_as_xyz
  1  'x, y, z'
loop_
 _atom_site_type_symbol
 _atom_site_label
 _atom_site_symmetry_multiplicity
 _atom_site_fract_x
 _atom_site_fract_y
 _atom_site_fract_z
 _atom_site_occupancy
  Zn  Zn0  1  0.50099637  0.59831707  0.49956802  1.0
  Zn  Zn1  1  0.50089728  0.39708619  0.49974830  1.0
  H  H2  1  0.88582014  0.34664491  0.49929872  1.0
  H  H3  1  0.52371385  0.35836321  0.23617367  1.0
  H  H4  1  0.46466629  0.34755670  0.92993762  1.0
  H  H5  1  0.56956000  0.35103821  0.07331842  1.0
  H  H6  1  0.32140609  0.06608444  0.56465314  1.0
  H  H7  1  0.67817860  0.06516625  0.43580471  1.0
  H  H8  1  0.32913320  0.24593613  0.56069353  1.0
  H  H9  1  0.67088669  0.24501107  0.43919176  1.0
  H  H10  1  0.76546743  0.70748015  0.68518467  1.0
  H  H11  1  0.75842598  0.58126490  0.68863407  1.0
  H  H12  1  0.89451056  0.70786289  0.82234956  1.0
  H  H13  1  0.11621065  0.34623425  0.50438550  1.0
  H  H14  1  0.88064287  0.58231521  0.83084618  1.0
  H  H15  1  0.99280364  0.56171524  0.68461686  1.0
  H  H16  1  0.08404830  0.62733643  0.76013775  1.0
  H  H17  1  0.00591886  0.68760051  0.67336970  1.0
  H  H18  1  0.24020317  0.70105403  0.30966243  1.0
  H  H19  1  0.24711046  0.57505972  0.30125647  1.0
  H  H20  1  0.11495723  0.70834431  0.17030365  1.0
  H  H21  1  0.12833983  0.58309975  0.15823838  1.0
  H  H22  1  0.01238201  0.55818271  0.30273425  1.0
  H  H23  1  0.92344470  0.62647621  0.22728357  1.0
  H  H24  1  0.55867906  0.75069765  0.36815959  1.0
  H  H25  1  0.99897032  0.68375765  0.31661334  1.0
  H  H26  1  0.51855137  0.02088662  0.24372441  1.0
  H  H27  1  0.40356442  0.00749708  0.32790476  1.0
  H  H28  1  0.49118882  0.84970465  0.19954162  1.0
  H  H29  1  0.37931564  0.83398376  0.28344020  1.0
  H  H30  1  0.24192379  0.95660465  0.20986091  1.0
  H  H31  1  0.27918540  0.86072790  0.13698007  1.0
  H  H32  1  0.35406994  0.97277972  0.12460894  1.0
  H  H33  1  0.48220360  0.01891199  0.75733909  1.0
  H  H34  1  0.59629262  0.00718150  0.67226520  1.0
  H  H35  1  0.44302447  0.75003610  0.63224160  1.0
  H  H36  1  0.51260838  0.84749800  0.80013099  1.0
  H  H37  1  0.62237672  0.83279192  0.71468341  1.0
  H  H38  1  0.76105201  0.95421967  0.78725943  1.0
  H  H39  1  0.72633292  0.85723483  0.85955489  1.0
  H  H40  1  0.65131885  0.96919035  0.87438891  1.0
  H  H41  1  0.91476664  0.56027228  0.45401883  1.0
  H  H42  1  0.08701781  0.56272733  0.53503147  1.0
  H  H43  1  0.60794684  0.63392983  0.95139786  1.0
  H  H44  1  0.40812727  0.63138352  0.04407638  1.0
  H  H45  1  0.50108433  0.35472553  0.76590116  1.0
  C  C46  1  0.56079405  0.50124666  0.66707503  1.0
  C  C47  1  0.53429772  0.89258490  0.42373229  1.0
  C  C48  1  0.46603946  0.89220283  0.57672999  1.0
  C  C49  1  0.53338054  0.79289812  0.42643262  1.0
  C  C50  1  0.46787324  0.79250219  0.57396768  1.0
  C  C51  1  0.49993172  0.94512771  0.50024396  1.0
  C  C52  1  0.26709984  0.49315405  0.53484728  1.0
  C  C53  1  0.73462006  0.49157924  0.46168394  1.0
  C  C54  1  0.93562578  0.41391774  0.49077774  1.0
  C  C55  1  0.06661000  0.41424843  0.50780562  1.0
  C  C56  1  0.87044134  0.49144099  0.46562855  1.0
  C  C57  1  0.44653831  0.50257505  0.33135771  1.0
  C  C58  1  0.13156816  0.49312914  0.52823913  1.0
  C  C59  1  0.58155525  0.57241907  0.91146910  1.0
  C  C60  1  0.43672768  0.57146537  0.08559989  1.0
  C  C61  1  0.60646494  0.57494649  0.82011707  1.0
  C  C62  1  0.40734494  0.57422148  0.17628563  1.0
  C  C63  1  0.57111972  0.49713590  0.76618901  1.0
  C  C64  1  0.44400637  0.49798621  0.23198634  1.0
  C  C65  1  0.52547075  0.41474744  0.80830035  1.0
  C  C66  1  0.49787784  0.41709336  0.19235123  1.0
  C  C67  1  0.50485333  0.41115350  0.89947637  1.0
  C  C68  1  0.52798292  0.49213502  0.95185897  1.0
  C  C69  1  0.52373284  0.41341547  0.10184936  1.0
  C  C70  1  0.76737317  0.64536982  0.73013808  1.0
  C  C71  1  0.88621100  0.64190243  0.78296530  1.0
  C  C72  1  0.99830652  0.62899713  0.72203896  1.0
  C  C73  1  0.23934161  0.64125936  0.26224652  1.0
  C  C74  1  0.12185316  0.64085226  0.20779688  1.0
  C  C75  1  0.00803052  0.62660488  0.26673835  1.0
  C  C76  1  0.47402441  0.96900649  0.28842574  1.0
  C  C77  1  0.41794882  0.88688077  0.23682452  1.0
  C  C78  1  0.31771154  0.92136196  0.17361082  1.0
  C  C79  1  0.49693783  0.49258703  0.04765411  1.0
  C  C80  1  0.52684559  0.96785216  0.71186556  1.0
  C  C81  1  0.58466827  0.88511479  0.76219467  1.0
  C  C82  1  0.68642243  0.91853750  0.82428022  1.0
  C  C83  1  0.40044954  0.10267652  0.53584026  1.0
  C  C84  1  0.59921160  0.10216527  0.46446690  1.0
  C  C85  1  0.40395068  0.20193257  0.53428993  1.0
  C  C86  1  0.59595887  0.20141152  0.46569978  1.0
  C  C87  1  0.49977682  0.05065645  0.50022207  1.0
  N  N88  1  0.49999796  0.25034186  0.49990493  1.0
  N  N89  1  0.50080284  0.74490393  0.50016448  1.0
  O  O90  1  0.53828708  0.58262959  0.63252275  1.0
  O  O91  1  0.34595467  0.65418588  0.20538754  1.0
  O  O92  1  0.57218638  0.93752413  0.34712757  1.0
  O  O93  1  0.42831813  0.93688170  0.65347662  1.0
  O  O94  1  0.46558810  0.58421524  0.36601163  1.0
  O  O95  1  0.56802697  0.42227925  0.62523818  1.0
  O  O96  1  0.43675945  0.42381258  0.37346357  1.0
  O  O97  1  0.31743419  0.57498537  0.52573587  1.0
  O  O98  1  0.68438852  0.57351417  0.47153766  1.0
  O  O99  1  0.32316091  0.41374214  0.54581090  1.0
  O  O100  1  0.67863037  0.41217754  0.45255671  1.0
  O  O101  1  0.66185045  0.65632896  0.78847981  1.0
