# generated using pymatgen
data_ZnH10C20N3O8
_symmetry_space_group_name_H-M   'P 1'
_cell_length_a   14.77746705
_cell_length_b   16.12179777
_cell_length_c   19.20446837
_cell_angle_alpha   89.99512044
_cell_angle_beta   90.01633611
_cell_angle_gamma   89.56014306
_symmetry_Int_Tables_number   1
_chemical_formula_structural   ZnH10C20N3O8
_chemical_formula_sum   'Zn2 H20 C40 N6 O16'
_cell_volume   4575.12475432
_cell_formula_units_Z   2
loop_
 _symmetry_equiv_pos_site_id
 _symmetry_equiv_pos_as_xyz
  1  'x, y, z'
loop_
 _atom_site_type_symbol
 _atom_site_label
 _atom_site_symmetry_multiplicity
 _atom_site_fract_x
 _atom_site_fract_y
 _atom_site_fract_z
 _atom_site_occupancy
  Zn  Zn0  1  0.59521071  0.49690356  0.49999431  1.0
  Zn  Zn1  1  0.40479960  0.50007293  0.50002555  1.0
  H  H2  1  0.64455253  0.51442414  0.27955397  1.0
  H  H3  1  0.56967158  0.05486771  0.39342492  1.0
  H  H4  1  0.93808616  0.63461110  0.54029548  1.0
  H  H5  1  0.06189531  0.36551281  0.45971232  1.0
  H  H6  1  0.98003543  0.34339925  0.60450745  1.0
  H  H7  1  0.01995958  0.65672462  0.39549931  1.0
  H  H8  1  0.61159147  0.01676180  0.64327457  1.0
  H  H9  1  0.38849992  0.98096932  0.35673331  1.0
  H  H10  1  0.28310460  0.01172887  0.50774663  1.0
  H  H11  1  0.71697052  0.98601161  0.49233361  1.0
  H  H12  1  0.02129081  0.54184617  0.66418103  1.0
  H  H13  1  0.35547650  0.51521707  0.72043067  1.0
  H  H14  1  0.97874121  0.45875334  0.33575022  1.0
  H  H15  1  0.64543806  0.53900111  0.15033033  1.0
  H  H16  1  0.35441837  0.54001151  0.84964468  1.0
  H  H17  1  0.35418907  0.54039167  0.14987468  1.0
  H  H18  1  0.64565620  0.53898695  0.85011645  1.0
  H  H19  1  0.35464903  0.51606727  0.27915204  1.0
  H  H20  1  0.64533451  0.51390034  0.72088831  1.0
  H  H21  1  0.43040768  0.94270343  0.60653973  1.0
  C  C22  1  0.50305025  0.66042429  0.49982858  1.0
  C  C23  1  0.41251058  0.02519517  0.50423904  1.0
  C  C24  1  0.50286811  0.91333263  0.49894820  1.0
  C  C25  1  0.49724770  0.08423839  0.50102063  1.0
  C  C26  1  0.50367005  0.82565239  0.49875631  1.0
  C  C27  1  0.49644446  0.17190685  0.50120782  1.0
  C  C28  1  0.96645934  0.57548228  0.52262218  1.0
  C  C29  1  0.03347077  0.42462442  0.47738197  1.0
  C  C30  1  0.02968334  0.51586184  0.56599831  1.0
  C  C31  1  0.97027781  0.48426461  0.43400897  1.0
  C  C32  1  0.02902890  0.56209268  0.45726975  1.0
  C  C33  1  0.49710027  0.33711002  0.50024022  1.0
  C  C34  1  0.97095263  0.43801820  0.54274482  1.0
  C  C35  1  0.09230327  0.50135756  0.50028664  1.0
  C  C36  1  0.90765328  0.49874038  0.49971751  1.0
  C  C37  1  0.49938187  0.50370760  0.36423536  1.0
  C  C38  1  0.50068659  0.50318085  0.63578477  1.0
  C  C39  1  0.18784150  0.50276282  0.50060865  1.0
  C  C40  1  0.81213361  0.49669058  0.49940542  1.0
  C  C41  1  0.58165129  0.51996930  0.25027597  1.0
  C  C42  1  0.41833306  0.52030495  0.74971724  1.0
  C  C43  1  0.58203449  0.53347263  0.17881883  1.0
  C  C44  1  0.54567815  0.02662119  0.55675126  1.0
  C  C45  1  0.41785550  0.53395050  0.82115127  1.0
  C  C46  1  0.49981441  0.54154689  0.14236259  1.0
  C  C47  1  0.50002806  0.54148646  0.85759252  1.0
  C  C48  1  0.41747468  0.53423001  0.17857473  1.0
  C  C49  1  0.58241515  0.53337300  0.82139954  1.0
  C  C50  1  0.41764195  0.52080684  0.25002461  1.0
  C  C51  1  0.58233684  0.51964607  0.74998734  1.0
  C  C52  1  0.49957274  0.51426311  0.28651568  1.0
  C  C53  1  0.50044609  0.51378958  0.71349660  1.0
  C  C54  1  0.49986856  0.55752383  0.93267098  1.0
  C  C55  1  0.45441937  0.97095423  0.44322277  1.0
  C  C56  1  0.49982383  0.55751601  0.06727860  1.0
  C  C57  1  0.46108206  0.96860837  0.55960085  1.0
  C  C58  1  0.53903986  0.02895829  0.44037786  1.0
  C  C59  1  0.50349604  0.75012156  0.49919516  1.0
  C  C60  1  0.49658667  0.24743592  0.50079293  1.0
  C  C61  1  0.58760853  0.97239321  0.49573863  1.0
  N  N62  1  0.41962863  0.56894999  0.03418203  1.0
  N  N63  1  0.57987033  0.56892497  0.96575704  1.0
  N  N64  1  0.41964966  0.56894798  0.96568402  1.0
  N  N65  1  0.57985479  0.56891331  0.03427328  1.0
  N  N66  1  0.26636953  0.50322396  0.50069270  1.0
  N  N67  1  0.73363805  0.49506879  0.49933807  1.0
  O  O68  1  0.58004217  0.62434620  0.50017332  1.0
  O  O69  1  0.06704890  0.62089836  0.41503250  1.0
  O  O70  1  0.59216850  0.06114831  0.61204560  1.0
  O  O71  1  0.40789002  0.93651718  0.38791228  1.0
  O  O72  1  0.32560467  0.05770212  0.50695088  1.0
  O  O73  1  0.67455196  0.93996926  0.49304346  1.0
  O  O74  1  0.06823742  0.52958039  0.62989747  1.0
  O  O75  1  0.93174309  0.47060245  0.37009315  1.0
  O  O76  1  0.42008254  0.37320122  0.49978665  1.0
  O  O77  1  0.42555914  0.62630079  0.50008499  1.0
  O  O78  1  0.57458557  0.37117956  0.50013795  1.0
  O  O79  1  0.57618406  0.49951076  0.39410572  1.0
  O  O80  1  0.42384525  0.50036550  0.60590105  1.0
  O  O81  1  0.42241040  0.50098552  0.39394454  1.0
  O  O82  1  0.57761672  0.49921702  0.60609346  1.0
  O  O83  1  0.93293668  0.37921499  0.58497998  1.0
