# generated using pymatgen
data_AlH27(C4O)12
_symmetry_space_group_name_H-M   'P 1'
_cell_length_a   4.05351968
_cell_length_b   23.49115947
_cell_length_c   23.53341844
_cell_angle_alpha   60.07447785
_cell_angle_beta   88.21628705
_cell_angle_gamma   88.41050543
_symmetry_Int_Tables_number   1
_chemical_formula_structural   AlH27(C4O)12
_chemical_formula_sum   'Al1 H27 C48 O12'
_cell_volume   1940.99401508
_cell_formula_units_Z   1
loop_
 _symmetry_equiv_pos_site_id
 _symmetry_equiv_pos_as_xyz
  1  'x, y, z'
loop_
 _atom_site_type_symbol
 _atom_site_label
 _atom_site_symmetry_multiplicity
 _atom_site_fract_x
 _atom_site_fract_y
 _atom_site_fract_z
 _atom_site_occupancy
  Al  Al0  1  0.96581802  0.50063981  0.50064957  1.0
  H  H1  1  0.74829411  0.32259722  0.67142451  1.0
  H  H2  1  0.73108848  0.20221727  0.73892179  1.0
  H  H3  1  0.24137317  0.97848467  0.84845360  1.0
  H  H4  1  0.19192755  0.66598429  0.31573196  1.0
  H  H5  1  0.19174716  0.72071718  0.19437486  1.0
  H  H6  1  0.68845600  0.76268819  0.11336544  1.0
  H  H7  1  0.72293277  0.82955082  0.99352232  1.0
  H  H8  1  0.51240899  0.88970398  0.89977282  1.0
  H  H9  1  0.77011252  0.50592668  0.32261189  1.0
  H  H10  1  0.75480229  0.55842962  0.20243971  1.0
  H  H11  1  0.26616129  0.67445139  0.97919305  1.0
  H  H12  1  0.15113481  0.52395256  0.66474005  1.0
  H  H13  1  0.14858373  0.59008483  0.72031305  1.0
  H  H14  1  0.66121207  0.62433652  0.76107800  1.0
  H  H15  1  0.71055705  0.67689523  0.82804409  1.0
  H  H16  1  0.49401148  0.71194984  0.88994917  1.0
  H  H17  1  0.73264563  0.67204724  0.50564370  1.0
  H  H18  1  0.71257387  0.73965401  0.55891837  1.0
  H  H19  1  0.22108688  0.84903219  0.67857402  1.0
  H  H20  1  0.20224033  0.31507061  0.52107534  1.0
  H  H21  1  0.20256130  0.19347493  0.58730578  1.0
  H  H22  1  0.70800319  0.11239931  0.62521876  1.0
  H  H23  1  0.74614733  0.99208730  0.67901819  1.0
  H  H24  1  0.49407893  0.89930696  0.71286025  1.0
  H  H25  1  0.81525041  0.84041500  0.63154152  1.0
  H  H26  1  0.83654502  0.03790189  0.83768610  1.0
  H  H27  1  0.87219915  0.62513912  0.03861706  1.0
  C  C28  1  0.47208552  0.39996843  0.55331643  1.0
  C  C29  1  0.44936201  0.55424824  0.54780194  1.0
  C  C30  1  0.47636520  0.54822420  0.40014137  1.0
  C  C31  1  0.62284866  0.29436960  0.65349031  1.0
  C  C32  1  0.61505838  0.22623344  0.69143424  1.0
  C  C33  1  0.33042929  0.07669184  0.76985901  1.0
  C  C34  1  0.34822486  0.00792494  0.79938103  1.0
  C  C35  1  0.32014526  0.64320346  0.29058879  1.0
  C  C36  1  0.31954737  0.67359658  0.22244851  1.0
  C  C37  1  0.59360637  0.74317168  0.08376882  1.0
  C  C38  1  0.61073860  0.78125227  0.01580771  1.0
  C  C39  1  0.47366587  0.32652486  0.59226375  1.0
  C  C40  1  0.46304466  0.18895363  0.66830318  1.0
  C  C41  1  0.46424285  0.11607083  0.70567093  1.0
  C  C42  1  0.49568827  0.97543201  0.76864164  1.0
  C  C43  1  0.50624249  0.90280874  0.80234159  1.0
  C  C44  1  0.51012692  0.86503915  0.87099374  1.0
  C  C45  1  0.63840063  0.55254091  0.29457724  1.0
  C  C46  1  0.63132096  0.58247900  0.22654754  1.0
  C  C47  1  0.34968778  0.65435818  0.07713700  1.0
  C  C48  1  0.36357837  0.69399123  0.00854315  1.0
  C  C49  1  0.27895266  0.57067484  0.64224459  1.0
  C  C50  1  0.27662623  0.60815794  0.67310162  1.0
  C  C51  1  0.56321977  0.67398727  0.74282274  1.0
  C  C52  1  0.58798570  0.70351899  0.78102013  1.0
  C  C53  1  0.47967269  0.58234009  0.32683588  1.0
  C  C54  1  0.46979989  0.64330161  0.18949312  1.0
  C  C55  1  0.47043090  0.67879625  0.11673631  1.0
  C  C56  1  0.49608831  0.75720039  0.97615514  1.0
  C  C57  1  0.50565573  0.79621189  0.90360684  1.0
  C  C58  1  0.49916017  0.76534904  0.86570320  1.0
  C  C59  1  0.59843930  0.65471175  0.55209503  1.0
  C  C60  1  0.58868224  0.69269633  0.58239317  1.0
  C  C61  1  0.30260120  0.77104281  0.65684754  1.0
  C  C62  1  0.32295684  0.79967368  0.69666975  1.0
  C  C63  1  0.32363291  0.29004062  0.56827348  1.0
  C  C64  1  0.32314701  0.22174851  0.60581640  1.0
  C  C65  1  0.60325100  0.08290362  0.67446178  1.0
  C  C66  1  0.62258298  0.01480173  0.70473188  1.0
  C  C67  1  0.44115141  0.59402765  0.58150934  1.0
  C  C68  1  0.42632059  0.66995870  0.64330633  1.0
  C  C69  1  0.42927090  0.70654916  0.67961282  1.0
  C  C70  1  0.46987651  0.76792312  0.75831368  1.0
  C  C71  1  0.49313651  0.80148313  0.79708248  1.0
  C  C72  1  0.49963146  0.87023888  0.76617162  1.0
  C  C73  1  0.15236612  0.81224420  0.59049340  1.0
  C  C74  1  0.17094868  0.10446107  0.80963494  1.0
  C  C75  1  0.20949048  0.58674865  0.10439809  1.0
  O  O76  1  0.70618279  0.56119980  0.42746131  1.0
  O  O77  1  0.71199103  0.42740492  0.51319280  1.0
  O  O78  1  0.68835207  0.51346494  0.56079578  1.0
  O  O79  1  0.24297491  0.50813791  0.42996912  1.0
  O  O80  1  0.21815823  0.56425944  0.50828498  1.0
  O  O81  1  0.23073523  0.42975940  0.56367807  1.0
  O  O82  1  0.90754700  0.85507576  0.58752607  1.0
  O  O83  1  0.24015444  0.81206751  0.54086409  1.0
  O  O84  1  0.92257858  0.06734798  0.85173852  1.0
  O  O85  1  0.25292604  0.15406287  0.80890857  1.0
  O  O86  1  0.96909147  0.58174339  0.06746958  1.0
  O  O87  1  0.30098278  0.53780953  0.15342058  1.0
