# generated using pymatgen
data_ZnH10C12(NO)2
_symmetry_space_group_name_H-M   'P 1'
_cell_length_a   13.71554075
_cell_length_b   18.11082809
_cell_length_c   18.11081837
_cell_angle_alpha   81.61512190
_cell_angle_beta   67.78131499
_cell_angle_gamma   67.78131485
_symmetry_Int_Tables_number   1
_chemical_formula_structural   ZnH10C12(NO)2
_chemical_formula_sum   'Zn8 H80 C96 N16 O16'
_cell_volume   3855.42157211
_cell_formula_units_Z   8
loop_
 _symmetry_equiv_pos_site_id
 _symmetry_equiv_pos_as_xyz
  1  'x, y, z'
loop_
 _atom_site_type_symbol
 _atom_site_label
 _atom_site_symmetry_multiplicity
 _atom_site_fract_x
 _atom_site_fract_y
 _atom_site_fract_z
 _atom_site_occupancy
  Zn  Zn0  1  0.12777565  0.71608321  0.26874128  1.0
  Zn  Zn1  1  0.88743732  0.76872806  0.21600750  1.0
  Zn  Zn2  1  0.37222332  0.73125955  0.28391652  1.0
  Zn  Zn3  1  0.61256243  0.78399210  0.23127168  1.0
  Zn  Zn4  1  0.87222290  0.28391776  0.73125909  1.0
  Zn  Zn5  1  0.11256323  0.23127112  0.78399177  1.0
  Zn  Zn6  1  0.62777835  0.26873963  0.71608321  1.0
  Zn  Zn7  1  0.38743727  0.21600767  0.76872814  1.0
  H  H8  1  0.28993902  0.51567351  0.13720124  1.0
  H  H9  1  0.05778168  0.63675238  0.01541304  1.0
  H  H10  1  0.21006284  0.86279923  0.48432573  1.0
  H  H11  1  0.44222051  0.98458762  0.36324663  1.0
  H  H12  1  0.71006517  0.48432508  0.86279784  1.0
  H  H13  1  0.94222107  0.36324799  0.98458738  1.0
  H  H14  1  0.78993853  0.13720054  0.51567400  1.0
  H  H15  1  0.55778198  0.01541216  0.63675355  1.0
  H  H16  1  0.39581807  0.41039184  0.03226115  1.0
  H  H17  1  0.16280847  0.53178636  0.91015705  1.0
  H  H18  1  0.10418288  0.96773905  0.58960776  1.0
  H  H19  1  0.33719294  0.08984347  0.46821300  1.0
  H  H20  1  0.60418252  0.58960615  0.96773789  1.0
  H  H21  1  0.83719316  0.46821402  0.08984368  1.0
  H  H22  1  0.89581511  0.03226192  0.41039159  1.0
  H  H23  1  0.66280645  0.91015691  0.53178604  1.0
  H  H24  1  0.62821032  0.38632834  0.80226098  1.0
  H  H25  1  0.18333737  0.30239498  0.88643995  1.0
  H  H26  1  0.87179056  0.19773825  0.61367135  1.0
  H  H27  1  0.31666316  0.11356067  0.69760451  1.0
  H  H28  1  0.37178934  0.61367264  0.19773829  1.0
  H  H29  1  0.81666319  0.69760420  0.11356009  1.0
  H  H30  1  0.12820769  0.80226332  0.38632901  1.0
  H  H31  1  0.68333568  0.88643970  0.30239429  1.0
  H  H32  1  0.55788535  0.41173417  0.90448211  1.0
  H  H33  1  0.12635727  0.40462672  0.91176449  1.0
  H  H34  1  0.94211524  0.09551687  0.58826621  1.0
  H  H35  1  0.37364439  0.08823592  0.59537238  1.0
  H  H36  1  0.44211461  0.58826621  0.09551716  1.0
  H  H37  1  0.87364243  0.59537306  0.08823611  1.0
  H  H38  1  0.05788245  0.90448470  0.41173393  1.0
  H  H39  1  0.62635611  0.91176445  0.40462477  1.0
  H  H40  1  0.51758961  0.47966401  0.83138440  1.0
  H  H41  1  0.17156428  0.33155899  0.97980447  1.0
  H  H42  1  0.98240957  0.16861524  0.52033580  1.0
  H  H43  1  0.32843639  0.02019595  0.66844068  1.0
  H  H44  1  0.48240868  0.52033636  0.16861573  1.0
  H  H45  1  0.82843628  0.66844019  0.02019636  1.0
  H  H46  1  0.01758782  0.83138692  0.47966433  1.0
  H  H47  1  0.67156189  0.97980443  0.33155790  1.0
  H  H48  1  0.20667585  0.82409000  0.04557866  1.0
  H  H49  1  0.92343555  0.54547456  0.32404566  1.0
  H  H50  1  0.29332125  0.95442327  0.17591172  1.0
  H  H51  1  0.57656407  0.67595497  0.45452593  1.0
  H  H52  1  0.79332467  0.17591037  0.95442240  1.0
  H  H53  1  0.07656642  0.45452402  0.67595406  1.0
  H  H54  1  0.70668155  0.04557591  0.82409002  1.0
  H  H55  1  0.42343730  0.32404481  0.54547302  1.0
  H  H56  1  0.20788897  0.92876320  0.93951639  1.0
  H  H57  1  0.92352319  0.43935402  0.42862220  1.0
  H  H58  1  0.29210597  0.06048438  0.07123530  1.0
  H  H59  1  0.57647617  0.57137705  0.56064508  1.0
  H  H60  1  0.79210818  0.07123837  0.06048585  1.0
  H  H61  1  0.07647740  0.56064397  0.57137762  1.0
  H  H62  1  0.70789314  0.93951659  0.92876686  1.0
  H  H63  1  0.42352464  0.42862273  0.43935363  1.0
  H  H64  1  0.00453768  0.13855731  0.88996782  1.0
  H  H65  1  0.96696786  0.38992489  0.63858108  1.0
  H  H66  1  0.49545974  0.11003244  0.86144292  1.0
  H  H67  1  0.53303044  0.36141914  0.61007520  1.0
  H  H68  1  0.99546062  0.86144306  0.11003310  1.0
  H  H69  1  0.03303154  0.61007548  0.36141873  1.0
  H  H70  1  0.50453769  0.88996853  0.13855699  1.0
  H  H71  1  0.46696841  0.63858123  0.38992517  1.0
  H  H72  1  0.00504271  0.10566397  0.98696438  1.0
  H  H73  1  0.90243473  0.48690211  0.60566199  1.0
  H  H74  1  0.49495750  0.01303386  0.89433620  1.0
  H  H75  1  0.59756424  0.39433803  0.51309815  1.0
  H  H76  1  0.99495614  0.89433640  0.01303599  1.0
  H  H77  1  0.09756467  0.51309826  0.39433782  1.0
  H  H78  1  0.50504109  0.98696592  0.10566394  1.0
  H  H79  1  0.40243460  0.60566234  0.48690221  1.0
  H  H80  1  0.06207744  0.03544817  0.90983540  1.0
  H  H81  1  0.99256065  0.40975180  0.53545387  1.0
  H  H82  1  0.43792092  0.09016427  0.96455226  1.0
  H  H83  1  0.50743895  0.46454624  0.59024814  1.0
  H  H84  1  0.93792227  0.96455161  0.09016520  1.0
  H  H85  1  0.00743875  0.59024857  0.46454595  1.0
  H  H86  1  0.56207989  0.90983551  0.03544724  1.0
  H  H87  1  0.49256045  0.53545413  0.40975245  1.0
  C  C88  1  0.10471974  0.64520897  0.14523385  1.0
  C  C89  1  0.39528059  0.85476672  0.35479035  1.0
  C  C90  1  0.89528193  0.35479021  0.85476665  1.0
  C  C91  1  0.60471997  0.14523246  0.64520970  1.0
  C  C92  1  0.16750782  0.58257931  0.08263922  1.0
  C  C93  1  0.33249378  0.91736172  0.41741971  1.0
  C  C94  1  0.83249579  0.41742046  0.91736064  1.0
  C  C95  1  0.66750815  0.08263806  0.58258024  1.0
  C  C96  1  0.26315557  0.51874235  0.08699193  1.0
  C  C97  1  0.13172951  0.58672666  0.01860762  1.0
  C  C98  1  0.23684728  0.91300818  0.48125703  1.0
  C  C99  1  0.36827264  0.98139353  0.41327295  1.0
  C  C100  1  0.73684836  0.48125564  0.91300771  1.0
  C  C101  1  0.86827354  0.41327312  0.98139357  1.0
  C  C102  1  0.76315324  0.08699220  0.51874324  1.0
  C  C103  1  0.63172873  0.01860625  0.58672678  1.0
  C  C104  1  0.32215517  0.46039721  0.02818815  1.0
  C  C105  1  0.19024395  0.52788862  0.96031200  1.0
  C  C106  1  0.17784630  0.97181169  0.53960306  1.0
  C  C107  1  0.30975796  0.03968890  0.47211025  1.0
  C  C108  1  0.67784680  0.53960138  0.97181079  1.0
  C  C109  1  0.80975519  0.47211116  0.03968915  1.0
  C  C110  1  0.82215395  0.02818808  0.46039699  1.0
  C  C111  1  0.69024341  0.96031088  0.52788869  1.0
  C  C112  1  0.28656420  0.46382584  0.96396598  1.0
  C  C113  1  0.21343788  0.03603448  0.53617380  1.0
  C  C114  1  0.71343721  0.53617274  0.03603352  1.0
  C  C115  1  0.78656294  0.96396529  0.46382570  1.0
  C  C116  1  0.34825471  0.40199550  0.90219526  1.0
  C  C117  1  0.15174569  0.09780387  0.59800461  1.0
  C  C118  1  0.65174440  0.59800547  0.09780534  1.0
  C  C119  1  0.84825405  0.90219472  0.40199498  1.0
  C  C120  1  0.46186144  0.38033161  0.85197564  1.0
  C  C121  1  0.30619098  0.35192978  0.88047909  1.0
  C  C122  1  0.03813865  0.14802445  0.61966820  1.0
  C  C123  1  0.19380995  0.11952088  0.64806931  1.0
  C  C124  1  0.53813797  0.61966876  0.14802496  1.0
  C  C125  1  0.69380902  0.64806940  0.11952073  1.0
  C  C126  1  0.96186050  0.85197533  0.38033217  1.0
  C  C127  1  0.80618944  0.88047950  0.35192895  1.0
  C  C128  1  0.54595271  0.41599310  0.84714801  1.0
  C  C129  1  0.19117855  0.34725786  0.91611375  1.0
  C  C130  1  0.95404692  0.15285178  0.58400653  1.0
  C  C131  1  0.30882107  0.08388723  0.65274153  1.0
  C  C132  1  0.45404587  0.58400668  0.15285135  1.0
  C  C133  1  0.80882115  0.65274192  0.08388685  1.0
  C  C134  1  0.04595078  0.84714979  0.41599360  1.0
  C  C135  1  0.69117692  0.91611374  0.34725704  1.0
  C  C136  1  0.24999915  0.82022435  0.17977777  1.0
  C  C137  1  0.75000100  0.67979336  0.32020654  1.0
  C  C138  1  0.75000279  0.17977542  0.82022374  1.0
  C  C139  1  0.25000182  0.32020463  0.67979264  1.0
  C  C140  1  0.24999708  0.88294891  0.11705266  1.0
  C  C141  1  0.74999952  0.61705147  0.38294924  1.0
  C  C142  1  0.75000374  0.11705086  0.88294917  1.0
  C  C143  1  0.25000159  0.38294772  0.61704947  1.0
  C  C144  1  0.22505317  0.87628505  0.05053704  1.0
  C  C145  1  0.84799112  0.55048222  0.37627420  1.0
  C  C146  1  0.27493999  0.94946512  0.12371607  1.0
  C  C147  1  0.65200826  0.62372535  0.44951807  1.0
  C  C148  1  0.77494479  0.12371711  0.94946332  1.0
  C  C149  1  0.15200973  0.44951637  0.62372506  1.0
  C  C150  1  0.72505997  0.05053526  0.87628397  1.0
  C  C151  1  0.34799367  0.37627443  0.55048188  1.0
  C  C152  1  0.22518251  0.93504866  0.99185949  1.0
  C  C153  1  0.84771341  0.49175041  0.43498796  1.0
  C  C154  1  0.27481519  0.00814055  0.06495100  1.0
  C  C155  1  0.65228672  0.56501094  0.50824896  1.0
  C  C156  1  0.77481708  0.06495470  0.00814101  1.0
  C  C157  1  0.15228744  0.50824817  0.56501130  1.0
  C  C158  1  0.72518447  0.99186042  0.93504904  1.0
  C  C159  1  0.34771469  0.43498765  0.49174976  1.0
  C  C160  1  0.24999968  0.00218443  0.99781577  1.0
  C  C161  1  0.74999951  0.49777649  0.50222251  1.0
  C  C162  1  0.74999855  0.99781833  0.00218638  1.0
  C  C163  1  0.25000048  0.50222269  0.49777652  1.0
  C  C164  1  0.24999901  0.06405259  0.93594470  1.0
  C  C165  1  0.74999961  0.43590057  0.56409800  1.0
  C  C166  1  0.74999805  0.93595136  0.06405566  1.0
  C  C167  1  0.25000039  0.56409861  0.43590104  1.0
  C  C168  1  0.16564923  0.10318881  0.90264044  1.0
  C  C169  1  0.82853658  0.40257643  0.60323227  1.0
  C  C170  1  0.33434745  0.09735962  0.89681286  1.0
  C  C171  1  0.67146401  0.39676590  0.59742239  1.0
  C  C172  1  0.83434817  0.89681335  0.09736203  1.0
  C  C173  1  0.17146397  0.59742276  0.39676700  1.0
  C  C174  1  0.66565081  0.90264194  0.10318907  1.0
  C  C175  1  0.32853598  0.60323328  0.40257743  1.0
  C  C176  1  0.05406661  0.09522618  0.92297746  1.0
  C  C177  1  0.92776432  0.42291276  0.59524235  1.0
  C  C178  1  0.44593109  0.07702134  0.90477434  1.0
  C  C179  1  0.57223456  0.40475736  0.57708707  1.0
  C  C180  1  0.94593224  0.90477419  0.07702291  1.0
  C  C181  1  0.07223563  0.57708761  0.40475692  1.0
  C  C182  1  0.55406746  0.92297962  0.09522603  1.0
  C  C183  1  0.42776429  0.59524301  0.42291329  1.0
  N  N184  1  0.48531625  0.32121390  0.80321051  1.0
  N  N185  1  0.39034637  0.30322666  0.82123601  1.0
  N  N186  1  0.01468480  0.19678937  0.67878600  1.0
  N  N187  1  0.10965515  0.17876325  0.69677249  1.0
  N  N188  1  0.51468259  0.67878648  0.19678985  1.0
  N  N189  1  0.60965388  0.69677312  0.17876326  1.0
  N  N190  1  0.98531460  0.80321100  0.32121381  1.0
  N  N191  1  0.89034510  0.82123653  0.30322599  1.0
  N  N192  1  0.19818908  0.15638968  0.84789127  1.0
  N  N193  1  0.79753944  0.34783383  0.65643693  1.0
  N  N194  1  0.30180975  0.15210858  0.84361116  1.0
  N  N195  1  0.70246027  0.34356284  0.65216685  1.0
  N  N196  1  0.80181033  0.84361069  0.15210933  1.0
  N  N197  1  0.20245997  0.65216654  0.34356367  1.0
  N  N198  1  0.69818966  0.84789179  0.15638943  1.0
  N  N199  1  0.29753999  0.65643694  0.34783398  1.0
  O  O200  1  0.13007889  0.63225865  0.20813463  1.0
  O  O201  1  0.02939247  0.70799501  0.13215888  1.0
  O  O202  1  0.36992024  0.79186667  0.36774150  1.0
  O  O203  1  0.47060897  0.86784122  0.29200375  1.0
  O  O204  1  0.86992304  0.36774113  0.79186533  1.0
  O  O205  1  0.97060812  0.29200298  0.86784094  1.0
  O  O206  1  0.63007805  0.20813370  0.63225942  1.0
  O  O207  1  0.52939128  0.13215856  0.70799552  1.0
  O  O208  1  0.21789921  0.76413445  0.17421966  1.0
  O  O209  1  0.84364523  0.67422035  0.26407776  1.0
  O  O210  1  0.28210057  0.82578081  0.23586513  1.0
  O  O211  1  0.65635534  0.73592074  0.32577999  1.0
  O  O212  1  0.78210105  0.23586532  0.82578038  1.0
  O  O213  1  0.15635559  0.32577943  0.73592252  1.0
  O  O214  1  0.71789969  0.17421897  0.76413570  1.0
  O  O215  1  0.34364669  0.26407546  0.67421773  1.0
