# generated using pymatgen
data_Zr3Cu4H24C24I4(NO4)4
_symmetry_space_group_name_H-M   'P 1'
_cell_length_a   17.58370304
_cell_length_b   17.58356495
_cell_length_c   21.44511231
_cell_angle_alpha   114.19934036
_cell_angle_beta   114.18983977
_cell_angle_gamma   90.01756500
_symmetry_Int_Tables_number   1
_chemical_formula_structural   Zr3Cu4H24C24I4(NO4)4
_chemical_formula_sum   'Zr6 Cu8 H48 C48 I8 N8 O32'
_cell_volume   5402.78853049
_cell_formula_units_Z   2
loop_
 _symmetry_equiv_pos_site_id
 _symmetry_equiv_pos_as_xyz
  1  'x, y, z'
loop_
 _atom_site_type_symbol
 _atom_site_label
 _atom_site_symmetry_multiplicity
 _atom_site_fract_x
 _atom_site_fract_y
 _atom_site_fract_z
 _atom_site_occupancy
  Zr  Zr0  1  0.07497556  0.07500322  0.14997791  1.0
  Zr  Zr1  1  0.92502621  0.92499619  0.85002255  1.0
  Zr  Zr2  1  0.15806026  0.99998615  0.00000544  1.0
  Zr  Zr3  1  0.00002023  0.84194583  0.00000765  1.0
  Zr  Zr4  1  0.84193879  0.00001206  0.99999192  1.0
  Zr  Zr5  1  0.99998063  0.15805506  0.99999365  1.0
  Cu  Cu6  1  0.79940955  0.22532244  0.45074807  1.0
  Cu  Cu7  1  0.22543028  0.65133764  0.45075045  1.0
  Cu  Cu8  1  0.65129740  0.22533093  0.45074879  1.0
  Cu  Cu9  1  0.22542622  0.79945661  0.45075107  1.0
  Cu  Cu10  1  0.34870549  0.77467120  0.54925629  1.0
  Cu  Cu11  1  0.20059052  0.77467714  0.54925256  1.0
  Cu  Cu12  1  0.77457760  0.20054614  0.54924954  1.0
  Cu  Cu13  1  0.77457359  0.34866313  0.54925073  1.0
  H  H14  1  0.15711283  0.15712616  0.09973669  1.0
  H  H15  1  0.15713483  0.94263148  0.09976720  1.0
  H  H16  1  0.94261148  0.94262492  0.09973793  1.0
  H  H17  1  0.94260520  0.15715503  0.09976184  1.0
  H  H18  1  0.05739387  0.84284294  0.90023717  1.0
  H  H19  1  0.84286668  0.05736869  0.90023274  1.0
  H  H20  1  0.84288741  0.84287223  0.90026211  1.0
  H  H21  1  0.05738949  0.05737584  0.90026197  1.0
  H  H22  1  0.26952737  0.11752660  0.99999210  1.0
  H  H23  1  0.11754202  0.73044654  0.99998943  1.0
  H  H24  1  0.73047240  0.88247281  0.00000899  1.0
  H  H25  1  0.88245524  0.26955172  0.00001115  1.0
  H  H26  1  0.26954169  0.88244739  0.99999434  1.0
  H  H27  1  0.73045496  0.11754782  0.00000001  1.0
  H  H28  1  0.88246497  0.73046005  0.99998960  1.0
  H  H29  1  0.11753497  0.26953991  0.00001077  1.0
  H  H30  1  0.96986384  0.22550406  0.45117586  1.0
  H  H31  1  0.22567208  0.48131319  0.45117615  1.0
  H  H32  1  0.48124403  0.22550461  0.45117890  1.0
  H  H33  1  0.22567656  0.96993433  0.45118501  1.0
  H  H34  1  0.51875720  0.77449805  0.54882162  1.0
  H  H35  1  0.03013595  0.77449918  0.54882270  1.0
  H  H36  1  0.77432329  0.03006285  0.54881831  1.0
  H  H37  1  0.77432835  0.51869081  0.54882380  1.0
  H  H38  1  0.02230983  0.17507990  0.35026822  1.0
  H  H39  1  0.17518745  0.32795760  0.35026917  1.0
  H  H40  1  0.32792785  0.17506704  0.35027620  1.0
  H  H41  1  0.17520915  0.02234727  0.35028084  1.0
  H  H42  1  0.67207317  0.82493440  0.64972437  1.0
  H  H43  1  0.97768914  0.82492203  0.64972966  1.0
  H  H44  1  0.82479012  0.97764983  0.64972176  1.0
  H  H45  1  0.82481057  0.67204395  0.64973152  1.0
  H  H46  1  0.76003455  0.08997123  0.17981080  1.0
  H  H47  1  0.08983601  0.41978020  0.17981111  1.0
  H  H48  1  0.41982816  0.08999708  0.17984426  1.0
  H  H49  1  0.08984904  0.76001405  0.17985046  1.0
  H  H50  1  0.58017494  0.91000479  0.82015802  1.0
  H  H51  1  0.23996353  0.91002779  0.82018671  1.0
  H  H52  1  0.91015164  0.23998271  0.82015244  1.0
  H  H53  1  0.91016015  0.58022214  0.82018783  1.0
  H  H54  1  0.71829643  0.14375516  0.28742771  1.0
  H  H55  1  0.14367186  0.56913414  0.28742806  1.0
  H  H56  1  0.56912370  0.14378836  0.28744564  1.0
  H  H57  1  0.14366142  0.71832289  0.28745332  1.0
  H  H58  1  0.43087771  0.85621460  0.71255581  1.0
  H  H59  1  0.28170347  0.85624504  0.71257099  1.0
  H  H60  1  0.85633898  0.28167636  0.71255016  1.0
  H  H61  1  0.85632798  0.43086712  0.71257107  1.0
  C  C62  1  0.92595085  0.19498135  0.39014860  1.0
  C  C63  1  0.19516470  0.46419861  0.39014765  1.0
  C  C64  1  0.46413441  0.19500977  0.39014986  1.0
  C  C65  1  0.19514267  0.92601363  0.39015478  1.0
  C  C66  1  0.53586519  0.80499200  0.60985041  1.0
  C  C67  1  0.07404823  0.80501928  0.60985052  1.0
  C  C68  1  0.80485674  0.07398401  0.60984709  1.0
  C  C69  1  0.80483399  0.53580315  0.60985070  1.0
  C  C70  1  0.95447123  0.16709081  0.33432058  1.0
  C  C71  1  0.16722930  0.37984856  0.33432114  1.0
  C  C72  1  0.37981097  0.16711231  0.33431992  1.0
  C  C73  1  0.16720831  0.95450793  0.33432506  1.0
  C  C74  1  0.62018926  0.83289047  0.66568009  1.0
  C  C75  1  0.04552658  0.83291069  0.66567751  1.0
  C  C76  1  0.83279141  0.04548963  0.66567800  1.0
  C  C77  1  0.83277009  0.62015198  0.66567918  1.0
  C  C78  1  0.89440728  0.12859081  0.25722676  1.0
  C  C79  1  0.12863523  0.36282229  0.25722717  1.0
  C  C80  1  0.36280237  0.12861180  0.25722994  1.0
  C  C81  1  0.12861976  0.89442796  0.25723530  1.0
  C  C82  1  0.63719965  0.87138951  0.74277114  1.0
  C  C83  1  0.10559185  0.87140900  0.74277029  1.0
  C  C84  1  0.87137997  0.10556959  0.74276777  1.0
  C  C85  1  0.87136220  0.63717917  0.74277280  1.0
  C  C86  1  0.80788749  0.11972729  0.23939543  1.0
  C  C87  1  0.11966704  0.43151165  0.23939624  1.0
  C  C88  1  0.43152337  0.11976112  0.23942362  1.0
  C  C89  1  0.11966375  0.80790048  0.23942893  1.0
  C  C90  1  0.56847820  0.88023972  0.76057700  1.0
  C  C91  1  0.19211154  0.88027266  0.76060302  1.0
  C  C92  1  0.88033554  0.19209754  0.76057268  1.0
  C  C93  1  0.88033219  0.56849100  0.76060491  1.0
  C  C94  1  0.78482070  0.14922658  0.29843971  1.0
  C  C95  1  0.14921206  0.51362229  0.29843987  1.0
  C  C96  1  0.51360775  0.14929311  0.29846957  1.0
  C  C97  1  0.14918108  0.78486102  0.29847529  1.0
  C  C98  1  0.48639286  0.85070853  0.70153121  1.0
  C  C99  1  0.21517968  0.85077235  0.70155836  1.0
  C  C100  1  0.85081903  0.21513658  0.70152590  1.0
  C  C101  1  0.85078581  0.48637989  0.70155890  1.0
  C  C102  1  0.91958032  0.09683150  0.19366537  1.0
  C  C103  1  0.09683330  0.27408822  0.19366575  1.0
  C  C104  1  0.27404028  0.09686410  0.19370631  1.0
  C  C105  1  0.09684241  0.91966444  0.19370902  1.0
  C  C106  1  0.72596033  0.90313754  0.80629447  1.0
  C  C107  1  0.08041978  0.90316727  0.80633317  1.0
  C  C108  1  0.90315763  0.08033421  0.80629259  1.0
  C  C109  1  0.90316629  0.72591355  0.80633451  1.0
  I  I110  1  0.92724618  0.29538315  0.59064871  1.0
  I  I111  1  0.29526420  0.66339454  0.59064690  1.0
  I  I112  1  0.66320623  0.29528513  0.59060020  1.0
  I  I113  1  0.29531549  0.92739301  0.59059913  1.0
  I  I114  1  0.33679521  0.70472438  0.40940588  1.0
  I  I115  1  0.07276141  0.70461838  0.40935069  1.0
  I  I116  1  0.70468177  0.07260642  0.40939881  1.0
  I  I117  1  0.70473591  0.33660008  0.40934879  1.0
  N  N118  1  0.84261104  0.18635348  0.37281437  1.0
  N  N119  1  0.18646054  0.53020241  0.37281299  1.0
  N  N120  1  0.53017117  0.18640347  0.37284212  1.0
  N  N121  1  0.18644460  0.84266853  0.37285060  1.0
  N  N122  1  0.46982991  0.81359864  0.62715913  1.0
  N  N123  1  0.15738972  0.81364722  0.62718293  1.0
  N  N124  1  0.81355668  0.15732832  0.62715303  1.0
  N  N125  1  0.81353779  0.46979609  0.62718339  1.0
  O  O126  1  0.86063064  0.06300733  0.12600752  1.0
  O  O127  1  0.06299740  0.26538215  0.12600834  1.0
  O  O128  1  0.26531157  0.06300077  0.12603025  1.0
  O  O129  1  0.06302866  0.86071633  0.12603268  1.0
  O  O130  1  0.73468945  0.93700066  0.87397032  1.0
  O  O131  1  0.13936937  0.93699008  0.87398968  1.0
  O  O132  1  0.93696962  0.13927916  0.87396831  1.0
  O  O133  1  0.93700194  0.73462037  0.87399141  1.0
  O  O134  1  0.99985418  0.10640431  0.21281322  1.0
  O  O135  1  0.10640824  0.21296175  0.21281329  1.0
  O  O136  1  0.21294366  0.10649512  0.21289819  1.0
  O  O137  1  0.10640532  0.99995384  0.21289983  1.0
  O  O138  1  0.78705674  0.89350530  0.78710264  1.0
  O  O139  1  0.00014479  0.89359496  0.78718455  1.0
  O  O140  1  0.89359600  0.00004485  0.78710182  1.0
  O  O141  1  0.89358994  0.78704035  0.78718668  1.0
  O  O142  1  0.10934275  0.10933472  0.07302018  1.0
  O  O143  1  0.10936696  0.96366626  0.07303362  1.0
  O  O144  1  0.96368641  0.96367794  0.07302099  1.0
  O  O145  1  0.96363457  0.10938236  0.07301612  1.0
  O  O146  1  0.03636585  0.89061633  0.92698362  1.0
  O  O147  1  0.89063352  0.03633310  0.92696680  1.0
  O  O148  1  0.89065720  0.89066351  0.92697909  1.0
  O  O149  1  0.03631463  0.03632177  0.92697848  1.0
  O  O150  1  0.22196808  0.09032494  0.99998637  1.0
  O  O151  1  0.09026476  0.77794800  0.00000789  1.0
  O  O152  1  0.77802885  0.90967216  0.00000861  1.0
  O  O153  1  0.90973559  0.22205175  0.99999227  1.0
  O  O154  1  0.22205595  0.90973998  0.00000502  1.0
  O  O155  1  0.77794515  0.09026040  0.99999513  1.0
  O  O156  1  0.90966341  0.77801863  0.99999025  1.0
  O  O157  1  0.09033600  0.22197870  0.00000622  1.0
