# generated using pymatgen
data_ZnH18C23N5
_symmetry_space_group_name_H-M   'P 1'
_cell_length_a   18.92565182
_cell_length_b   19.30371692
_cell_length_c   20.33357064
_cell_angle_alpha   107.74143818
_cell_angle_beta   105.30956012
_cell_angle_gamma   112.33727421
_symmetry_Int_Tables_number   1
_chemical_formula_structural   ZnH18C23N5
_chemical_formula_sum   'Zn4 H72 C92 N20'
_cell_volume   5904.80439815
_cell_formula_units_Z   4
loop_
 _symmetry_equiv_pos_site_id
 _symmetry_equiv_pos_as_xyz
  1  'x, y, z'
loop_
 _atom_site_type_symbol
 _atom_site_label
 _atom_site_symmetry_multiplicity
 _atom_site_fract_x
 _atom_site_fract_y
 _atom_site_fract_z
 _atom_site_occupancy
  Zn  Zn0  1  0.11289365  0.10813815  0.50689707  1.0
  Zn  Zn1  1  0.88904175  0.88871300  0.49942703  1.0
  Zn  Zn2  1  0.99961628  0.90375347  0.40118128  1.0
  Zn  Zn3  1  0.99441006  0.09198853  0.60003770  1.0
  H  H4  1  0.21398453  0.15600266  0.39651030  1.0
  H  H5  1  0.71287705  0.84610177  0.52831089  1.0
  H  H6  1  0.69937611  0.23610271  0.32657699  1.0
  H  H7  1  0.78569368  0.17470761  0.37263740  1.0
  H  H8  1  0.05745393  0.32563067  0.48348045  1.0
  H  H9  1  0.12904534  0.47236940  0.50685444  1.0
  H  H10  1  0.12081254  0.59479832  0.49813016  1.0
  H  H11  1  0.24097478  0.84234818  0.54411812  1.0
  H  H12  1  0.38082013  0.11206791  0.67140040  1.0
  H  H13  1  0.66937788  0.18931762  0.72580660  1.0
  H  H14  1  0.73751488  0.11333875  0.67736928  1.0
  H  H15  1  0.84198683  0.69706313  0.47968322  1.0
  H  H16  1  0.87850407  0.91107083  0.25975546  1.0
  H  H17  1  0.59706870  0.84289195  0.54865932  1.0
  H  H18  1  0.44669669  0.76340162  0.52339965  1.0
  H  H19  1  0.31632604  0.76362272  0.52374210  1.0
  H  H20  1  0.75972330  0.85624302  0.15153937  1.0
  H  H21  1  0.62941157  0.76425976  0.03005464  1.0
  H  H22  1  0.49050356  0.57248427  0.84271755  1.0
  H  H23  1  0.38107659  0.43203549  0.73414165  1.0
  H  H24  1  0.60785150  0.84026531  0.27772381  1.0
  H  H25  1  0.31800536  0.56598414  0.94502121  1.0
  H  H26  1  0.11693989  0.85038152  0.49684107  1.0
  H  H27  1  0.47778404  0.74931219  0.15483621  1.0
  H  H28  1  0.86569802  0.13905215  0.51130906  1.0
  H  H29  1  0.20707755  0.42687553  0.83625976  1.0
  H  H30  1  0.27418675  0.06766091  0.96094649  1.0
  H  H31  1  0.25637910  0.15313072  0.16460937  1.0
  H  H32  1  0.22896210  0.15833474  0.27883872  1.0
  H  H33  1  0.00766710  0.84111291  0.73372875  1.0
  H  H34  1  0.15833957  0.88708487  0.07657044  1.0
  H  H35  1  0.04497171  0.83133849  0.85644381  1.0
  H  H36  1  0.13634865  0.89194250  0.19262130  1.0
  H  H37  1  0.13461781  0.10984668  0.74924841  1.0
  H  H38  1  0.72756844  0.88259729  0.38773814  1.0
  H  H39  1  0.03065998  0.17025513  0.39707883  1.0
  H  H40  1  0.85054958  0.11739695  0.65611268  1.0
  H  H41  1  0.05605562  0.88630905  0.25981374  1.0
  H  H42  1  0.27581668  0.30537689  0.63050756  1.0
  H  H43  1  0.06162505  0.64287354  0.23976371  1.0
  H  H44  1  0.09117762  0.74542874  0.24843062  1.0
  H  H45  1  0.16523853  0.72811604  0.30505266  1.0
  H  H46  1  0.10538111  0.79602298  0.38285006  1.0
  H  H47  1  0.07966125  0.69570011  0.37734519  1.0
  H  H48  1  0.99719388  0.83916245  0.61199690  1.0
  H  H49  1  0.93692759  0.63248310  0.27172981  1.0
  H  H50  1  0.96129164  0.73131601  0.27471729  1.0
  H  H51  1  0.59840940  0.46241444  0.19184542  1.0
  H  H52  1  0.67164337  0.57084479  0.22895742  1.0
  H  H53  1  0.65245449  0.49782961  0.13922219  1.0
  H  H54  1  0.79130807  0.54161668  0.24242303  1.0
  H  H55  1  0.72133901  0.43296406  0.20374982  1.0
  H  H56  1  0.68641782  0.45502760  0.31458968  1.0
  H  H57  1  0.74233937  0.56451719  0.34863300  1.0
  H  H58  1  0.64146420  0.32502531  0.68776206  1.0
  H  H59  1  0.26581871  0.12131950  0.63215139  1.0
  H  H60  1  0.58343575  0.22181556  0.61096798  1.0
  H  H61  1  0.55753530  0.29915039  0.60336561  1.0
  H  H62  1  0.45223258  0.20128713  0.63141135  1.0
  H  H63  1  0.51026762  0.30384625  0.70798199  1.0
  H  H64  1  0.50213371  0.21106898  0.76551718  1.0
  H  H65  1  0.60719262  0.26302994  0.77765413  1.0
  H  H66  1  0.40373406  0.15236894  0.79958306  1.0
  H  H67  1  0.42153198  0.23489895  0.88266726  1.0
  H  H68  1  0.48449483  0.18627449  0.88956871  1.0
  H  H69  1  0.37538297  0.13131785  0.93596363  1.0
  H  H70  1  0.11627731  0.28489381  0.75003016  1.0
  H  H71  1  0.35682763  0.05015637  0.85257461  1.0
  H  H72  1  0.24995450  0.07481337  0.77333158  1.0
  H  H73  1  0.26444425  0.15080031  0.85805529  1.0
  H  H74  1  0.03518685  0.65683268  0.46032468  1.0
  H  H75  1  0.69062356  0.35337213  0.31160155  1.0
  C  C76  1  0.16998272  0.08911847  0.37182631  1.0
  C  C77  1  0.21863699  0.05585752  0.59338756  1.0
  C  C78  1  0.14561684  0.27670869  0.71117206  1.0
  C  C79  1  0.75789842  0.91314441  0.55763736  1.0
  C  C80  1  0.93742122  0.71739391  0.36739557  1.0
  C  C81  1  0.22330156  0.33322895  0.71675092  1.0
  C  C82  1  0.90131959  0.66742962  0.40049805  1.0
  C  C83  1  0.22430128  0.98259660  0.58030697  1.0
  C  C84  1  0.08596156  0.97059410  0.70930235  1.0
  C  C85  1  0.97755278  0.59584582  0.43323201  1.0
  C  C86  1  0.89977760  0.58944843  0.39739342  1.0
  C  C87  1  0.74959720  0.98050148  0.59880411  1.0
  C  C88  1  0.82342545  0.51200232  0.36343451  1.0
  C  C89  1  0.82685614  0.44171099  0.36925608  1.0
  C  C90  1  0.90712150  0.44923247  0.40635030  1.0
  C  C91  1  0.85243515  0.90718394  0.30093994  1.0
  C  C92  1  0.98347819  0.52725322  0.43762438  1.0
  C  C93  1  0.75272719  0.36157086  0.34023972  1.0
  C  C94  1  0.75740178  0.29544846  0.34845344  1.0
  C  C95  1  0.83690110  0.30149246  0.38506074  1.0
  C  C96  1  0.91202190  0.37969739  0.41303469  1.0
  C  C97  1  0.99268750  0.38792037  0.44868628  1.0
  C  C98  1  0.77016364  0.88726019  0.29415076  1.0
  C  C99  1  0.06806427  0.46701080  0.47900433  1.0
  C  C100  1  0.06346496  0.53416187  0.47405183  1.0
  C  C101  1  0.84332954  0.23418863  0.39388647  1.0
  C  C102  1  0.92245543  0.24211189  0.42831208  1.0
  C  C103  1  0.91056942  0.13840363  0.48738621  1.0
  C  C104  1  0.99595834  0.31885039  0.45471739  1.0
  C  C105  1  0.30103678  0.90166000  0.57688721  1.0
  C  C106  1  0.30171661  0.97805618  0.60498714  1.0
  C  C107  1  0.38025827  0.05296511  0.64850547  1.0
  C  C108  1  0.45715753  0.05497427  0.65808957  1.0
  C  C109  1  0.93590027  0.17694140  0.44283562  1.0
  C  C110  1  0.45503811  0.97715823  0.62343489  1.0
  C  C111  1  0.37616388  0.89978222  0.58502806  1.0
  C  C112  1  0.53747406  0.13300942  0.69737484  1.0
  C  C113  1  0.60884382  0.13057138  0.69707792  1.0
  C  C114  1  0.60753109  0.05413814  0.65846883  1.0
  C  C115  1  0.77546132  0.89265295  0.36620672  1.0
  C  C116  1  0.52970106  0.97663890  0.62319972  1.0
  C  C117  1  0.52714818  0.89958901  0.58491952  1.0
  C  C118  1  0.44828328  0.82254644  0.55093609  1.0
  C  C119  1  0.37622839  0.82273544  0.55122218  1.0
  C  C120  1  0.22710845  0.28699033  0.65052420  1.0
  C  C121  1  0.67898129  0.05335870  0.65163950  1.0
  C  C122  1  0.67611267  0.97836834  0.61077737  1.0
  C  C123  1  0.60035884  0.90205615  0.57956411  1.0
  C  C124  1  0.28588742  0.41789208  0.77741441  1.0
  C  C125  1  0.26928299  0.45827481  0.83731820  1.0
  C  C126  1  0.33051053  0.53629537  0.89801525  1.0
  C  C127  1  0.99556611  0.15507366  0.42998136  1.0
  C  C128  1  0.41143974  0.57746948  0.90061410  1.0
  C  C129  1  0.42751487  0.53959500  0.83969826  1.0
  C  C130  1  0.36602546  0.46118467  0.77941544  1.0
  C  C131  1  0.87364623  0.71288226  0.44454838  1.0
  C  C132  1  0.62579815  0.78225434  0.08475438  1.0
  C  C133  1  0.69816548  0.83327972  0.15302907  1.0
  C  C134  1  0.54560029  0.74813166  0.08514664  1.0
  C  C135  1  0.69422474  0.85176927  0.22443422  1.0
  C  C136  1  0.61349130  0.82470033  0.22380421  1.0
  C  C137  1  0.54033257  0.77390811  0.15533527  1.0
  C  C138  1  0.17730543  0.02476042  0.24279993  1.0
  C  C139  1  0.82800061  0.05123801  0.62269914  1.0
  C  C140  1  0.16107363  0.94924910  0.18603677  1.0
  C  C141  1  0.17417558  0.94604195  0.12163526  1.0
  C  C142  1  0.14275106  0.91784240  0.52416064  1.0
  C  C143  1  0.20629996  0.01963973  0.11264570  1.0
  C  C144  1  0.23018322  0.09650441  0.17194971  1.0
  C  C145  1  0.21488491  0.09883389  0.23563836  1.0
  C  C146  1  0.21642781  0.01838823  0.90982587  1.0
  C  C147  1  0.19964568  0.02269102  0.84062007  1.0
  C  C148  1  0.15921294  0.95194470  0.91670738  1.0
  C  C149  1  0.12008658  0.96064506  0.77717073  1.0
  C  C150  1  0.06761533  0.88991599  0.78288603  1.0
  C  C151  1  0.09042575  0.95158440  0.30276867  1.0
  C  C152  1  0.08731020  0.88416826  0.85099153  1.0
  C  C153  1  0.09413465  0.04493710  0.70571956  1.0
  C  C154  1  0.15019261  0.02306597  0.30340152  1.0
  C  C155  1  0.97313008  0.70044794  0.31058508  1.0
  C  C156  1  0.06790844  0.72828050  0.34339998  1.0
  C  C157  1  0.09810063  0.71006344  0.28076881  1.0
  C  C158  1  0.74205781  0.50633342  0.31870492  1.0
  C  C159  1  0.73137152  0.49535200  0.23768648  1.0
  C  C160  1  0.65948008  0.50700980  0.19713118  1.0
  C  C161  1  0.54184481  0.21608714  0.73434410  1.0
  C  C162  1  0.51570652  0.24947891  0.67758813  1.0
  C  C163  1  0.57784846  0.27520522  0.64293632  1.0
  C  C164  1  0.02284566  0.90670203  0.63609314  1.0
  C  C165  1  0.26584959  0.09195122  0.83423104  1.0
  C  C166  1  0.35622707  0.10954744  0.87411380  1.0
  C  C167  1  0.42015742  0.17452586  0.86100507  1.0
  N  N168  1  0.12578653  0.05910448  0.40852407  1.0
  N  N169  1  0.47025815  0.68266822  0.02067738  1.0
  N  N170  1  0.21023428  0.02153719  0.04490166  1.0
  N  N171  1  0.83469487  0.94162481  0.55749857  1.0
  N  N172  1  0.16412312  0.95002107  0.98626952  1.0
  N  N173  1  0.90093347  0.92118946  0.37044457  1.0
  N  N174  1  0.95403463  0.09877472  0.50137184  1.0
  N  N175  1  0.85363329  0.91216108  0.41049535  1.0
  N  N176  1  0.00559395  0.10846773  0.46531898  1.0
  N  N177  1  0.87836971  0.02771821  0.59801325  1.0
  N  N178  1  0.07611227  0.97333815  0.36514563  1.0
  N  N179  1  0.89168474  0.78470812  0.43892349  1.0
  N  N180  1  0.15780420  0.21010640  0.60943833  1.0
  N  N181  1  0.09420517  0.95074703  0.50429150  1.0
  N  N182  1  0.03905254  0.02563652  0.63668564  1.0
  N  N183  1  0.99557281  0.94082741  0.59388520  1.0
  N  N184  1  0.14086988  0.03553065  0.54708381  1.0
  N  N185  1  0.10694960  0.20362800  0.64731540  1.0
  N  N186  1  0.93117938  0.78760855  0.39124910  1.0
  N  N187  1  0.48198871  0.65117936  0.96248417  1.0
