# generated using pymatgen
data_AlH12C10ClO5
_symmetry_space_group_name_H-M   'P 1'
_cell_length_a   6.61954519
_cell_length_b   14.45617695
_cell_length_c   15.23845924
_cell_angle_alpha   90.08259585
_cell_angle_beta   90.83087032
_cell_angle_gamma   90.94787393
_symmetry_Int_Tables_number   1
_chemical_formula_structural   AlH12C10ClO5
_chemical_formula_sum   'Al4 H48 C40 Cl4 O20'
_cell_volume   1457.86379692
_cell_formula_units_Z   4
loop_
 _symmetry_equiv_pos_site_id
 _symmetry_equiv_pos_as_xyz
  1  'x, y, z'
loop_
 _atom_site_type_symbol
 _atom_site_label
 _atom_site_symmetry_multiplicity
 _atom_site_fract_x
 _atom_site_fract_y
 _atom_site_fract_z
 _atom_site_occupancy
  Al  Al0  1  0.00879148  0.74848001  0.49887499  1.0
  Al  Al1  1  0.49530598  0.24974105  0.00125492  1.0
  Al  Al2  1  0.50853978  0.75115224  0.50116836  1.0
  Al  Al3  1  0.99578709  0.25215640  0.00106014  1.0
  H  H4  1  0.73435012  0.66344618  0.79655353  1.0
  H  H5  1  0.41944769  0.41972938  0.20406261  1.0
  H  H6  1  0.17711242  0.84399437  0.20174466  1.0
  H  H7  1  0.28848955  0.16254803  0.70753331  1.0
  H  H8  1  0.70639903  0.54902455  0.90237318  1.0
  H  H9  1  0.43567376  0.51208605  0.32952034  1.0
  H  H10  1  0.22491087  0.95238862  0.09073918  1.0
  H  H11  1  0.30670174  0.04967206  0.59998406  1.0
  H  H12  1  0.96267382  0.52145183  0.88470103  1.0
  H  H13  1  0.44548296  0.60815159  0.25919021  1.0
  H  H14  1  0.46978527  0.98283020  0.13029807  1.0
  H  H15  1  0.05096997  0.01779074  0.61888910  1.0
  H  H16  1  0.04982329  0.51048403  0.65360391  1.0
  H  H17  1  0.86317345  0.54362580  0.09570697  1.0
  H  H18  1  0.55905069  0.98695035  0.32787330  1.0
  H  H19  1  0.95110225  0.00778373  0.84289453  1.0
  H  H20  1  0.04962423  0.40316384  0.76818312  1.0
  H  H21  1  0.78487562  0.65783343  0.19773171  1.0
  H  H22  1  0.52539947  0.11543030  0.23527019  1.0
  H  H23  1  0.96192113  0.89747906  0.73047831  1.0
  H  H24  1  0.48358853  0.50239116  0.63945850  1.0
  H  H25  1  0.94463200  0.35977288  0.26477890  1.0
  H  H26  1  0.00243757  0.00921543  0.36448969  1.0
  H  H27  1  0.51605805  0.00313652  0.86799744  1.0
  H  H28  1  0.44422359  0.58239000  0.72373860  1.0
  H  H29  1  0.68848435  0.34798642  0.29506409  1.0
  H  H30  1  0.92703734  0.91937980  0.29258740  1.0
  H  H31  1  0.56651645  0.08501869  0.78591642  1.0
  H  H32  1  0.42898662  0.46032632  0.82334437  1.0
  H  H33  1  0.76848979  0.45621982  0.40558921  1.0
  H  H34  1  0.92137802  0.02011702  0.17292135  1.0
  H  H35  1  0.58591464  0.96580399  0.68391345  1.0
  H  H36  1  0.48656403  0.38076963  0.74033958  1.0
  H  H37  1  0.99755786  0.49025361  0.35591103  1.0
  H  H38  1  0.95916953  0.11178878  0.24723143  1.0
  H  H39  1  0.52269646  0.88386471  0.76437867  1.0
  H  H40  1  0.84027978  0.45370382  0.60307041  1.0
  H  H41  1  0.04312105  0.49291601  0.16560273  1.0
  H  H42  1  0.38373511  0.03948647  0.39744755  1.0
  H  H43  1  0.15215629  0.95345778  0.89864006  1.0
  H  H44  1  0.85675857  0.34114589  0.71232816  1.0
  H  H45  1  0.01177040  0.62651565  0.25265674  1.0
  H  H46  1  0.31748875  0.15601688  0.29517837  1.0
  H  H47  1  0.15230996  0.84019007  0.78984494  1.0
  H  H48  1  0.25759621  0.63954726  0.54200352  1.0
  H  H49  1  0.25477603  0.37331757  0.01956441  1.0
  H  H50  1  0.76224912  0.86435394  0.46559604  1.0
  H  H51  1  0.74598978  0.13912927  0.95865896  1.0
  C  C52  1  0.26690200  0.86350837  0.61795648  1.0
  C  C53  1  0.23263319  0.13663535  0.11602003  1.0
  C  C54  1  0.74502004  0.63707928  0.38174719  1.0
  C  C55  1  0.75313113  0.36390490  0.88495748  1.0
  C  C56  1  0.25605648  0.86244991  0.38181961  1.0
  C  C57  1  0.24657064  0.13864764  0.88333071  1.0
  C  C58  1  0.76100221  0.63739757  0.61876873  1.0
  C  C59  1  0.74167076  0.36337351  0.11673981  1.0
  C  C60  1  0.82857193  0.60418853  0.78065106  1.0
  C  C61  1  0.52630321  0.47776879  0.19714467  1.0
  C  C62  1  0.29740664  0.89426892  0.21872196  1.0
  C  C63  1  0.18819949  0.10351883  0.72200879  1.0
  C  C64  1  0.81489828  0.52866572  0.85216090  1.0
  C  C65  1  0.52269656  0.54401132  0.27622904  1.0
  C  C66  1  0.31235541  0.97229564  0.14992497  1.0
  C  C67  1  0.19939001  0.02779422  0.65073174  1.0
  C  C68  1  0.89700869  0.48329457  0.66549327  1.0
  C  C69  1  0.88923961  0.51981851  0.16318769  1.0
  C  C70  1  0.40591377  0.01482964  0.33001110  1.0
  C  C71  1  0.10469637  0.98205357  0.83486553  1.0
  C  C72  1  0.54204705  0.52582117  0.70372234  1.0
  C  C73  1  0.80479001  0.39830964  0.27427302  1.0
  C  C74  1  0.03725558  0.97622467  0.30149158  1.0
  C  C75  1  0.46515894  0.02729464  0.80307795  1.0
  C  C76  1  0.75947763  0.56380688  0.69063185  1.0
  C  C77  1  0.73995187  0.44054445  0.18462710  1.0
  C  C78  1  0.25220231  0.93610527  0.30995439  1.0
  C  C79  1  0.24745344  0.06342043  0.81267999  1.0
  C  C80  1  0.74869877  0.43485826  0.81124724  1.0
  C  C81  1  0.73956083  0.56600567  0.30805273  1.0
  C  C82  1  0.23401062  0.06381610  0.18814909  1.0
  C  C83  1  0.26535914  0.93506375  0.69150117  1.0
  C  C84  1  0.89830404  0.40963252  0.73879538  1.0
  C  C85  1  0.86427548  0.60005921  0.22908237  1.0
  C  C86  1  0.37970008  0.09456161  0.26328961  1.0
  C  C87  1  0.11076176  0.90737869  0.76209641  1.0
  C  C88  1  0.53676341  0.44622810  0.77113520  1.0
  C  C89  1  0.83640071  0.47615748  0.34277399  1.0
  C  C90  1  0.02294106  0.04615584  0.22541588  1.0
  C  C91  1  0.47443293  0.94913233  0.73442925  1.0
  Cl  Cl92  1  0.08358955  0.65242162  0.78046531  1.0
  Cl  Cl93  1  0.43784523  0.53429781  0.09680770  1.0
  Cl  Cl94  1  0.52550518  0.82656963  0.21684708  1.0
  Cl  Cl95  1  0.93762886  0.15294503  0.72083798  1.0
  O  O96  1  0.42570641  0.84235791  0.41622661  1.0
  O  O97  1  0.08206229  0.15493657  0.92199845  1.0
  O  O98  1  0.93128414  0.66471678  0.59049235  1.0
  O  O99  1  0.57706965  0.31878306  0.10285355  1.0
  O  O100  1  0.09635427  0.84098965  0.58380109  1.0
  O  O101  1  0.39825251  0.15132193  0.07640270  1.0
  O  O102  1  0.57721269  0.66621948  0.40930524  1.0
  O  O103  1  0.92374350  0.32882027  0.90336980  1.0
  O  O104  1  0.08737315  0.82688596  0.40365293  1.0
  O  O105  1  0.41463185  0.17956159  0.89973403  1.0
  O  O106  1  0.59119318  0.66532229  0.59027851  1.0
  O  O107  1  0.90852091  0.34699034  0.08009081  1.0
  O  O108  1  0.91917532  0.65936990  0.41216241  1.0
  O  O109  1  0.58906944  0.34770745  0.92498056  1.0
  O  O110  1  0.43765589  0.83408934  0.59436686  1.0
  O  O111  1  0.06636287  0.17626760  0.09978356  1.0
  O  O112  1  0.25766389  0.69249006  0.50296414  1.0
  O  O113  1  0.24892640  0.30833042  0.00346602  1.0
  O  O114  1  0.76164427  0.80679002  0.49809612  1.0
  O  O115  1  0.74409286  0.19234042  0.99746839  1.0
