# generated using pymatgen
data_InH11C12O5
_symmetry_space_group_name_H-M   'P 1'
_cell_length_a   14.71202409
_cell_length_b   18.66803267
_cell_length_c   24.30165094
_cell_angle_alpha   89.99994470
_cell_angle_beta   89.99998801
_cell_angle_gamma   104.85238438
_symmetry_Int_Tables_number   1
_chemical_formula_structural   InH11C12O5
_chemical_formula_sum   'In12 H132 C144 O60'
_cell_volume   6451.32323710
_cell_formula_units_Z   12
loop_
 _symmetry_equiv_pos_site_id
 _symmetry_equiv_pos_as_xyz
  1  'x, y, z'
loop_
 _atom_site_type_symbol
 _atom_site_label
 _atom_site_symmetry_multiplicity
 _atom_site_fract_x
 _atom_site_fract_y
 _atom_site_fract_z
 _atom_site_occupancy
  In  In0  1  0.00000007  0.49999963  0.49999959  1.0
  In  In1  1  0.99999800  0.99999975  0.99999912  1.0
  In  In2  1  0.88072235  0.31111622  0.53076212  1.0
  In  In3  1  0.11928014  0.18888331  0.03075874  1.0
  In  In4  1  0.11927788  0.68888409  0.46924070  1.0
  In  In5  1  0.88072308  0.81111367  0.96924902  1.0
  In  In6  1  0.66784821  0.16823320  0.53278510  1.0
  In  In7  1  0.33214884  0.33176633  0.03278816  1.0
  In  In8  1  0.33214908  0.83176434  0.46721237  1.0
  In  In9  1  0.66785016  0.66823232  0.96721301  1.0
  In  In10  1  0.49999848  0.99999847  0.49999896  1.0
  In  In11  1  0.49999823  0.49999829  0.00000102  1.0
  H  H12  1  0.52811139  0.08399315  0.58916197  1.0
  H  H13  1  0.47191496  0.41598578  0.08915261  1.0
  H  H14  1  0.47191896  0.91598277  0.41084908  1.0
  H  H15  1  0.52810736  0.58399678  0.91084075  1.0
  H  H16  1  0.77019738  0.23796735  0.45385010  1.0
  H  H17  1  0.22980649  0.26203268  0.95384990  1.0
  H  H18  1  0.22980688  0.76203074  0.54614984  1.0
  H  H19  1  0.77019491  0.73796707  0.04615086  1.0
  H  H20  1  0.83159934  0.44020117  0.53968452  1.0
  H  H21  1  0.16840350  0.05979945  0.03968410  1.0
  H  H22  1  0.16840225  0.55979913  0.46031501  1.0
  H  H23  1  0.83160112  0.94019975  0.96031542  1.0
  H  H24  1  0.76945123  0.96106611  0.41179713  1.0
  H  H25  1  0.23054320  0.53893450  0.91180245  1.0
  H  H26  1  0.23054356  0.03893419  0.58819663  1.0
  H  H27  1  0.76945208  0.46106525  0.08820202  1.0
  H  H28  1  0.83465239  0.12756596  0.38506674  1.0
  H  H29  1  0.16534764  0.37243473  0.88506647  1.0
  H  H30  1  0.16534870  0.87243490  0.61493402  1.0
  H  H31  1  0.83465259  0.62756558  0.11493306  1.0
  H  H32  1  0.80805910  0.05990568  0.22508834  1.0
  H  H33  1  0.19194260  0.44009578  0.72509007  1.0
  H  H34  1  0.19194077  0.94009351  0.77491078  1.0
  H  H35  1  0.80805917  0.55990508  0.27491193  1.0
  H  H36  1  0.76304011  0.06732271  0.29234303  1.0
  H  H37  1  0.23695877  0.43267644  0.79234476  1.0
  H  H38  1  0.23695839  0.93267648  0.70765568  1.0
  H  H39  1  0.76304042  0.56732276  0.20765724  1.0
  H  H40  1  0.84675394  0.14292589  0.26304005  1.0
  H  H41  1  0.15324483  0.35707496  0.76304061  1.0
  H  H42  1  0.15324561  0.85707441  0.73695907  1.0
  H  H43  1  0.84675404  0.64292534  0.23696056  1.0
  H  H44  1  0.10700238  0.98478035  0.20700984  1.0
  H  H45  1  0.89299883  0.51522000  0.70700810  1.0
  H  H46  1  0.89299731  0.01521829  0.79299174  1.0
  H  H47  1  0.10700501  0.48478308  0.29298978  1.0
  H  H48  1  0.18050074  0.99617531  0.26544167  1.0
  H  H49  1  0.81949698  0.50382274  0.76543870  1.0
  H  H50  1  0.81949726  0.00382444  0.73456074  1.0
  H  H51  1  0.18050338  0.49617590  0.23455753  1.0
  H  H52  1  0.09784891  0.91053945  0.25452640  1.0
  H  H53  1  0.90215036  0.58945917  0.75452542  1.0
  H  H54  1  0.90215163  0.08945975  0.74547601  1.0
  H  H55  1  0.09784969  0.41054058  0.24547452  1.0
  H  H56  1  0.97457967  0.07620889  0.45183835  1.0
  H  H57  1  0.02541278  0.42378948  0.95183929  1.0
  H  H58  1  0.02541593  0.92378975  0.54816159  1.0
  H  H59  1  0.97458219  0.57621138  0.04816147  1.0
  H  H60  1  0.93757594  0.97917760  0.45767795  1.0
  H  H61  1  0.06241469  0.52082184  0.95767795  1.0
  H  H62  1  0.06241916  0.02082160  0.54232240  1.0
  H  H63  1  0.93757910  0.47917958  0.04232158  1.0
  H  H64  1  0.05850329  0.02212863  0.44892422  1.0
  H  H65  1  0.94148763  0.47786919  0.94892377  1.0
  H  H66  1  0.94149078  0.97786946  0.55107572  1.0
  H  H67  1  0.05850716  0.52213111  0.05107576  1.0
  H  H68  1  0.97843930  0.98324989  0.17666782  1.0
  H  H69  1  0.02156175  0.51674994  0.67666824  1.0
  H  H70  1  0.02156210  0.01674986  0.82333171  1.0
  H  H71  1  0.97844137  0.48325092  0.32333170  1.0
  H  H72  1  0.95057985  0.14044083  0.18292409  1.0
  H  H73  1  0.04942133  0.35955904  0.68292466  1.0
  H  H74  1  0.04942105  0.85955948  0.81707544  1.0
  H  H75  1  0.95058007  0.64044071  0.31707569  1.0
  H  H76  1  0.17565729  0.96142305  0.35258802  1.0
  H  H77  1  0.82434027  0.53857876  0.85258668  1.0
  H  H78  1  0.82434094  0.03857948  0.64741274  1.0
  H  H79  1  0.17565810  0.46142210  0.14741079  1.0
  H  H80  1  0.00049271  0.88177190  0.41847453  1.0
  H  H81  1  0.99950556  0.61822593  0.91847229  1.0
  H  H82  1  0.99950557  0.11822453  0.58152582  1.0
  H  H83  1  0.00049294  0.38177327  0.08152518  1.0
  H  H84  1  0.16813536  0.36035312  0.39615689  1.0
  H  H85  1  0.83186683  0.13964589  0.89615712  1.0
  H  H86  1  0.83186400  0.63964663  0.60384099  1.0
  H  H87  1  0.16813765  0.86035497  0.10384282  1.0
  H  H88  1  0.01363699  0.21568384  0.41288833  1.0
  H  H89  1  0.98636166  0.28431681  0.91288966  1.0
  H  H90  1  0.98636188  0.78431646  0.58711120  1.0
  H  H91  1  0.01363979  0.71568516  0.08711275  1.0
  H  H92  1  0.24152871  0.15218317  0.48010106  1.0
  H  H93  1  0.75847088  0.34781627  0.98010237  1.0
  H  H94  1  0.75846808  0.84781492  0.51989765  1.0
  H  H95  1  0.24153210  0.65218625  0.01989921  1.0
  H  H96  1  0.25346303  0.24884072  0.47687531  1.0
  H  H97  1  0.74653366  0.25115817  0.97687629  1.0
  H  H98  1  0.74653375  0.75115737  0.52312380  1.0
  H  H99  1  0.25346506  0.74884380  0.02312488  1.0
  H  H100  1  0.14013074  0.18816615  0.47624452  1.0
  H  H101  1  0.85986677  0.31183108  0.97624585  1.0
  H  H102  1  0.85986587  0.81183139  0.52375418  1.0
  H  H103  1  0.14013309  0.68816811  0.02375573  1.0
  H  H104  1  0.34955756  0.06838869  0.30479817  1.0
  H  H105  1  0.65044149  0.43161100  0.80479821  1.0
  H  H106  1  0.65044918  0.93161494  0.69520300  1.0
  H  H107  1  0.34955615  0.56838764  0.19520297  1.0
  H  H108  1  0.33068125  0.10973413  0.24128108  1.0
  H  H109  1  0.66931817  0.39026454  0.74128196  1.0
  H  H110  1  0.66931861  0.89026507  0.75871845  1.0
  H  H111  1  0.33068514  0.60973687  0.25871921  1.0
  H  H112  1  0.41983804  0.15679391  0.28731661  1.0
  H  H113  1  0.58016103  0.34320581  0.78731713  1.0
  H  H114  1  0.58016227  0.84321083  0.71268045  1.0
  H  H115  1  0.41984069  0.65679284  0.21268158  1.0
  H  H116  1  0.06562629  0.22428437  0.23721960  1.0
  H  H117  1  0.93437575  0.27571819  0.73722136  1.0
  H  H118  1  0.93437429  0.77571705  0.76277869  1.0
  H  H119  1  0.06562741  0.72428489  0.26278064  1.0
  H  H120  1  0.99966128  0.21493472  0.29949474  1.0
  H  H121  1  0.00033777  0.28506497  0.79949702  1.0
  H  H122  1  0.00033845  0.78506614  0.70050356  1.0
  H  H123  1  0.99966363  0.71493478  0.20050580  1.0
  H  H124  1  0.08389411  0.29841059  0.28474926  1.0
  H  H125  1  0.91610514  0.20158969  0.78474902  1.0
  H  H126  1  0.91610680  0.70158972  0.71524944  1.0
  H  H127  1  0.08389508  0.79841062  0.21525051  1.0
  H  H128  1  0.37170314  0.08789955  0.38978540  1.0
  H  H129  1  0.62829674  0.41210279  0.88978586  1.0
  H  H130  1  0.62829627  0.91210242  0.61021495  1.0
  H  H131  1  0.37170316  0.58789862  0.11021449  1.0
  H  H132  1  0.41077172  0.23859403  0.44851715  1.0
  H  H133  1  0.58922458  0.26140989  0.94852061  1.0
  H  H134  1  0.58922501  0.76141015  0.55147909  1.0
  H  H135  1  0.41077211  0.73859208  0.05148180  1.0
  H  H136  1  0.14275312  0.16283907  0.20133605  1.0
  H  H137  1  0.85724755  0.33716132  0.70133653  1.0
  H  H138  1  0.85724864  0.83716179  0.79866389  1.0
  H  H139  1  0.14275404  0.66283899  0.29866464  1.0
  H  H140  1  0.35408792  0.23915700  0.20730926  1.0
  H  H141  1  0.64591170  0.26084228  0.70730819  1.0
  H  H142  1  0.64591244  0.76084165  0.79269109  1.0
  H  H143  1  0.35408938  0.73915858  0.29269216  1.0
  C  C144  1  0.70155799  0.04068723  0.44904186  1.0
  C  C145  1  0.29843450  0.45931337  0.94904686  1.0
  C  C146  1  0.29843575  0.95931197  0.55095314  1.0
  C  C147  1  0.70155874  0.54068639  0.05095679  1.0
  C  C148  1  0.77301534  0.02019046  0.41356362  1.0
  C  C149  1  0.22697868  0.47980852  0.91356778  1.0
  C  C150  1  0.22697977  0.97980873  0.58643262  1.0
  C  C151  1  0.77301606  0.52018957  0.08643586  1.0
  C  C152  1  0.83688611  0.06938671  0.38383969  1.0
  C  C153  1  0.16311033  0.43061343  0.88384225  1.0
  C  C154  1  0.16311089  0.93061415  0.61615902  1.0
  C  C155  1  0.83688631  0.56938632  0.11615933  1.0
  C  C156  1  0.90828870  0.04775490  0.34913917  1.0
  C  C157  1  0.09170638  0.45224306  0.84914090  1.0
  C  C158  1  0.09170777  0.95224429  0.65085954  1.0
  C  C159  1  0.90828923  0.54775558  0.15086027  1.0
  C  C160  1  0.90405815  0.05343256  0.29149781  1.0
  C  C161  1  0.09594023  0.44656715  0.79149914  1.0
  C  C162  1  0.09593967  0.94656664  0.70850130  1.0
  C  C163  1  0.90405914  0.55343260  0.20850244  1.0
  C  C164  1  0.97030927  0.02914913  0.25887534  1.0
  C  C165  1  0.02969032  0.47085007  0.75887625  1.0
  C  C166  1  0.02968991  0.97085007  0.74112377  1.0
  C  C167  1  0.97031023  0.52914913  0.24112451  1.0
  C  C168  1  0.03781784  0.99776977  0.28426262  1.0
  C  C169  1  0.96217919  0.50222826  0.78426211  1.0
  C  C170  1  0.96217894  0.00222832  0.71573773  1.0
  C  C171  1  0.03781968  0.49777205  0.21573701  1.0
  C  C172  1  0.03968669  0.99120354  0.34210643  1.0
  C  C173  1  0.96031183  0.50879495  0.84210591  1.0
  C  C174  1  0.96031232  0.00879510  0.65789392  1.0
  C  C175  1  0.03968685  0.49120480  0.15789320  1.0
  C  C176  1  0.97759924  0.01958138  0.37489833  1.0
  C  C177  1  0.02239427  0.48041599  0.87489799  1.0
  C  C178  1  0.02239618  0.98041671  0.62510243  1.0
  C  C179  1  0.97760083  0.51958320  0.12510195  1.0
  C  C180  1  0.82637833  0.08198216  0.26657358  1.0
  C  C181  1  0.17362093  0.41801814  0.76657450  1.0
  C  C182  1  0.17362035  0.91801759  0.73342595  1.0
  C  C183  1  0.82637844  0.58198162  0.23342749  1.0
  C  C184  1  0.10873233  0.97091118  0.25069412  1.0
  C  C185  1  0.89126626  0.52908744  0.75069278  1.0
  C  C186  1  0.89126599  0.02908746  0.74930746  1.0
  C  C187  1  0.10873464  0.47091286  0.24930551  1.0
  C  C188  1  0.98782260  0.02446062  0.43647274  1.0
  C  C189  1  0.01216901  0.47553722  0.93647241  1.0
  C  C190  1  0.01217097  0.97553802  0.56352761  1.0
  C  C191  1  0.98782578  0.52446309  0.06352711  1.0
  C  C192  1  0.96769440  0.03155882  0.19859425  1.0
  C  C193  1  0.03230659  0.46844047  0.69859475  1.0
  C  C194  1  0.03230392  0.96843982  0.80140527  1.0
  C  C195  1  0.96769549  0.53155929  0.30140560  1.0
  C  C196  1  0.95694302  0.08766621  0.16644662  1.0
  C  C197  1  0.04305596  0.41233313  0.66644757  1.0
  C  C198  1  0.04305566  0.91233354  0.83355249  1.0
  C  C199  1  0.95694391  0.58766607  0.33355278  1.0
  C  C200  1  0.96857478  0.08469197  0.10606266  1.0
  C  C201  1  0.03142529  0.41530856  0.60606402  1.0
  C  C202  1  0.03142544  0.91530833  0.89393687  1.0
  C  C203  1  0.96857340  0.58469120  0.39393674  1.0
  C  C204  1  0.10309451  0.95087473  0.36717675  1.0
  C  C205  1  0.89690231  0.54912484  0.86717539  1.0
  C  C206  1  0.89690282  0.04912502  0.63282360  1.0
  C  C207  1  0.10309519  0.45087547  0.13282290  1.0
  C  C208  1  0.07370965  0.89731586  0.40512852  1.0
  C  C209  1  0.92628936  0.60268421  0.90512629  1.0
  C  C210  1  0.92629040  0.10268389  0.59487266  1.0
  C  C211  1  0.07370968  0.39731665  0.09487077  1.0
  C  C212  1  0.13155968  0.85059394  0.42860142  1.0
  C  C213  1  0.86844153  0.64940665  0.92859999  1.0
  C  C214  1  0.86844212  0.14940914  0.57139975  1.0
  C  C215  1  0.13155919  0.35059310  0.07139789  1.0
  C  C216  1  0.03804829  0.35580851  0.44214596  1.0
  C  C217  1  0.96195390  0.14419264  0.94214699  1.0
  C  C218  1  0.96195243  0.64419124  0.55785316  1.0
  C  C219  1  0.03805180  0.85580988  0.05785460  1.0
  C  C220  1  0.10161806  0.32295783  0.40895069  1.0
  C  C221  1  0.89838299  0.17704393  0.90895212  1.0
  C  C222  1  0.89838235  0.67704303  0.59104801  1.0
  C  C223  1  0.10162085  0.82295915  0.09104906  1.0
  C  C224  1  0.08114081  0.25011055  0.39804405  1.0
  C  C225  1  0.91885839  0.24989178  0.89804460  1.0
  C  C226  1  0.91885774  0.74989086  0.60195465  1.0
  C  C227  1  0.08114360  0.75011185  0.10195658  1.0
  C  C228  1  0.14667407  0.21492681  0.36869503  1.0
  C  C229  1  0.85332425  0.28507279  0.86869638  1.0
  C  C230  1  0.85332375  0.78507239  0.63130327  1.0
  C  C231  1  0.14667770  0.71492862  0.13130480  1.0
  C  C232  1  0.21437737  0.19098892  0.39934480  1.0
  C  C233  1  0.78561956  0.30901063  0.89934573  1.0
  C  C234  1  0.78562167  0.80901194  0.60065390  1.0
  C  C235  1  0.21437913  0.69098912  0.10065503  1.0
  C  C236  1  0.28075643  0.16205777  0.37088172  1.0
  C  C237  1  0.71924089  0.33794294  0.87088305  1.0
  C  C238  1  0.71924193  0.83794309  0.62911657  1.0
  C  C239  1  0.28075644  0.66205681  0.12911812  1.0
  C  C240  1  0.27788373  0.15533115  0.31288649  1.0
  C  C241  1  0.72211377  0.34466797  0.81288740  1.0
  C  C242  1  0.72211563  0.84466860  0.68711304  1.0
  C  C243  1  0.27788627  0.65533178  0.18711336  1.0
  C  C244  1  0.21029339  0.18103810  0.28287947  1.0
  C  C245  1  0.78970446  0.31895996  0.78287998  1.0
  C  C246  1  0.78970597  0.81896165  0.71711965  1.0
  C  C247  1  0.21029695  0.68103979  0.21712079  1.0
  C  C248  1  0.14283359  0.20944515  0.31106602  1.0
  C  C249  1  0.85716545  0.29055454  0.81106737  1.0
  C  C250  1  0.85716645  0.79055460  0.68893227  1.0
  C  C251  1  0.14283631  0.70944632  0.18893422  1.0
  C  C252  1  0.21231147  0.19486380  0.46132289  1.0
  C  C253  1  0.78768641  0.30513457  0.96132424  1.0
  C  C254  1  0.78768585  0.80513596  0.53867581  1.0
  C  C255  1  0.21231467  0.69486629  0.03867694  1.0
  C  C256  1  0.34775411  0.12091538  0.28478388  1.0
  C  C257  1  0.65224427  0.37908434  0.78478436  1.0
  C  C258  1  0.65224819  0.87908715  0.71521524  1.0
  C  C259  1  0.34775645  0.62091541  0.21521599  1.0
  C  C260  1  0.06940319  0.23777289  0.28111455  1.0
  C  C261  1  0.93059692  0.26222794  0.78111632  1.0
  C  C262  1  0.93059654  0.76222797  0.71888333  1.0
  C  C263  1  0.06940484  0.73777292  0.21888526  1.0
  C  C264  1  0.35721414  0.14097540  0.39993901  1.0
  C  C265  1  0.64278248  0.35902527  0.89993868  1.0
  C  C266  1  0.64278287  0.85902546  0.60006093  1.0
  C  C267  1  0.35721553  0.64097448  0.10006125  1.0
  C  C268  1  0.41582862  0.18350409  0.43653156  1.0
  C  C269  1  0.58416873  0.31650095  0.93653293  1.0
  C  C270  1  0.58416811  0.81650009  0.56346632  1.0
  C  C271  1  0.41582900  0.68350213  0.06346784  1.0
  C  C272  1  0.49219342  0.15697652  0.46196482  1.0
  C  C273  1  0.50780835  0.34302960  0.96196864  1.0
  C  C274  1  0.50781015  0.84302989  0.53803183  1.0
  C  C275  1  0.49219449  0.65697458  0.03803459  1.0
  C  C276  1  0.21000700  0.18339696  0.22246135  1.0
  C  C277  1  0.78999194  0.31660230  0.72246145  1.0
  C  C278  1  0.78999390  0.81660335  0.77753818  1.0
  C  C279  1  0.21000811  0.68339746  0.27753849  1.0
  C  C280  1  0.28457029  0.21398338  0.19041742  1.0
  C  C281  1  0.71542885  0.28601647  0.69041632  1.0
  C  C282  1  0.71543111  0.78601637  0.80958293  1.0
  C  C283  1  0.28457051  0.71398328  0.30958321  1.0
  C  C284  1  0.27370332  0.22364204  0.13060708  1.0
  C  C285  1  0.72629469  0.27635845  0.63060598  1.0
  C  C286  1  0.72629926  0.77635716  0.86939533  1.0
  C  C287  1  0.27370232  0.72364241  0.36939396  1.0
  O  O288  1  0.57315151  0.07047688  0.56446611  1.0
  O  O289  1  0.42685476  0.42951761  0.06447815  1.0
  O  O290  1  0.42685724  0.92951622  0.43552189  1.0
  O  O291  1  0.57314995  0.57047770  0.93553290  1.0
  O  O292  1  0.75405957  0.25847296  0.48830536  1.0
  O  O293  1  0.24594581  0.24152758  0.98830477  1.0
  O  O294  1  0.24594097  0.74152624  0.51169375  1.0
  O  O295  1  0.75405949  0.75847162  0.01169517  1.0
  O  O296  1  0.86883665  0.42070341  0.51326121  1.0
  O  O297  1  0.13116431  0.07929559  0.01326079  1.0
  O  O298  1  0.13116457  0.57929579  0.48673749  1.0
  O  O299  1  0.86883823  0.92070139  0.98673750  1.0
  O  O300  1  0.71362511  0.10844985  0.46228291  1.0
  O  O301  1  0.28637364  0.39154907  0.96228466  1.0
  O  O302  1  0.28637354  0.89154769  0.53771621  1.0
  O  O303  1  0.71362537  0.60844958  0.03771692  1.0
  O  O304  1  0.63245990  0.98698215  0.46393021  1.0
  O  O305  1  0.36753198  0.51302116  0.96393841  1.0
  O  O306  1  0.36752999  0.01301982  0.53606026  1.0
  O  O307  1  0.63246167  0.48698192  0.03606729  1.0
  O  O308  1  0.99314062  0.14725333  0.08113017  1.0
  O  O309  1  0.00686219  0.35274723  0.58113158  1.0
  O  O310  1  0.00686233  0.85274698  0.91886894  1.0
  O  O311  1  0.99313717  0.64725252  0.41886918  1.0
  O  O312  1  0.95622859  0.02121299  0.08351813  1.0
  O  O313  1  0.04377218  0.47878757  0.58351902  1.0
  O  O314  1  0.04377336  0.97878843  0.91648099  1.0
  O  O315  1  0.95622718  0.52121218  0.41648133  1.0
  O  O316  1  0.22014824  0.86770981  0.42049538  1.0
  O  O317  1  0.77985333  0.63229190  0.92049520  1.0
  O  O318  1  0.77985378  0.13229604  0.57950621  1.0
  O  O319  1  0.22014725  0.36770952  0.07950515  1.0
  O  O320  1  0.08431303  0.79422378  0.45564858  1.0
  O  O321  1  0.91569151  0.70577455  0.95564792  1.0
  O  O322  1  0.91569095  0.20577763  0.54435218  1.0
  O  O323  1  0.08431375  0.29422243  0.04435160  1.0
  O  O324  1  0.07050783  0.42289538  0.45758933  1.0
  O  O325  1  0.92949467  0.07710465  0.95758959  1.0
  O  O326  1  0.92949357  0.57710437  0.54240979  1.0
  O  O327  1  0.07050777  0.92289621  0.04240994  1.0
  O  O328  1  0.95655489  0.31453451  0.45354061  1.0
  O  O329  1  0.04344816  0.18546719  0.95354132  1.0
  O  O330  1  0.04344737  0.68546580  0.54645974  1.0
  O  O331  1  0.95655786  0.81453423  0.04646232  1.0
  O  O332  1  0.50245673  0.09366492  0.44679715  1.0
  O  O333  1  0.49754523  0.40634177  0.94680216  1.0
  O  O334  1  0.49754566  0.90634204  0.55319785  1.0
  O  O335  1  0.50245797  0.59366352  0.05320313  1.0
  O  O336  1  0.54416863  0.19917382  0.49734635  1.0
  O  O337  1  0.45583153  0.30082948  0.99734774  1.0
  O  O338  1  0.45583132  0.80082982  0.50265318  1.0
  O  O339  1  0.54416974  0.69917193  0.00265302  1.0
  O  O340  1  0.34338956  0.26746909  0.10620172  1.0
  O  O341  1  0.65661011  0.23252811  0.60620190  1.0
  O  O342  1  0.65661094  0.73252789  0.89379822  1.0
  O  O343  1  0.34339021  0.76746832  0.39379804  1.0
  O  O344  1  0.19604405  0.18950196  0.10826869  1.0
  O  O345  1  0.80395052  0.31050466  0.60826674  1.0
  O  O346  1  0.80395735  0.81049779  0.89173371  1.0
  O  O347  1  0.19604321  0.68950285  0.39173114  1.0
