# generated using pymatgen
data_Al6H74C105Br6O31
_symmetry_space_group_name_H-M   'P 1'
_cell_length_a   13.61278412
_cell_length_b   13.94079335
_cell_length_c   27.16780075
_cell_angle_alpha   88.88823641
_cell_angle_beta   88.77220443
_cell_angle_gamma   61.15302758
_symmetry_Int_Tables_number   1
_chemical_formula_structural   Al6H74C105Br6O31
_chemical_formula_sum   'Al6 H74 C105 Br6 O31'
_cell_volume   4514.67128690
_cell_formula_units_Z   1
loop_
 _symmetry_equiv_pos_site_id
 _symmetry_equiv_pos_as_xyz
  1  'x, y, z'
loop_
 _atom_site_type_symbol
 _atom_site_label
 _atom_site_symmetry_multiplicity
 _atom_site_fract_x
 _atom_site_fract_y
 _atom_site_fract_z
 _atom_site_occupancy
  Al  Al0  1  0.58323687  0.56610972  0.50728359  1.0
  Al  Al1  1  0.81393861  0.57496810  0.50550431  1.0
  Al  Al2  1  0.59961898  0.78734179  0.50185611  1.0
  Al  Al3  1  0.07183607  0.09439315  0.01776680  1.0
  Al  Al4  1  0.85956902  0.05267381  0.01909988  1.0
  Al  Al5  1  0.08789063  0.85689463  0.01320814  1.0
  H  H6  1  0.68499121  0.95529646  0.79702025  1.0
  H  H7  1  0.03526256  0.71184658  0.79506222  1.0
  H  H8  1  0.19874613  0.05351631  0.78085344  1.0
  H  H9  1  0.70712019  0.24212086  0.79486971  1.0
  H  H10  1  0.76638622  0.99636861  0.13896607  1.0
  H  H11  1  0.20219406  0.75435297  0.14525493  1.0
  H  H12  1  0.02228919  0.19670786  0.14658155  1.0
  H  H13  1  0.66815457  0.93274686  0.37892825  1.0
  H  H14  1  0.37750492  0.64692000  0.38172193  1.0
  H  H15  1  0.97732358  0.36849060  0.38148188  1.0
  H  H16  1  0.65894269  0.07325869  0.21563060  1.0
  H  H17  1  0.39051847  0.70434014  0.80293317  1.0
  H  H18  1  0.21796792  0.65538167  0.22444495  1.0
  H  H19  1  0.10833624  0.23213317  0.21876449  1.0
  H  H20  1  0.62490017  0.05150032  0.30415688  1.0
  H  H21  1  0.28010473  0.61737319  0.31107161  1.0
  H  H22  1  0.09296865  0.29311294  0.30508457  1.0
  H  H23  1  0.07127732  0.54101500  0.20930907  1.0
  H  H24  1  0.41122793  0.02383302  0.20490741  1.0
  H  H25  1  0.57746679  0.30282200  0.23522144  1.0
  H  H26  1  0.03788724  0.51979360  0.29706778  1.0
  H  H27  1  0.46432340  0.99224335  0.29210693  1.0
  H  H28  1  0.94708148  0.35520392  0.81338208  1.0
  H  H29  1  0.56504781  0.35725015  0.32179039  1.0
  H  H30  1  0.67174412  0.91567540  0.71530945  1.0
  H  H31  1  0.38620986  0.68935257  0.71748402  1.0
  H  H32  1  0.96602042  0.34769242  0.72702390  1.0
  H  H33  1  0.93330479  0.59893231  0.37569321  1.0
  H  H34  1  0.48171069  0.89253844  0.37104912  1.0
  H  H35  1  0.64672715  0.40273431  0.39304480  1.0
  H  H36  1  0.94706293  0.90106208  0.68952870  1.0
  H  H37  1  0.12305386  0.94488899  0.69875229  1.0
  H  H38  1  0.87366884  0.14078161  0.71148999  1.0
  H  H39  1  0.72134031  0.77643116  0.73041848  1.0
  H  H40  1  0.80087091  0.98806860  0.69578107  1.0
  H  H41  1  0.18617926  0.80023801  0.69990396  1.0
  H  H42  1  0.99154031  0.16192126  0.70613110  1.0
  H  H43  1  0.83016020  0.01404271  0.77772102  1.0
  H  H44  1  0.17934518  0.79580650  0.78581665  1.0
  H  H45  1  0.01147068  0.15975506  0.79197421  1.0
  H  H46  1  0.97307140  0.91441707  0.77277940  1.0
  H  H47  1  0.10031714  0.94040669  0.78451775  1.0
  H  H48  1  0.91874900  0.10499705  0.79560705  1.0
  H  H49  1  0.92879189  0.67492686  0.80527464  1.0
  H  H50  1  0.47980435  0.74316721  0.71351910  1.0
  H  H51  1  0.34405941  0.99285067  0.79284968  1.0
  H  H52  1  0.65854186  0.38057320  0.81071268  1.0
  H  H53  1  0.05800831  0.74320462  0.63927616  1.0
  H  H54  1  0.04158543  0.62409432  0.64600064  1.0
  H  H55  1  0.25351494  0.63339244  0.67547197  1.0
  H  H56  1  0.23460868  0.51669078  0.67648952  1.0
  H  H57  1  0.21291216  0.53158115  0.58322131  1.0
  H  H58  1  0.34362924  0.51931369  0.60046793  1.0
  H  H59  1  0.23340656  0.64822924  0.58300316  1.0
  H  H60  1  0.14601866  0.20163566  0.65871773  1.0
  H  H61  1  0.83155114  0.46450873  0.72634988  1.0
  H  H62  1  0.29464632  0.14102290  0.66240478  1.0
  H  H63  1  0.13154190  0.23401705  0.75066017  1.0
  H  H64  1  0.27894013  0.17601751  0.75274209  1.0
  H  H65  1  0.26971820  0.32031663  0.69150472  1.0
  H  H66  1  0.19087779  0.38063734  0.74608444  1.0
  H  H67  1  0.12163049  0.38066091  0.69177718  1.0
  H  H68  1  0.50571592  0.33769189  0.69336390  1.0
  H  H69  1  0.53676872  0.34775774  0.75544117  1.0
  H  H70  1  0.59697783  0.13800690  0.69857885  1.0
  H  H71  1  0.66178788  0.13607886  0.75447747  1.0
  H  H72  1  0.72620390  0.81761321  0.81287094  1.0
  H  H73  1  0.47785876  0.22281794  0.79904543  1.0
  H  H74  1  0.49263627  0.10545378  0.76761652  1.0
  H  H75  1  0.40617082  0.23801242  0.74327735  1.0
  H  H76  1  0.45835147  0.78499878  0.79736794  1.0
  H  H77  1  0.80225359  0.45056920  0.81013382  1.0
  H  H78  1  0.51793964  0.44833079  0.53711813  1.0
  H  H79  1  0.18345788  0.16665664  0.04567002  1.0
  C  C80  1  0.44716555  0.77775698  0.56586689  1.0
  C  C81  1  0.87825653  0.86614757  0.85093466  1.0
  C  C82  1  0.21796884  0.15600142  0.68299625  1.0
  C  C83  1  0.20603476  0.22147459  0.72900538  1.0
  C  C84  1  0.19657691  0.33174608  0.71390018  1.0
  C  C85  1  0.56752985  0.29623147  0.72252021  1.0
  C  C86  1  0.58425505  0.18190353  0.73337415  1.0
  C  C87  1  0.48491731  0.18704057  0.76256093  1.0
  C  C88  1  0.25800157  0.88975255  0.84891694  1.0
  C  C89  1  0.84222905  0.26148008  0.86096485  1.0
  C  C90  1  0.83186125  0.79950540  0.65393514  1.0
  C  C91  1  0.33165036  0.84439079  0.64857273  1.0
  C  C92  1  0.82590000  0.33924171  0.66082339  1.0
  C  C93  1  0.80967621  0.78271177  0.61289896  1.0
  C  C94  1  0.37239620  0.82000699  0.60750203  1.0
  C  C95  1  0.81167045  0.37914070  0.61972033  1.0
  C  C96  1  0.88115981  0.17413212  0.09371114  1.0
  C  C97  1  0.77486472  0.44690975  0.57617199  1.0
  C  C98  1  0.92160370  0.86288707  0.08007678  1.0
  C  C99  1  0.20701667  0.89866866  0.08384274  1.0
  C  C100  1  0.87258396  0.20065628  0.95406703  1.0
  C  C101  1  0.91431505  0.89547473  0.94367977  1.0
  C  C102  1  0.19845113  0.91459253  0.94304413  1.0
  C  C103  1  0.73473146  0.86561367  0.35837129  1.0
  C  C104  1  0.38423882  0.71000403  0.35981237  1.0
  C  C105  1  0.90998035  0.35975423  0.36471443  1.0
  C  C106  1  0.75385360  0.88041814  0.30856436  1.0
  C  C107  1  0.34531668  0.73243489  0.31128509  1.0
  C  C108  1  0.77900552  0.74866841  0.56878314  1.0
  C  C109  1  0.92264875  0.32045470  0.31652974  1.0
  C  C110  1  0.79308129  0.90582972  0.20715478  1.0
  C  C111  1  0.27552486  0.77479502  0.21146849  1.0
  C  C112  1  0.94026305  0.25099032  0.21742559  1.0
  C  C113  1  0.47990495  0.73992725  0.43118923  1.0
  C  C114  1  0.78976429  0.44182308  0.44058649  1.0
  C  C115  1  0.77283028  0.74734876  0.43383829  1.0
  C  C116  1  0.70786320  0.99508208  0.23465963  1.0
  C  C117  1  0.25860941  0.69757081  0.24111284  1.0
  C  C118  1  0.03172975  0.25574534  0.24039854  1.0
  C  C119  1  0.94995582  0.73126560  0.78494859  1.0
  C  C120  1  0.68915678  0.98289665  0.28334360  1.0
  C  C121  1  0.29266724  0.67678581  0.28888231  1.0
  C  C122  1  0.02312912  0.28939062  0.28789357  1.0
  C  C123  1  0.81454189  0.91752742  0.15747858  1.0
  C  C124  1  0.24307852  0.79598217  0.16217506  1.0
  C  C125  1  0.94633901  0.21947498  0.16850757  1.0
  C  C126  1  0.89957344  0.83162701  0.13043793  1.0
  C  C127  1  0.25991894  0.87145764  0.13336819  1.0
  C  C128  1  0.85683563  0.21586428  0.14546380  1.0
  C  C129  1  0.88489866  0.67695159  0.35656650  1.0
  C  C130  1  0.28030849  0.98089703  0.77420278  1.0
  C  C131  1  0.44359942  0.84874155  0.35381836  1.0
  C  C132  1  0.72287523  0.37892026  0.37109146  1.0
  C  C133  1  0.90527001  0.68774538  0.30648876  1.0
  C  C134  1  0.40995258  0.87050837  0.30470494  1.0
  C  C135  1  0.73133953  0.34224450  0.32281975  1.0
  C  C136  1  0.83978024  0.79025515  0.28190919  1.0
  C  C137  1  0.35997905  0.81234423  0.28285929  1.0
  C  C138  1  0.83146277  0.31332300  0.29476010  1.0
  C  C139  1  0.98902706  0.59867872  0.27855541  1.0
  C  C140  1  0.42604367  0.94809605  0.27525104  1.0
  C  C141  1  0.72197662  0.31237755  0.78921611  1.0
  C  C142  1  0.64103412  0.33569442  0.30000914  1.0
  C  C143  1  0.00764500  0.61032100  0.22976975  1.0
  C  C144  1  0.39670602  0.96570166  0.22693300  1.0
  C  C145  1  0.64799857  0.30526039  0.25209638  1.0
  C  C146  1  0.94473590  0.71260788  0.20407739  1.0
  C  C147  1  0.34602902  0.90906317  0.20380141  1.0
  C  C148  1  0.74680812  0.27656082  0.22259272  1.0
  C  C149  1  0.73928653  0.84461425  0.73390040  1.0
  C  C150  1  0.39733633  0.75930999  0.72765856  1.0
  C  C151  1  0.87850572  0.37954631  0.73919517  1.0
  C  C152  1  0.95040017  0.71525394  0.72905202  1.0
  C  C153  1  0.85937944  0.80278691  0.23106853  1.0
  C  C154  1  0.32650639  0.83259026  0.23278158  1.0
  C  C155  1  0.83971724  0.27956859  0.24504571  1.0
  C  C156  1  0.96323915  0.72887869  0.15382123  1.0
  C  C157  1  0.31384586  0.92542935  0.15398292  1.0
  C  C158  1  0.75695809  0.24599054  0.17258410  1.0
  C  C159  1  0.79981342  0.76497531  0.38226320  1.0
  C  C160  1  0.43263651  0.76793689  0.38082372  1.0
  C  C161  1  0.81062884  0.38950667  0.39151223  1.0
  C  C162  1  0.87243159  0.91481756  0.71109435  1.0
  C  C163  1  0.30133355  0.96859214  0.71790030  1.0
  C  C164  1  0.19019184  0.87031508  0.71535080  1.0
  C  C165  1  0.91090902  0.18917536  0.72546558  1.0
  C  C166  1  0.88764513  0.92984185  0.76622242  1.0
  C  C167  1  0.17916952  0.87054655  0.77210990  1.0
  C  C168  1  0.92733736  0.17511570  0.78183825  1.0
  C  C169  1  0.89292436  0.87533478  0.89425122  1.0
  C  C170  1  0.23937653  0.89699219  0.89300687  1.0
  C  C171  1  0.84370716  0.24429462  0.90501425  1.0
  C  C172  1  0.84947624  0.81701673  0.70488450  1.0
  C  C173  1  0.30508691  0.86111184  0.70064568  1.0
  C  C174  1  0.71503568  0.34052150  0.73380782  1.0
  C  C175  1  0.83283768  0.31195916  0.71288114  1.0
  C  C176  1  0.74578074  0.86997494  0.78844939  1.0
  C  C177  1  0.38822946  0.77538752  0.78371284  1.0
  C  C178  1  0.86849393  0.37274806  0.79547303  1.0
  C  C179  1  0.86512269  0.85027365  0.79914997  1.0
  C  C180  1  0.27693248  0.87909081  0.79616169  1.0
  C  C181  1  0.83995986  0.28053583  0.80837544  1.0
  C  C182  1  0.08570186  0.66609894  0.66023165  1.0
  C  C183  1  0.21197127  0.59387541  0.65649043  1.0
  C  C184  1  0.25242529  0.57197717  0.60292718  1.0
  Br  Br185  1  0.07326609  0.60613806  0.11839214  1.0
  Br  Br186  1  0.35380598  0.01637758  0.11443539  1.0
  Br  Br187  1  0.62724466  0.25433654  0.14257814  1.0
  Br  Br188  1  0.92441967  0.58430283  0.71825436  1.0
  Br  Br189  1  0.45643964  0.95365255  0.70324650  1.0
  Br  Br190  1  0.61284726  0.50871178  0.72709962  1.0
  O  O191  1  0.67291405  0.48472751  0.56508915  1.0
  O  O192  1  0.70076972  0.45991505  0.46322046  1.0
  O  O193  1  0.84148846  0.65938068  0.45606409  1.0
  O  O194  1  0.49667524  0.81252990  0.45247926  1.0
  O  O195  1  0.50350321  0.64690431  0.44899256  1.0
  O  O196  1  0.86129672  0.47037905  0.45602769  1.0
  O  O197  1  0.67881982  0.81936049  0.45232658  1.0
  O  O198  1  0.66657856  0.64367695  0.50521268  1.0
  O  O199  1  0.17175829  0.99494485  0.06773947  1.0
  O  O200  1  0.81845416  0.13884017  0.07498302  1.0
  O  O201  1  0.01863707  0.80708343  0.06036940  1.0
  O  O202  1  0.84686135  0.65190700  0.55342098  1.0
  O  O203  1  0.96579722  0.17133499  0.07256071  1.0
  O  O204  1  0.84339252  0.95022022  0.06076059  1.0
  O  O205  1  0.19414273  0.82390078  0.06237564  1.0
  O  O206  1  0.00570386  0.00011804  0.01622705  1.0
  O  O207  1  0.96544134  0.18679939  0.96921005  1.0
  O  O208  1  0.83796259  0.98167630  0.96443858  1.0
  O  O209  1  0.19360277  0.83311258  0.96452084  1.0
  O  O210  1  0.05597602  0.69105471  0.71183563  1.0
  O  O211  1  0.22010118  0.05229938  0.68975722  1.0
  O  O212  1  0.67127859  0.29069176  0.70515342  1.0
  O  O213  1  0.48532990  0.84048400  0.54807814  1.0
  O  O214  1  0.16675480  0.00759168  0.96113248  1.0
  O  O215  1  0.80522601  0.17429917  0.97740059  1.0
  O  O216  1  0.00897916  0.82883395  0.96233267  1.0
  O  O217  1  0.47379179  0.68252109  0.55170306  1.0
  O  O218  1  0.84753277  0.46644279  0.55327754  1.0
  O  O219  1  0.68519798  0.81469425  0.54947385  1.0
  O  O220  1  0.50694740  0.49402361  0.50830640  1.0
  O  O221  1  0.13417993  0.17885497  0.01837733  1.0
