# generated using pymatgen
data_Zn2H17C40N4O12F5
_symmetry_space_group_name_H-M   'P 1'
_cell_length_a   14.05429925
_cell_length_b   21.70479073
_cell_length_c   21.79390239
_cell_angle_alpha   90.20429940
_cell_angle_beta   90.16130320
_cell_angle_gamma   89.98079981
_symmetry_Int_Tables_number   1
_chemical_formula_structural   Zn2H17C40N4O12F5
_chemical_formula_sum   'Zn4 H34 C80 N8 O24 F10'
_cell_volume   6648.06559604
_cell_formula_units_Z   2
loop_
 _symmetry_equiv_pos_site_id
 _symmetry_equiv_pos_as_xyz
  1  'x, y, z'
loop_
 _atom_site_type_symbol
 _atom_site_label
 _atom_site_symmetry_multiplicity
 _atom_site_fract_x
 _atom_site_fract_y
 _atom_site_fract_z
 _atom_site_occupancy
  Zn  Zn0  1  0.60643428  0.99619558  0.50036488  1.0
  Zn  Zn1  1  0.40685103  0.00286734  0.49999739  1.0
  Zn  Zn2  1  0.39362348  0.50068693  0.00451621  1.0
  Zn  Zn3  1  0.59312826  0.50047817  0.99811450  1.0
  H  H4  1  0.94034015  0.89625312  0.49181294  1.0
  H  H5  1  0.07062119  0.10015654  0.50026256  1.0
  H  H6  1  0.25875422  0.90952351  0.49736343  1.0
  H  H7  1  0.08281649  0.89988529  0.49485555  1.0
  H  H8  1  0.75423353  0.08775170  0.50176464  1.0
  H  H9  1  0.92997777  0.09660695  0.50150966  1.0
  H  H10  1  0.34307416  0.86187125  0.35869076  1.0
  H  H11  1  0.64613915  0.86095720  0.36622720  1.0
  H  H12  1  0.65739871  0.64241876  0.13862948  1.0
  H  H13  1  0.35449866  0.63348474  0.14079314  1.0
  H  H14  1  0.65939741  0.22637029  0.72238095  1.0
  H  H15  1  0.34054197  0.27799544  0.77533094  1.0
  H  H16  1  0.63145010  0.36760906  0.86701087  1.0
  H  H17  1  0.64812782  0.28788172  0.78724337  1.0
  H  H18  1  0.36898009  0.13314736  0.63373572  1.0
  H  H19  1  0.35189104  0.21291369  0.71349599  1.0
  H  H20  1  0.66721933  0.22224275  0.28370297  1.0
  H  H21  1  0.35552717  0.28213883  0.22246023  1.0
  H  H22  1  0.65572499  0.36133464  0.13544132  1.0
  H  H23  1  0.66381193  0.28114845  0.21482781  1.0
  H  H24  1  0.36535325  0.13516795  0.36057962  1.0
  H  H25  1  0.35889866  0.21469514  0.28067273  1.0
  H  H26  1  0.64413439  0.77899125  0.72006800  1.0
  H  H27  1  0.33253801  0.71796650  0.77910345  1.0
  H  H28  1  0.63436546  0.64054880  0.86680930  1.0
  H  H29  1  0.64086147  0.72035338  0.78720299  1.0
  H  H30  1  0.34369622  0.86512018  0.63900365  1.0
  H  H31  1  0.33579033  0.78614223  0.71955413  1.0
  H  H32  1  0.06010771  0.50846093  0.10398908  1.0
  H  H33  1  0.92853635  0.50075828  0.90092097  1.0
  H  H34  1  0.74188041  0.50275517  0.09104817  1.0
  H  H35  1  0.91788271  0.50552557  0.10040271  1.0
  H  H36  1  0.24521848  0.49887933  0.91321041  1.0
  H  H37  1  0.06943370  0.49928063  0.90442677  1.0
  C  C38  1  0.52367196  0.08473698  0.58445630  1.0
  C  C39  1  0.51433387  0.08365583  0.41524768  1.0
  C  C40  1  0.49404520  0.91397745  0.41503259  1.0
  C  C41  1  0.49438222  0.91508643  0.58453734  1.0
  C  C42  1  0.47731021  0.41690477  0.91570977  1.0
  C  C43  1  0.48517397  0.58650865  0.91828272  1.0
  C  C44  1  0.50670156  0.58517592  0.08738165  1.0
  C  C45  1  0.50470787  0.41561271  0.08482405  1.0
  C  C46  1  0.80604819  0.94171922  0.49511345  1.0
  C  C47  1  0.90483058  0.94067217  0.49440067  1.0
  C  C48  1  0.20540857  0.05520160  0.50088718  1.0
  C  C49  1  0.10669448  0.05588330  0.49959980  1.0
  C  C50  1  0.21285107  0.94997780  0.49795117  1.0
  C  C51  1  0.11458291  0.94552021  0.49663589  1.0
  C  C52  1  0.79961997  0.04711138  0.49966665  1.0
  C  C53  1  0.89789127  0.05109012  0.49947510  1.0
  C  C54  1  0.95322988  0.99702923  0.49694536  1.0
  C  C55  1  0.05863128  0.99937873  0.49753467  1.0
  C  C56  1  0.40946464  0.84252671  0.34165003  1.0
  C  C57  1  0.41033596  0.79695009  0.29585705  1.0
  C  C58  1  0.32507938  0.77115714  0.27021343  1.0
  C  C59  1  0.58183813  0.84228445  0.34539957  1.0
  C  C60  1  0.58566746  0.79653194  0.29998425  1.0
  C  C61  1  0.67350166  0.77269804  0.27630269  1.0
  C  C62  1  0.59106122  0.65920117  0.15822745  1.0
  C  C63  1  0.59018498  0.70498543  0.20381363  1.0
  C  C64  1  0.67546384  0.73069781  0.22951990  1.0
  C  C65  1  0.41872953  0.65476429  0.15905354  1.0
  C  C66  1  0.41484479  0.70048455  0.20449257  1.0
  C  C67  1  0.32703934  0.72426003  0.22829467  1.0
  C  C68  1  0.49460531  0.86486182  0.36596175  1.0
  C  C69  1  0.49916340  0.77298161  0.27412217  1.0
  C  C70  1  0.50598441  0.63445309  0.13629585  1.0
  C  C71  1  0.50135002  0.72658001  0.22783504  1.0
  C  C72  1  0.52058308  0.13396992  0.63278822  1.0
  C  C73  1  0.47985034  0.36839768  0.86666489  1.0
  C  C74  1  0.60041825  0.16211065  0.65949014  1.0
  C  C75  1  0.59326762  0.20730723  0.70448035  1.0
  C  C76  1  0.39984383  0.34143795  0.83898146  1.0
  C  C77  1  0.40675592  0.29626794  0.79390984  1.0
  C  C78  1  0.56858859  0.34715139  0.84592234  1.0
  C  C79  1  0.57707219  0.30223639  0.80092156  1.0
  C  C80  1  0.43173177  0.15443289  0.65414188  1.0
  C  C81  1  0.42300088  0.19947025  0.69901747  1.0
  C  C82  1  0.50396837  0.22721878  0.72554196  1.0
  C  C83  1  0.49598172  0.27541516  0.77360716  1.0
  C  C84  1  0.51675472  0.13282369  0.36724153  1.0
  C  C85  1  0.50419466  0.36692557  0.13327647  1.0
  C  C86  1  0.60002570  0.15924440  0.34366725  1.0
  C  C87  1  0.59878982  0.20449771  0.29881422  1.0
  C  C88  1  0.42131574  0.34251519  0.15946360  1.0
  C  C89  1  0.42365372  0.29772703  0.20469910  1.0
  C  C90  1  0.59061018  0.34302997  0.15533214  1.0
  C  C91  1  0.59437824  0.29794500  0.20025224  1.0
  C  C92  1  0.43080723  0.15504073  0.34277679  1.0
  C  C93  1  0.42805103  0.20004224  0.29782408  1.0
  C  C94  1  0.51237893  0.22604981  0.27448656  1.0
  C  C95  1  0.51044525  0.27407546  0.22632274  1.0
  C  C96  1  0.49521895  0.86709790  0.63370400  1.0
  C  C97  1  0.48290852  0.63438688  0.86903111  1.0
  C  C98  1  0.57815666  0.84117940  0.65867656  1.0
  C  C99  1  0.57593451  0.79638845  0.70392948  1.0
  C  C100  1  0.39966684  0.65804973  0.84240775  1.0
  C  C101  1  0.40094188  0.70279047  0.79706463  1.0
  C  C102  1  0.56889838  0.65852912  0.84688817  1.0
  C  C103  1  0.57169279  0.70341858  0.80182751  1.0
  C  C104  1  0.40886210  0.84528250  0.65757337  1.0
  C  C105  1  0.40520260  0.80065505  0.70293895  1.0
  C  C106  1  0.48919584  0.77479969  0.72732049  1.0
  C  C107  1  0.48736059  0.72688176  0.77559881  1.0
  C  C108  1  0.19414457  0.50508395  0.05867658  1.0
  C  C109  1  0.09535661  0.50593958  0.05971412  1.0
  C  C110  1  0.79408422  0.49973302  0.94586854  1.0
  C  C111  1  0.89277652  0.50125995  0.94506113  1.0
  C  C112  1  0.78747194  0.50238603  0.05069467  1.0
  C  C113  1  0.88575822  0.50382565  0.05499809  1.0
  C  C114  1  0.20003442  0.50097832  0.95369639  1.0
  C  C115  1  0.10172851  0.50119527  0.94975878  1.0
  C  C116  1  0.04664480  0.50363226  0.00358819  1.0
  C  C117  1  0.94125268  0.50312631  0.00128714  1.0
  N  N118  1  0.75370433  0.99249814  0.49768867  1.0
  N  N119  1  0.25850643  0.00473944  0.50013990  1.0
  N  N120  1  0.24626277  0.50273648  0.00808696  1.0
  N  N121  1  0.74139915  0.50021781  0.99620491  1.0
  N  N122  1  0.23635504  0.69809740  0.20557140  1.0
  N  N123  1  0.23265773  0.79491669  0.29243652  1.0
  N  N124  1  0.76788506  0.70840970  0.20582214  1.0
  N  N125  1  0.76410667  0.79544175  0.30254236  1.0
  O  O126  1  0.60404111  0.06566073  0.56597687  1.0
  O  O127  1  0.44267481  0.06562616  0.56567276  1.0
  O  O128  1  0.43207390  0.06480222  0.43118101  1.0
  O  O129  1  0.59327400  0.06435772  0.43626840  1.0
  O  O130  1  0.41349220  0.93197254  0.43449571  1.0
  O  O131  1  0.57522807  0.93285603  0.43235609  1.0
  O  O132  1  0.57464054  0.93409706  0.56573308  1.0
  O  O133  1  0.41330160  0.93314966  0.56523415  1.0
  O  O134  1  0.39754501  0.43963217  0.93103699  1.0
  O  O135  1  0.55805802  0.43163304  0.93842019  1.0
  O  O136  1  0.56727009  0.56644285  0.93339255  1.0
  O  O137  1  0.40647139  0.56979940  0.94141804  1.0
  O  O138  1  0.58709616  0.56915873  0.06604088  1.0
  O  O139  1  0.42578279  0.56421592  0.07206913  1.0
  O  O140  1  0.42483872  0.43070494  0.06191548  1.0
  O  O141  1  0.58532157  0.43812887  0.07014416  1.0
  O  O142  1  0.22528405  0.64194895  0.21169963  1.0
  O  O143  1  0.17935975  0.73427497  0.18174983  1.0
  O  O144  1  0.21517997  0.84963820  0.28202821  1.0
  O  O145  1  0.18171331  0.75847669  0.32087641  1.0
  O  O146  1  0.78492200  0.71882238  0.15129714  1.0
  O  O147  1  0.81925612  0.67993145  0.24211426  1.0
  O  O148  1  0.77526943  0.78916938  0.35846589  1.0
  O  O149  1  0.82093425  0.81946085  0.26666467  1.0
  F  F150  1  0.75857485  0.88826880  0.49318512  1.0
  F  F151  1  0.25229137  0.10909114  0.50321575  1.0
  F  F152  1  0.69015951  0.14635497  0.64218457  1.0
  F  F153  1  0.31018924  0.35830025  0.85550658  1.0
  F  F154  1  0.68753174  0.14170983  0.36405095  1.0
  F  F155  1  0.33349099  0.36209148  0.14217201  1.0
  F  F156  1  0.66596330  0.85857944  0.63954757  1.0
  F  F157  1  0.31220865  0.63755969  0.85953558  1.0
  F  F158  1  0.24176327  0.50666776  0.11194890  1.0
  F  F159  1  0.74682831  0.49735575  0.89226445  1.0
