# generated using pymatgen
data_CuH15C24Br(NO2)3
_symmetry_space_group_name_H-M   'P 1'
_cell_length_a   7.69249081
_cell_length_b   30.22113737
_cell_length_c   32.32851465
_cell_angle_alpha   115.21875065
_cell_angle_beta   89.99945568
_cell_angle_gamma   89.99979834
_symmetry_Int_Tables_number   1
_chemical_formula_structural   CuH15C24Br(NO2)3
_chemical_formula_sum   'Cu8 H120 C192 Br8 N24 O48'
_cell_volume   6799.26879254
_cell_formula_units_Z   8
loop_
 _symmetry_equiv_pos_site_id
 _symmetry_equiv_pos_as_xyz
  1  'x, y, z'
loop_
 _atom_site_type_symbol
 _atom_site_label
 _atom_site_symmetry_multiplicity
 _atom_site_fract_x
 _atom_site_fract_y
 _atom_site_fract_z
 _atom_site_occupancy
  Cu  Cu0  1  0.21305898  0.12022297  0.25696420  1.0
  Cu  Cu1  1  0.21305356  0.37977756  0.24303308  1.0
  Cu  Cu2  1  0.78695568  0.87978228  0.74304053  1.0
  Cu  Cu3  1  0.78694420  0.62022222  0.75696235  1.0
  Cu  Cu4  1  0.73766574  0.12427308  0.76049500  1.0
  Cu  Cu5  1  0.73767351  0.37572517  0.73950166  1.0
  Cu  Cu6  1  0.26234372  0.87572742  0.23950473  1.0
  Cu  Cu7  1  0.26234374  0.62427349  0.26049858  1.0
  H  H8  1  0.32982105  0.20398849  0.54660052  1.0
  H  H9  1  0.32984222  0.29600742  0.95339891  1.0
  H  H10  1  0.67017020  0.79601091  0.45340063  1.0
  H  H11  1  0.67016594  0.70399344  0.04660097  1.0
  H  H12  1  0.21330923  0.32965090  0.67365274  1.0
  H  H13  1  0.21331639  0.17034859  0.82634468  1.0
  H  H14  1  0.78668463  0.67034740  0.32634922  1.0
  H  H15  1  0.78668917  0.82965118  0.17365415  1.0
  H  H16  1  0.06740326  0.32988161  0.54508451  1.0
  H  H17  1  0.06741311  0.17011566  0.95491328  1.0
  H  H18  1  0.93259450  0.67011925  0.45491847  1.0
  H  H19  1  0.93258985  0.82988484  0.04508615  1.0
  H  H20  1  0.39135244  0.27026070  0.39538903  1.0
  H  H21  1  0.39135981  0.22973501  0.10460963  1.0
  H  H22  1  0.60864662  0.72973870  0.60461275  1.0
  H  H23  1  0.60864055  0.77026549  0.89539042  1.0
  H  H24  1  0.37472138  0.21148019  0.31309310  1.0
  H  H25  1  0.37472596  0.28851922  0.18690584  1.0
  H  H26  1  0.62527767  0.78851994  0.68690958  1.0
  H  H27  1  0.62527050  0.71148091  0.81309468  1.0
  H  H28  1  0.05383449  0.11789252  0.34232937  1.0
  H  H29  1  0.05383633  0.38210472  0.15766603  1.0
  H  H30  1  0.94616197  0.88210834  0.65767175  1.0
  H  H31  1  0.94616012  0.61789395  0.84233267  1.0
  H  H32  1  0.07003527  0.17043745  0.42586156  1.0
  H  H33  1  0.07003857  0.32955573  0.07413372  1.0
  H  H34  1  0.92995598  0.82956195  0.57413990  1.0
  H  H35  1  0.92996828  0.67044294  0.92586498  1.0
  H  H36  1  0.19917975  0.19546098  0.72586084  1.0
  H  H37  1  0.19918714  0.30453670  0.77413991  1.0
  H  H38  1  0.80081800  0.80453732  0.27414111  1.0
  H  H39  1  0.80081322  0.69546233  0.22586048  1.0
  H  H40  1  0.39347514  0.16263677  0.76692412  1.0
  H  H41  1  0.39347980  0.33736046  0.73307415  1.0
  H  H42  1  0.60652522  0.83736116  0.23307676  1.0
  H  H43  1  0.60652056  0.66264003  0.26692713  1.0
  H  H44  1  0.82129778  0.16430785  0.68945422  1.0
  H  H45  1  0.82130719  0.33569314  0.81054273  1.0
  H  H46  1  0.17869477  0.83569228  0.31054599  1.0
  H  H47  1  0.17869447  0.66430480  0.18945691  1.0
  H  H48  1  0.64545416  0.20160657  0.64701364  1.0
  H  H49  1  0.64546498  0.29839629  0.85298600  1.0
  H  H50  1  0.35453710  0.79839539  0.35298885  1.0
  H  H51  1  0.35453537  0.70160092  0.14701273  1.0
  H  H52  1  0.29798209  0.50625355  0.70866226  1.0
  H  H53  1  0.29798746  0.99374370  0.79133357  1.0
  H  H54  1  0.70201437  0.49374805  0.29133730  1.0
  H  H55  1  0.70201939  0.00625680  0.20866555  1.0
  H  H56  1  0.14094573  0.58296245  0.75199649  1.0
  H  H57  1  0.14095000  0.91703554  0.74800030  1.0
  H  H58  1  0.85904812  0.41703842  0.24800278  1.0
  H  H59  1  0.85905556  0.08296497  0.25199882  1.0
  H  H60  1  0.66131043  0.51754897  0.70504953  1.0
  H  H61  1  0.66131452  0.98245400  0.79495179  1.0
  H  H62  1  0.33868732  0.48244970  0.29494824  1.0
  H  H63  1  0.33869493  0.01754906  0.20504867  1.0
  H  H64  1  0.80115473  0.43538700  0.66218326  1.0
  H  H65  1  0.80116680  0.06461366  0.83781639  1.0
  H  H66  1  0.19884043  0.56461167  0.33781513  1.0
  H  H67  1  0.19884265  0.93538794  0.16218410  1.0
  H  H68  1  0.70025498  0.33535189  0.17701393  1.0
  H  H69  1  0.70025716  0.16464565  0.32298291  1.0
  H  H70  1  0.29974667  0.66464567  0.82298619  1.0
  H  H71  1  0.29974840  0.83535485  0.67701590  1.0
  H  H72  1  0.56718751  0.33643501  0.04797103  1.0
  H  H73  1  0.56719757  0.16356248  0.45202671  1.0
  H  H74  1  0.43281024  0.66356804  0.95203158  1.0
  H  H75  1  0.43280279  0.83643692  0.54797136  1.0
  H  H76  1  0.82987178  0.21092942  0.05029416  1.0
  H  H77  1  0.82987759  0.28906745  0.44970274  1.0
  H  H78  1  0.17013247  0.78907182  0.94970340  1.0
  H  H79  1  0.17012537  0.71093195  0.55029718  1.0
  H  H80  1  0.67685433  0.19255032  0.22197250  1.0
  H  H81  1  0.67685112  0.30744582  0.27802507  1.0
  H  H82  1  0.32314212  0.80744872  0.77802635  1.0
  H  H83  1  0.32314403  0.69254993  0.72197153  1.0
  H  H84  1  0.86252712  0.15464292  0.25995776  1.0
  H  H85  1  0.86251190  0.34535608  0.24003899  1.0
  H  H86  1  0.13747713  0.84535831  0.74004166  1.0
  H  H87  1  0.13747546  0.65464077  0.75995682  1.0
  H  H88  1  0.30535123  0.16807695  0.19279681  1.0
  H  H89  1  0.30533742  0.33192519  0.30720028  1.0
  H  H90  1  0.69465173  0.83192464  0.80720336  1.0
  H  H91  1  0.69465124  0.66807678  0.69279788  1.0
  H  H92  1  0.13733591  0.21059826  0.15376317  1.0
  H  H93  1  0.13733283  0.28940135  0.34623237  1.0
  H  H94  1  0.86266185  0.78940151  0.84623535  1.0
  H  H95  1  0.86266232  0.71059915  0.65376521  1.0
  H  H96  1  0.77875295  0.51272253  0.21382972  1.0
  H  H97  1  0.77875342  0.98727644  0.28617011  1.0
  H  H98  1  0.22124740  0.48727832  0.78617233  1.0
  H  H99  1  0.22124563  0.01272406  0.71383179  1.0
  H  H100  1  0.61643483  0.58849072  0.25708112  1.0
  H  H101  1  0.61643547  0.91150827  0.24292031  1.0
  H  H102  1  0.38356163  0.41150905  0.74291987  1.0
  H  H103  1  0.38356228  0.08849259  0.75708143  1.0
  H  H104  1  0.14160568  0.52083914  0.20812132  1.0
  H  H105  1  0.14160473  0.97916316  0.29188159  1.0
  H  H106  1  0.85839208  0.47915880  0.79187832  1.0
  H  H107  1  0.85839432  0.02083916  0.70812012  1.0
  H  H108  1  0.28703724  0.43959166  0.16499331  1.0
  H  H109  1  0.28704298  0.06040942  0.33500773  1.0
  H  H110  1  0.71296312  0.56040737  0.83500831  1.0
  H  H111  1  0.71296128  0.93959218  0.66499337  1.0
  H  H112  1  0.89581226  0.27748657  0.89877251  1.0
  H  H113  1  0.89580816  0.22251277  0.60122640  1.0
  H  H114  1  0.10419460  0.72251649  0.10122547  1.0
  H  H115  1  0.10418569  0.77748700  0.39877274  1.0
  H  H116  1  0.88679252  0.21786638  0.81668411  1.0
  H  H117  1  0.88679343  0.28213407  0.68331434  1.0
  H  H118  1  0.11320783  0.78213595  0.18331358  1.0
  H  H119  1  0.11320432  0.71786496  0.31668513  1.0
  H  H120  1  0.57021764  0.12313125  0.84549623  1.0
  H  H121  1  0.57021448  0.37686776  0.65449864  1.0
  H  H122  1  0.42978272  0.87687108  0.15450269  1.0
  H  H123  1  0.42977677  0.62313054  0.34550146  1.0
  H  H124  1  0.57737844  0.17685707  0.92882781  1.0
  H  H125  1  0.57737934  0.32313717  0.57116916  1.0
  H  H126  1  0.42262582  0.82314453  0.07117144  1.0
  H  H127  1  0.42261191  0.67686113  0.42883156  1.0
  C  C128  1  0.19725380  0.26430317  0.54103014  1.0
  C  C129  1  0.19727168  0.23569305  0.95896849  1.0
  C  C130  1  0.80274265  0.73569549  0.45897196  1.0
  C  C131  1  0.80273908  0.76430781  0.04103202  1.0
  C  C132  1  0.27534004  0.24047241  0.56476066  1.0
  C  C133  1  0.27535593  0.25952583  0.93523859  1.0
  C  C134  1  0.72464992  0.75952699  0.43524204  1.0
  C  C135  1  0.72464833  0.74047540  0.06476144  1.0
  C  C136  1  0.28336753  0.26473564  0.61220308  1.0
  C  C137  1  0.28338305  0.23526112  0.88779494  1.0
  C  C138  1  0.71662112  0.73526303  0.38779932  1.0
  C  C139  1  0.71661991  0.76473828  0.11220436  1.0
  C  C140  1  0.21366369  0.31123954  0.63636422  1.0
  C  C141  1  0.21367691  0.18875775  0.86363386  1.0
  C  C142  1  0.78632887  0.68876058  0.36363815  1.0
  C  C143  1  0.78632994  0.81124129  0.13636622  1.0
  C  C144  1  0.13689696  0.33358997  0.61107292  1.0
  C  C145  1  0.13691079  0.16640640  0.88892559  1.0
  C  C146  1  0.86309559  0.66640943  0.38892947  1.0
  C  C147  1  0.86309477  0.83359299  0.11107464  1.0
  C  C148  1  0.12746939  0.31112855  0.56357870  1.0
  C  C149  1  0.12748491  0.18886821  0.93641968  1.0
  C  C150  1  0.87252317  0.68887011  0.43642340  1.0
  C  C151  1  0.87252454  0.81113265  0.06358052  1.0
  C  C152  1  0.25041236  0.25904507  0.46620524  1.0
  C  C153  1  0.25042240  0.24094109  0.03379023  1.0
  C  C154  1  0.74958669  0.74095506  0.53379620  1.0
  C  C155  1  0.74957796  0.75905648  0.96620958  1.0
  C  C156  1  0.28845494  0.22318823  0.66050265  1.0
  C  C157  1  0.28847310  0.27681034  0.83949794  1.0
  C  C158  1  0.71153242  0.77681153  0.33949896  1.0
  C  C159  1  0.71153505  0.72318870  0.16050152  1.0
  C  C160  1  0.16212654  0.41848935  0.65797962  1.0
  C  C161  1  0.16212391  0.08150844  0.84201415  1.0
  C  C162  1  0.83787771  0.58151225  0.34201871  1.0
  C  C163  1  0.83787904  0.91849133  0.15798283  1.0
  C  C164  1  0.23209701  0.22495045  0.41728045  1.0
  C  C165  1  0.23210462  0.27504490  0.08271626  1.0
  C  C166  1  0.76789945  0.77505077  0.58272205  1.0
  C  C167  1  0.76790093  0.72495450  0.91728273  1.0
  C  C168  1  0.31491210  0.23691305  0.38485161  1.0
  C  C169  1  0.31491469  0.26308211  0.11514608  1.0
  C  C170  1  0.68508696  0.76308634  0.61514986  1.0
  C  C171  1  0.68508827  0.73691766  0.88485337  1.0
  C  C172  1  0.30501137  0.20446331  0.33903167  1.0
  C  C173  1  0.30501689  0.29553407  0.16096569  1.0
  C  C174  1  0.69498638  0.79553609  0.66096948  1.0
  C  C175  1  0.69498087  0.70446423  0.83903379  1.0
  C  C176  1  0.13083116  0.15132980  0.35537632  1.0
  C  C177  1  0.13083399  0.34866726  0.14462007  1.0
  C  C178  1  0.86916529  0.84866996  0.64462498  1.0
  C  C179  1  0.86916247  0.65133214  0.85537862  1.0
  C  C180  1  0.13861164  0.18104180  0.40202677  1.0
  C  C181  1  0.13861934  0.31895377  0.09796994  1.0
  C  C182  1  0.86138221  0.81895796  0.59797484  1.0
  C  C183  1  0.86138622  0.68104526  0.90202891  1.0
  C  C184  1  0.40730690  0.20184314  0.68330703  1.0
  C  C185  1  0.40732048  0.29815625  0.81669239  1.0
  C  C186  1  0.59268305  0.79815699  0.31669473  1.0
  C  C187  1  0.59268118  0.70184242  0.18330600  1.0
  C  C188  1  0.33663219  0.19011409  0.71720271  1.0
  C  C189  1  0.33664175  0.30988400  0.78279696  1.0
  C  C190  1  0.66336427  0.80988530  0.28279906  1.0
  C  C191  1  0.66336120  0.69011503  0.21720250  1.0
  C  C192  1  0.44525728  0.17121578  0.73986907  1.0
  C  C193  1  0.44526749  0.32878169  0.76012888  1.0
  C  C194  1  0.55474047  0.82878252  0.26013165  1.0
  C  C195  1  0.55473937  0.67121771  0.23987104  1.0
  C  C196  1  0.68338387  0.17255442  0.69665250  1.0
  C  C197  1  0.68339107  0.32744616  0.80334491  1.0
  C  C198  1  0.31661129  0.82744645  0.30334769  1.0
  C  C199  1  0.31661059  0.67255178  0.19665443  1.0
  C  C200  1  0.58487774  0.19298936  0.67309514  1.0
  C  C201  1  0.58488819  0.30701108  0.82690306  1.0
  C  C202  1  0.41511352  0.80701259  0.32690673  1.0
  C  C203  1  0.41511217  0.69298650  0.17309582  1.0
  C  C204  1  0.06221532  0.46417102  0.68212362  1.0
  C  C205  1  0.06222209  0.03582883  0.81787274  1.0
  C  C206  1  0.93778243  0.53582948  0.31787427  1.0
  C  C207  1  0.93778607  0.96417314  0.18212697  1.0
  C  C208  1  0.15672747  0.50670915  0.70750408  1.0
  C  C209  1  0.15673671  0.99329100  0.79249353  1.0
  C  C210  1  0.84326638  0.49329209  0.29249564  1.0
  C  C211  1  0.84327145  0.00671097  0.20750648  1.0
  C  C212  1  0.06797521  0.55003004  0.73150717  1.0
  C  C213  1  0.06798470  0.94997031  0.76849104  1.0
  C  C214  1  0.93201865  0.44997156  0.26849146  1.0
  C  C215  1  0.93202476  0.05003093  0.23150838  1.0
  C  C216  1  0.80184752  0.51269766  0.70535533  1.0
  C  C217  1  0.80185545  0.98730352  0.79464433  1.0
  C  C218  1  0.19814894  0.48730174  0.29464304  1.0
  C  C219  1  0.19815141  0.01269845  0.20535568  1.0
  C  C220  1  0.88039764  0.46748517  0.68129359  1.0
  C  C221  1  0.88040702  0.03251567  0.81870595  1.0
  C  C222  1  0.11959622  0.53251423  0.31870509  1.0
  C  C223  1  0.11959854  0.96748630  0.18129437  1.0
  C  C224  1  0.77677543  0.27110098  0.11576975  1.0
  C  C225  1  0.77678207  0.22889638  0.38422684  1.0
  C  C226  1  0.22322883  0.72889842  0.88422924  1.0
  C  C227  1  0.22321958  0.77110375  0.61577244  1.0
  C  C228  1  0.70439235  0.31728210  0.13973524  1.0
  C  C229  1  0.70439929  0.18271471  0.36026191  1.0
  C  C230  1  0.29560280  0.68271621  0.86026424  1.0
  C  C231  1  0.29560236  0.81728470  0.63973770  1.0
  C  C232  1  0.62995778  0.33965919  0.11417467  1.0
  C  C233  1  0.62996011  0.16033889  0.38582347  1.0
  C  C234  1  0.37005038  0.66034094  0.88582585  1.0
  C  C235  1  0.37004544  0.83966088  0.61417691  1.0
  C  C236  1  0.62551948  0.31760251  0.06661100  1.0
  C  C237  1  0.62553392  0.18239521  0.43338763  1.0
  C  C238  1  0.37448347  0.68239872  0.93338934  1.0
  C  C239  1  0.37447294  0.81760529  0.56661242  1.0
  C  C240  1  0.69775823  0.27103594  0.04422042  1.0
  C  C241  1  0.69776983  0.22896087  0.45577737  1.0
  C  C242  1  0.30224992  0.72896602  0.95577959  1.0
  C  C243  1  0.30223573  0.77103816  0.54422240  1.0
  C  C244  1  0.77352661  0.24720110  0.06826390  1.0
  C  C245  1  0.77353364  0.25279554  0.43173241  1.0
  C  C246  1  0.22647634  0.75279940  0.93173491  1.0
  C  C247  1  0.22646802  0.74720386  0.56826720  1.0
  C  C248  1  0.77680988  0.22838277  0.16303112  1.0
  C  C249  1  0.77680352  0.27161460  0.33696548  1.0
  C  C250  1  0.22319568  0.77161919  0.83696890  1.0
  C  C251  1  0.22319814  0.72838298  0.66303185  1.0
  C  C252  1  0.64903588  0.42450860  0.16188573  1.0
  C  C253  1  0.64903090  0.07548906  0.33811437  1.0
  C  C254  1  0.35096187  0.57549042  0.83811961  1.0
  C  C255  1  0.35096686  0.92451107  0.66188646  1.0
  C  C256  1  0.75123357  0.26643758  0.96942526  1.0
  C  C257  1  0.75124644  0.23355185  0.53057063  1.0
  C  C258  1  0.24876679  0.73356512  0.03057443  1.0
  C  C259  1  0.24875262  0.76644462  0.46942843  1.0
  C  C260  1  0.89237035  0.20521020  0.18488193  1.0
  C  C261  1  0.89236454  0.29478653  0.31511415  1.0
  C  C262  1  0.10762870  0.79478957  0.81511690  1.0
  C  C263  1  0.10762802  0.70521105  0.68488288  1.0
  C  C264  1  0.81584589  0.18885721  0.21506300  1.0
  C  C265  1  0.81584105  0.31114043  0.28493393  1.0
  C  C266  1  0.18415447  0.81114402  0.78493703  1.0
  C  C267  1  0.18415151  0.68885715  0.71506310  1.0
  C  C268  1  0.92023314  0.16715301  0.23609914  1.0
  C  C269  1  0.92021973  0.33284695  0.26389847  1.0
  C  C270  1  0.07977242  0.83284786  0.76390012  1.0
  C  C271  1  0.07977022  0.66715063  0.73609793  1.0
  C  C272  1  0.16617768  0.17506098  0.19859571  1.0
  C  C273  1  0.16616549  0.32493893  0.30140019  1.0
  C  C274  1  0.83382658  0.82494062  0.80140323  1.0
  C  C275  1  0.83382316  0.67506048  0.69859633  1.0
  C  C276  1  0.07187559  0.19835079  0.17685240  1.0
  C  C277  1  0.07186807  0.30164788  0.32314353  1.0
  C  C278  1  0.92812476  0.80165008  0.82314687  1.0
  C  C279  1  0.92812449  0.69835189  0.67685406  1.0
  C  C280  1  0.54597224  0.46957840  0.18606487  1.0
  C  C281  1  0.54597144  0.03042170  0.31393551  1.0
  C  C282  1  0.45403071  0.53042172  0.81393782  1.0
  C  C283  1  0.45403021  0.96957880  0.68606608  1.0
  C  C284  1  0.63753605  0.51245008  0.21216806  1.0
  C  C285  1  0.63753515  0.98755032  0.28783390  1.0
  C  C286  1  0.36246691  0.48755041  0.78783508  1.0
  C  C287  1  0.36246521  0.01245054  0.71216908  1.0
  C  C288  1  0.54583416  0.55523426  0.23616613  1.0
  C  C289  1  0.54583741  0.94476635  0.26383550  1.0
  C  C290  1  0.45416490  0.44476623  0.76383515  1.0
  C  C291  1  0.45416425  0.05523524  0.73616623  1.0
  C  C292  1  0.28239624  0.51670371  0.20881995  1.0
  C  C293  1  0.28239787  0.98329679  0.29118470  1.0
  C  C294  1  0.71760022  0.48329495  0.79118184  1.0
  C  C295  1  0.71760249  0.01670407  0.70881920  1.0
  C  C296  1  0.36403769  0.47199053  0.18464061  1.0
  C  C297  1  0.36403686  0.02800999  0.31536004  1.0
  C  C298  1  0.63596267  0.52800886  0.81536085  1.0
  C  C299  1  0.63596349  0.97199124  0.68464092  1.0
  C  C300  1  0.73764751  0.23181759  0.92049442  1.0
  C  C301  1  0.73764494  0.26817884  0.57950213  1.0
  C  C302  1  0.26235805  0.76818511  0.07950496  1.0
  C  C303  1  0.26234501  0.73181983  0.42049750  1.0
  C  C304  1  0.82166247  0.24373631  0.88818752  1.0
  C  C305  1  0.82166138  0.25626211  0.61181056  1.0
  C  C306  1  0.17834049  0.75626675  0.11181169  1.0
  C  C307  1  0.17833247  0.74373766  0.38818950  1.0
  C  C308  1  0.81632723  0.21074191  0.84245683  1.0
  C  C309  1  0.81632257  0.28925725  0.65754126  1.0
  C  C310  1  0.18367702  0.78926042  0.15754209  1.0
  C  C311  1  0.18367258  0.71074215  0.34245928  1.0
  C  C312  1  0.64447528  0.15705720  0.85858374  1.0
  C  C313  1  0.64446921  0.34294127  0.64141354  1.0
  C  C314  1  0.35552768  0.84294659  0.14141516  1.0
  C  C315  1  0.35552204  0.65705740  0.35858763  1.0
  C  C316  1  0.64723137  0.18740651  0.90513561  1.0
  C  C317  1  0.64723018  0.31259122  0.59486198  1.0
  C  C318  1  0.35277418  0.81259655  0.09486392  1.0
  C  C319  1  0.35276367  0.68740781  0.40513903  1.0
  Br  Br320  1  0.52307347  0.10995770  0.23679879  1.0
  Br  Br321  1  0.52307881  0.39004173  0.26319457  1.0
  Br  Br322  1  0.47692168  0.89004317  0.76319739  1.0
  Br  Br323  1  0.47691635  0.60995805  0.73679715  1.0
  Br  Br324  1  0.04645315  0.11382893  0.74103433  1.0
  Br  Br325  1  0.04644701  0.38616547  0.75895989  1.0
  Br  Br326  1  0.95354330  0.88617010  0.25896668  1.0
  Br  Br327  1  0.95354555  0.61383393  0.24104127  1.0
  N  N328  1  0.61557299  0.16180566  0.72988899  1.0
  N  N329  1  0.61558007  0.33819251  0.77010792  1.0
  N  N330  1  0.38442736  0.83819374  0.27011093  1.0
  N  N331  1  0.38442419  0.66180652  0.22989247  1.0
  N  N332  1  0.89304476  0.55382513  0.73043805  1.0
  N  N333  1  0.89305556  0.94617729  0.76956160  1.0
  N  N334  1  0.10694910  0.44617574  0.26955967  1.0
  N  N335  1  0.10695389  0.05382467  0.23043873  1.0
  N  N336  1  0.21388153  0.16224397  0.32405669  1.0
  N  N337  1  0.21388586  0.33775399  0.17594018  1.0
  N  N338  1  0.78611622  0.83775506  0.67594370  1.0
  N  N339  1  0.78611189  0.66224395  0.82405761  1.0
  N  N340  1  0.09242215  0.15949119  0.22801955  1.0
  N  N341  1  0.09240963  0.34050889  0.27197751  1.0
  N  N342  1  0.90758600  0.84051114  0.77198123  1.0
  N  N343  1  0.90758033  0.65949052  0.72801963  1.0
  N  N344  1  0.37079594  0.55816911  0.23448764  1.0
  N  N345  1  0.37080046  0.94183154  0.26551533  1.0
  N  N346  1  0.62920182  0.44183028  0.76551321  1.0
  N  N347  1  0.62920120  0.05816968  0.73448717  1.0
  N  N348  1  0.72910251  0.16788423  0.82741359  1.0
  N  N349  1  0.72909925  0.33211697  0.67258458  1.0
  N  N350  1  0.27089915  0.83211956  0.17258561  1.0
  N  N351  1  0.27089460  0.66788280  0.32741672  1.0
  O  O352  1  0.18638328  0.23806732  0.49371904  1.0
  O  O353  1  0.18639802  0.26192850  0.00627983  1.0
  O  O354  1  0.81361187  0.76193281  0.50628241  1.0
  O  O355  1  0.81361273  0.73807199  0.99372022  1.0
  O  O356  1  0.37832217  0.24216748  0.63495956  1.0
  O  O357  1  0.37834348  0.25783015  0.86503984  1.0
  O  O358  1  0.62167168  0.75783118  0.36504161  1.0
  O  O359  1  0.62166077  0.74216998  0.13496007  1.0
  O  O360  1  0.05665821  0.37922586  0.63331696  1.0
  O  O361  1  0.05666966  0.12077180  0.86668070  1.0
  O  O362  1  0.94333824  0.62077463  0.36668679  1.0
  O  O363  1  0.94334110  0.87922687  0.13331924  1.0
  O  O364  1  0.31547004  0.29959068  0.48082983  1.0
  O  O365  1  0.31546562  0.20039826  0.01916660  1.0
  O  O366  1  0.68452511  0.70040982  0.51917177  1.0
  O  O367  1  0.68453084  0.79959931  0.98083289  1.0
  O  O368  1  0.13041892  0.22431653  0.66382479  1.0
  O  O369  1  0.13043594  0.27568168  0.83617725  1.0
  O  O370  1  0.86957103  0.77568140  0.33617609  1.0
  O  O371  1  0.86956962  0.72431662  0.16382408  1.0
  O  O372  1  0.32028468  0.41559010  0.65875584  1.0
  O  O373  1  0.32029114  0.08440586  0.84123497  1.0
  O  O374  1  0.67971828  0.58441224  0.34124061  1.0
  O  O375  1  0.67971571  0.91559465  0.15875766  1.0
  O  O376  1  0.86949932  0.24842994  0.13882161  1.0
  O  O377  1  0.86949877  0.25156831  0.36117420  1.0
  O  O378  1  0.13050494  0.75156764  0.86117480  1.0
  O  O379  1  0.13050159  0.74843366  0.63882612  1.0
  O  O380  1  0.54667841  0.38487636  0.13622767  1.0
  O  O381  1  0.54667965  0.11512191  0.36377166  1.0
  O  O382  1  0.45332325  0.61512267  0.86377519  1.0
  O  O383  1  0.45332591  0.88487822  0.63622886  1.0
  O  O384  1  0.69171929  0.24484457  0.99686054  1.0
  O  O385  1  0.69173425  0.25514939  0.50313791  1.0
  O  O386  1  0.30828886  0.75515739  0.00314009  1.0
  O  O387  1  0.30827131  0.74484854  0.49686204  1.0
  O  O388  1  0.61857758  0.22959545  0.16569908  1.0
  O  O389  1  0.61857655  0.27039790  0.33429596  1.0
  O  O390  1  0.38142407  0.77040614  0.83430295  1.0
  O  O391  1  0.38142381  0.72959748  0.66570080  1.0
  O  O392  1  0.80724210  0.42235495  0.16346663  1.0
  O  O393  1  0.80724365  0.07764125  0.33652819  1.0
  O  O394  1  0.19275435  0.57764334  0.83653718  1.0
  O  O395  1  0.19276061  0.92235852  0.66347002  1.0
  O  O396  1  0.80948201  0.30777777  0.98401389  1.0
  O  O397  1  0.80949993  0.19221519  0.51598204  1.0
  O  O398  1  0.19052615  0.69222456  0.01598472  1.0
  O  O399  1  0.19050173  0.80778238  0.48401715  1.0
