# generated using pymatgen
data_Zn4H55C90N19O3
_symmetry_space_group_name_H-M   'P 1'
_cell_length_a   18.85761841
_cell_length_b   19.55437337
_cell_length_c   20.49367294
_cell_angle_alpha   107.96670040
_cell_angle_beta   104.51390885
_cell_angle_gamma   113.61114365
_symmetry_Int_Tables_number   1
_chemical_formula_structural   Zn4H55C90N19O3
_chemical_formula_sum   'Zn4 H55 C90 N19 O3'
_cell_volume   5948.93334467
_cell_formula_units_Z   1
loop_
 _symmetry_equiv_pos_site_id
 _symmetry_equiv_pos_as_xyz
  1  'x, y, z'
loop_
 _atom_site_type_symbol
 _atom_site_label
 _atom_site_symmetry_multiplicity
 _atom_site_fract_x
 _atom_site_fract_y
 _atom_site_fract_z
 _atom_site_occupancy
  Zn  Zn0  1  0.11721673  0.09554711  0.50154422  1.0
  Zn  Zn1  1  0.88795708  0.88548475  0.50127329  1.0
  Zn  Zn2  1  0.00324652  0.88774259  0.40229482  1.0
  Zn  Zn3  1  0.01081108  0.08753699  0.60549988  1.0
  H  H4  1  0.19553900  0.14071591  0.38532849  1.0
  H  H5  1  0.82900870  0.49605503  0.57530621  1.0
  H  H6  1  0.71463786  0.85811560  0.53169320  1.0
  H  H7  1  0.84581409  0.38080836  0.58811362  1.0
  H  H8  1  0.90022676  0.28477208  0.55357889  1.0
  H  H9  1  0.11805759  0.36208084  0.50012663  1.0
  H  H10  1  0.16492349  0.61395391  0.48315083  1.0
  H  H11  1  0.24946085  0.84120147  0.54559251  1.0
  H  H12  1  0.38886310  0.10973695  0.68691103  1.0
  H  H13  1  0.54731499  0.18998968  0.74707050  1.0
  H  H14  1  0.68122627  0.19747177  0.74823339  1.0
  H  H15  1  0.84924642  0.71478086  0.50922473  1.0
  H  H16  1  0.89382791  0.89980434  0.26335219  1.0
  H  H17  1  0.61564439  0.85747906  0.56524653  1.0
  H  H18  1  0.46311479  0.77257862  0.53461288  1.0
  H  H19  1  0.32837083  0.76593717  0.52933280  1.0
  H  H20  1  0.22191526  0.40726187  0.82775916  1.0
  H  H21  1  0.78085381  0.89164110  0.16159189  1.0
  H  H22  1  0.61903572  0.81181147  0.27141483  1.0
  H  H23  1  0.42794184  0.67640714  0.02301824  1.0
  H  H24  1  0.47504538  0.59661244  0.80850975  1.0
  H  H25  1  0.65440079  0.81217559  0.03943251  1.0
  H  H26  1  0.12310549  0.84351143  0.50496607  1.0
  H  H27  1  0.37418372  0.45338059  0.70365784  1.0
  H  H28  1  0.91941860  0.17912026  0.56575189  1.0
  H  H29  1  0.53736745  0.69058328  0.93392315  1.0
  H  H30  1  0.49251326  0.73612532  0.14975041  1.0
  H  H31  1  0.18811451  0.90423732  0.21344714  1.0
  H  H32  1  0.23629893  0.08772783  0.83381054  1.0
  H  H33  1  0.04365349  0.82490288  0.73232251  1.0
  H  H34  1  0.18097002  0.89786415  0.98926098  1.0
  H  H35  1  0.23092535  0.14531388  0.16047576  1.0
  H  H36  1  0.28793389  0.08826027  0.95653041  1.0
  H  H37  1  0.15394049  0.10120295  0.73886584  1.0
  H  H38  1  0.19089571  0.13655447  0.26449360  1.0
  H  H39  1  0.25220865  0.08792231  0.05341089  1.0
  H  H40  1  0.22582289  0.91193305  0.10824360  1.0
  H  H41  1  0.09687718  0.82535796  0.85503124  1.0
  H  H42  1  0.88160327  0.12663729  0.67714193  1.0
  H  H43  1  0.07408543  0.87017293  0.26434929  1.0
  H  H44  1  0.28327475  0.30085282  0.61438935  1.0
  H  H45  1  0.74279739  0.47081474  0.44352892  1.0
  H  H46  1  0.71116873  0.54685938  0.46927678  1.0
  H  H47  1  0.76117607  0.54438565  0.40527556  1.0
  H  H48  1  0.98734454  0.82983361  0.61761266  1.0
  H  H49  1  0.25443160  0.44941758  0.95090699  1.0
  H  H50  1  0.18629514  0.47954286  0.90474090  1.0
  H  H51  1  0.25142640  0.53896971  0.00532442  1.0
  H  H52  1  0.68670984  0.95932098  0.35320642  1.0
  H  H53  1  0.76754270  0.01575054  0.44977565  1.0
  H  H54  1  0.65922284  0.94083080  0.42652040  1.0
  H  H55  1  0.27319373  0.11597892  0.62647985  1.0
  H  H56  1  0.13554286  0.27794836  0.74598734  1.0
  H  H57  1  0.00152522  0.71417359  0.38296637  1.0
  H  H58  1  0.06919745  0.67156824  0.46227851  1.0
  C  C59  1  0.16119302  0.07312763  0.36491396  1.0
  C  C60  1  0.22546583  0.04960419  0.59084569  1.0
  C  C61  1  0.16334607  0.26983055  0.70584355  1.0
  C  C62  1  0.76645404  0.92324587  0.56576565  1.0
  C  C63  1  0.96309063  0.72500492  0.41185200  1.0
  C  C64  1  0.23483363  0.32935354  0.70374821  1.0
  C  C65  1  0.93390457  0.69006398  0.45726459  1.0
  C  C66  1  0.23123340  0.97807903  0.58299907  1.0
  C  C67  1  0.09141079  0.96234191  0.70657604  1.0
  C  C68  1  0.02807418  0.63196561  0.48076616  1.0
  C  C69  1  0.95617294  0.63655132  0.48330293  1.0
  C  C70  1  0.76720484  0.99356344  0.61337026  1.0
  C  C71  1  0.90790442  0.58889986  0.51264661  1.0
  C  C72  1  0.92604480  0.53339289  0.53336242  1.0
  C  C73  1  0.99395878  0.52372475  0.52285125  1.0
  C  C74  1  0.86681874  0.90138452  0.30443045  1.0
  C  C75  1  0.04795280  0.57669612  0.49960059  1.0
  C  C76  1  0.87579696  0.48318425  0.56117916  1.0
  C  C77  1  0.88552170  0.41999208  0.56848218  1.0
  C  C78  1  0.94629173  0.40207878  0.54904267  1.0
  C  C79  1  0.00448651  0.45851726  0.53106808  1.0
  C  C80  1  0.06936116  0.44520720  0.51691958  1.0
  C  C81  1  0.78538049  0.88826576  0.29623437  1.0
  C  C82  1  0.13079851  0.50731733  0.50421757  1.0
  C  C83  1  0.11924935  0.56963578  0.49504138  1.0
  C  C84  1  0.94764759  0.32943546  0.54327941  1.0
  C  C85  1  0.00541387  0.31144042  0.52110653  1.0
  C  C86  1  0.95673115  0.17487358  0.53361481  1.0
  C  C87  1  0.06903401  0.37216418  0.51235178  1.0
  C  C88  1  0.30983017  0.90105195  0.58227167  1.0
  C  C89  1  0.30919750  0.97599724  0.61152310  1.0
  C  C90  1  0.38781058  0.05131375  0.66093590  1.0
  C  C91  1  0.46607465  0.05509444  0.67320945  1.0
  C  C92  1  0.99941749  0.23113967  0.50855804  1.0
  C  C93  1  0.46594580  0.98001779  0.63658710  1.0
  C  C94  1  0.38651415  0.90144774  0.59384699  1.0
  C  C95  1  0.54661435  0.13291452  0.71638718  1.0
  C  C96  1  0.62097598  0.13712189  0.71711199  1.0
  C  C97  1  0.62121767  0.06334209  0.67581062  1.0
  C  C98  1  0.78787647  0.89637859  0.36805689  1.0
  C  C99  1  0.54326888  0.98405930  0.63840195  1.0
  C  C100  1  0.54244793  0.90913954  0.59919312  1.0
  C  C101  1  0.46312988  0.83008273  0.56225511  1.0
  C  C102  1  0.38849932  0.82654011  0.55950478  1.0
  C  C103  1  0.23846017  0.28142560  0.63876100  1.0
  C  C104  1  0.69554705  0.06682742  0.66843055  1.0
  C  C105  1  0.69448339  0.99276733  0.62711521  1.0
  C  C106  1  0.61785889  0.91543510  0.59569074  1.0
  C  C107  1  0.29155074  0.41803101  0.75911538  1.0
  C  C108  1  0.27712174  0.44909276  0.82299932  1.0
  C  C109  1  0.33250478  0.53093149  0.88117864  1.0
  C  C110  1  0.03703483  0.19213030  0.47145414  1.0
  C  C111  1  0.40855236  0.58633885  0.87941325  1.0
  C  C112  1  0.41848456  0.55512527  0.81242803  1.0
  C  C113  1  0.36213574  0.47388618  0.75340849  1.0
  C  C114  1  0.88420621  0.72430497  0.47502705  1.0
  C  C115  1  0.64592019  0.81199114  0.09016304  1.0
  C  C116  1  0.71769219  0.85692820  0.15953798  1.0
  C  C117  1  0.62749908  0.81437846  0.22142150  1.0
  C  C118  1  0.55605561  0.77095409  0.15246102  1.0
  C  C119  1  0.56297521  0.76462617  0.08417680  1.0
  C  C120  1  0.47986510  0.66502670  0.94361502  1.0
  C  C121  1  0.48561922  0.70226672  0.01431776  1.0
  C  C122  1  0.85112923  0.06039453  0.63894395  1.0
  C  C123  1  0.71081195  0.85624785  0.22647514  1.0
  C  C124  1  0.18339398  0.01810240  0.24509888  1.0
  C  C125  1  0.14896167  0.91074851  0.52846415  1.0
  C  C126  1  0.19576342  0.95645525  0.20094406  1.0
  C  C127  1  0.21735170  0.96097680  0.14181241  1.0
  C  C128  1  0.22757974  0.02749020  0.12406154  1.0
  C  C129  1  0.22196184  0.09242709  0.17229765  1.0
  C  C130  1  0.19954569  0.08759715  0.23099373  1.0
  C  C131  1  0.23370723  0.03042095  0.90762224  1.0
  C  C132  1  0.20446017  0.03000549  0.83821668  1.0
  C  C133  1  0.09781401  0.88299338  0.78101121  1.0
  C  C134  1  0.09981917  0.93522122  0.30370448  1.0
  C  C135  1  0.12780677  0.88310576  0.85032285  1.0
  C  C136  1  0.10602374  0.03565024  0.69966033  1.0
  C  C137  1  0.19278912  0.95792090  0.91639578  1.0
  C  C138  1  0.23391354  0.02798313  0.05491923  1.0
  C  C139  1  0.20629617  0.95929590  0.98998471  1.0
  C  C140  1  0.13266689  0.95750993  0.77415643  1.0
  C  C141  1  0.15168334  0.00932751  0.30180167  1.0
  C  C142  1  0.75914981  0.53544053  0.45540662  1.0
  C  C143  1  0.20374203  0.50341745  0.50060048  1.0
  C  C144  1  0.76946793  0.14804085  0.70084272  1.0
  C  C145  1  0.24827421  0.50306003  0.95064497  1.0
  C  C146  1  0.70935039  0.95569832  0.40631958  1.0
  C  C147  1  0.02017591  0.89729754  0.63776889  1.0
  C  C148  1  0.09021087  0.21855363  0.43571952  1.0
  N  N149  1  0.11875092  0.03963977  0.40137136  1.0
  N  N150  1  0.91194283  0.91372973  0.37381688  1.0
  N  N151  1  0.97073230  0.11019484  0.51572802  1.0
  N  N152  1  0.86340620  0.91105396  0.41350005  1.0
  N  N153  1  0.01950417  0.11980740  0.47708722  1.0
  N  N154  1  0.89524568  0.03157928  0.60891383  1.0
  N  N155  1  0.08023109  0.95360726  0.36319507  1.0
  N  N156  1  0.17446418  0.20044637  0.60543790  1.0
  N  N157  1  0.26443046  0.50119573  0.49922049  1.0
  N  N158  1  0.82882045  0.21595056  0.72714944  1.0
  N  N159  1  0.13659162  0.23943566  0.40774978  1.0
  N  N160  1  0.88603278  0.77680374  0.44492679  1.0
  N  N161  1  0.09955625  0.94035916  0.50512328  1.0
  N  N162  1  0.04728617  0.01486400  0.63267352  1.0
  N  N163  1  0.99449378  0.93006213  0.59452799  1.0
  N  N164  1  0.14662848  0.02563876  0.54352299  1.0
  N  N165  1  0.12772507  0.19350266  0.64738661  1.0
  N  N166  1  0.93524255  0.77722890  0.40512906  1.0
  N  N167  1  0.84250906  0.94624466  0.56349708  1.0
  O  O168  1  0.84008064  0.59552447  0.52105395  1.0
  O  O169  1  0.31829422  0.56039430  0.94347312  1.0
  O  O170  1  0.72647827  0.88811122  0.39374867  1.0
