# generated using pymatgen
data_ZnH23C23NO7
_symmetry_space_group_name_H-M   'P 1'
_cell_length_a   10.81387623
_cell_length_b   13.91326260
_cell_length_c   15.28050455
_cell_angle_alpha   90.03070433
_cell_angle_beta   90.07109936
_cell_angle_gamma   90.79624019
_symmetry_Int_Tables_number   1
_chemical_formula_structural   ZnH23C23NO7
_chemical_formula_sum   'Zn2 H46 C46 N2 O14'
_cell_volume   2298.82405010
_cell_formula_units_Z   2
loop_
 _symmetry_equiv_pos_site_id
 _symmetry_equiv_pos_as_xyz
  1  'x, y, z'
loop_
 _atom_site_type_symbol
 _atom_site_label
 _atom_site_symmetry_multiplicity
 _atom_site_fract_x
 _atom_site_fract_y
 _atom_site_fract_z
 _atom_site_occupancy
  Zn  Zn0  1  0.50562442  0.40150739  0.49420192  1.0
  Zn  Zn1  1  0.50195534  0.59988781  0.49599328  1.0
  H  H2  1  0.40246657  0.34918983  0.93256688  1.0
  H  H3  1  0.37439984  0.63705838  0.05980117  1.0
  H  H4  1  0.53959611  0.35732824  0.05050278  1.0
  H  H5  1  0.50408260  0.64946146  0.93844665  1.0
  H  H6  1  0.42001389  0.35054024  0.76939228  1.0
  H  H7  1  0.39909024  0.63837807  0.22256690  1.0
  H  H8  1  0.55779140  0.35839846  0.21364002  1.0
  H  H9  1  0.51797838  0.64964507  0.77516209  1.0
  H  H10  1  0.69773793  0.93452655  0.53193910  1.0
  H  H11  1  0.30977640  0.06813202  0.53114746  1.0
  H  H12  1  0.30956946  0.92934238  0.46164441  1.0
  H  H13  1  0.69713254  0.07128648  0.45931812  1.0
  H  H14  1  0.69160096  0.75447669  0.52643044  1.0
  H  H15  1  0.31663051  0.24806970  0.52349436  1.0
  H  H16  1  0.31848304  0.74932914  0.46628061  1.0
  H  H17  1  0.68904541  0.25136732  0.46181550  1.0
  H  H18  1  0.95536883  0.57547204  0.72878936  1.0
  H  H19  1  0.98546975  0.69064376  0.68262700  1.0
  H  H20  1  0.18115861  0.70520551  0.77308807  1.0
  H  H21  1  0.04866463  0.68760608  0.84114823  1.0
  H  H22  1  0.15026420  0.59053822  0.81964175  1.0
  H  H23  1  0.02527496  0.31139575  0.32586395  1.0
  H  H24  1  0.04865423  0.42611613  0.27727378  1.0
  H  H25  1  0.85083944  0.40399227  0.19041047  1.0
  H  H26  1  0.95702650  0.31028641  0.16781764  1.0
  H  H27  1  0.82814900  0.28893652  0.23842996  1.0
  H  H28  1  0.04534224  0.42952011  0.74049769  1.0
  H  H29  1  0.04562110  0.32149246  0.67844548  1.0
  H  H30  1  0.84975973  0.26624312  0.75341544  1.0
  H  H31  1  0.96670842  0.29315517  0.83266012  1.0
  H  H32  1  0.84514907  0.37578175  0.81304399  1.0
  H  H33  1  0.96224147  0.67952213  0.33014979  1.0
  H  H34  1  0.95986464  0.57028031  0.26999848  1.0
  H  H35  1  0.15685456  0.62100915  0.19266085  1.0
  H  H36  1  0.03639467  0.70503735  0.17499084  1.0
  H  H37  1  0.15732653  0.73143984  0.25121698  1.0
  H  H38  1  0.92185724  0.24945199  0.44422221  1.0
  H  H39  1  0.91484439  0.25610575  0.56027739  1.0
  H  H40  1  0.08288874  0.13299594  0.57181069  1.0
  H  H41  1  0.95604853  0.08691843  0.50959625  1.0
  H  H42  1  0.09248546  0.12801015  0.45517535  1.0
  H  H43  1  0.08135353  0.75180758  0.44146557  1.0
  H  H44  1  0.09578738  0.74365420  0.55711597  1.0
  H  H45  1  0.92708370  0.86561374  0.57494829  1.0
  H  H46  1  0.05053968  0.91342050  0.51061342  1.0
  H  H47  1  0.91168550  0.87276579  0.45875518  1.0
  C  C48  1  0.48814533  0.49935099  0.66574203  1.0
  C  C49  1  0.49714736  0.50096794  0.32467767  1.0
  C  C50  1  0.61176448  0.89694988  0.51544395  1.0
  C  C51  1  0.39574874  0.10520703  0.51394456  1.0
  C  C52  1  0.39582154  0.89414652  0.47838524  1.0
  C  C53  1  0.61125898  0.10698267  0.47598390  1.0
  C  C54  1  0.60914088  0.79705235  0.51422623  1.0
  C  C55  1  0.39872090  0.20505844  0.51148084  1.0
  C  C56  1  0.39979884  0.79444605  0.47952245  1.0
  C  C57  1  0.60766998  0.20670420  0.47590272  1.0
  C  C58  1  0.50368344  0.94783097  0.49678005  1.0
  C  C59  1  0.50356865  0.05383233  0.49580355  1.0
  C  C60  1  0.74199196  0.50468008  0.50174696  1.0
  C  C61  1  0.26499153  0.49597562  0.49687172  1.0
  C  C62  1  0.95818924  0.45563351  0.57758621  1.0
  C  C63  1  0.04852358  0.54453674  0.43039095  1.0
  C  C64  1  0.03771812  0.40416129  0.50377700  1.0
  C  C65  1  0.96965669  0.59591594  0.50437625  1.0
  C  C66  1  0.05204912  0.54454200  0.57678014  1.0
  C  C67  1  0.95588038  0.45534244  0.43118714  1.0
  C  C68  1  0.12769225  0.49321437  0.50303545  1.0
  C  C69  1  0.87957744  0.50683644  0.50529044  1.0
  C  C70  1  0.42910430  0.41507630  0.89833074  1.0
  C  C71  1  0.41650504  0.57633360  0.09313571  1.0
  C  C72  1  0.50624803  0.41834589  0.08816800  1.0
  C  C73  1  0.48325429  0.58409280  0.90148900  1.0
  C  C74  1  0.43794841  0.41547065  0.80752512  1.0
  C  C75  1  0.42922686  0.57734011  0.18372859  1.0
  C  C76  1  0.51797271  0.41893342  0.17882634  1.0
  C  C77  1  0.49226675  0.58453577  0.81073005  1.0
  C  C78  1  0.47168807  0.49984802  0.76301307  1.0
  C  C79  1  0.48108860  0.49900638  0.22732825  1.0
  C  C80  1  0.45389626  0.49898204  0.94707697  1.0
  C  C81  1  0.45660798  0.49744742  0.04356073  1.0
  C  C82  1  0.02974212  0.62716591  0.71177504  1.0
  C  C83  1  0.10697366  0.65423757  0.79104975  1.0
  C  C84  1  0.97716847  0.37286387  0.29627100  1.0
  C  C85  1  0.89873155  0.34218999  0.21869234  1.0
  C  C86  1  0.98516171  0.37283785  0.71222896  1.0
  C  C87  1  0.90712528  0.32406608  0.78194075  1.0
  C  C88  1  0.02131278  0.62717971  0.29641538  1.0
  C  C89  1  0.09752197  0.67391264  0.22466411  1.0
  C  C90  1  0.97663485  0.24115503  0.50469457  1.0
  C  C91  1  0.03050401  0.14148612  0.51067751  1.0
  C  C92  1  0.03041928  0.75911751  0.50362463  1.0
  C  C93  1  0.97652119  0.85854258  0.51251803  1.0
  N  N94  1  0.50456239  0.74708718  0.49684839  1.0
  N  N95  1  0.50334557  0.25448362  0.49328704  1.0
  O  O96  1  0.47049978  0.41947629  0.62646854  1.0
  O  O97  1  0.47759587  0.58062738  0.36306374  1.0
  O  O98  1  0.52901736  0.42298143  0.36152224  1.0
  O  O99  1  0.51928852  0.57860061  0.62971550  1.0
  O  O100  1  0.69103199  0.42289351  0.51420906  1.0
  O  O101  1  0.31532751  0.57772796  0.51082426  1.0
  O  O102  1  0.31886872  0.41862118  0.47666921  1.0
  O  O103  1  0.68827341  0.58306559  0.48466531  1.0
  O  O104  1  0.11182136  0.58468305  0.64834588  1.0
  O  O105  1  0.89508464  0.41463801  0.36027379  1.0
  O  O106  1  0.90095680  0.41471117  0.64973489  1.0
  O  O107  1  0.10652943  0.58580152  0.35866080  1.0
  O  O108  1  0.07814875  0.30969739  0.50419362  1.0
  O  O109  1  0.92921291  0.69036057  0.50544712  1.0
