# generated using pymatgen
data_ZnH10C26N2(O3F2)2
_symmetry_space_group_name_H-M   'P 1'
_cell_length_a   13.97900785
_cell_length_b   15.34382729
_cell_length_c   23.71810083
_cell_angle_alpha   89.82360467
_cell_angle_beta   89.94324226
_cell_angle_gamma   89.79486027
_symmetry_Int_Tables_number   1
_chemical_formula_structural   ZnH10C26N2(O3F2)2
_chemical_formula_sum   'Zn2 H20 C52 N4 O12 F8'
_cell_volume   5087.27144299
_cell_formula_units_Z   2
loop_
 _symmetry_equiv_pos_site_id
 _symmetry_equiv_pos_as_xyz
  1  'x, y, z'
loop_
 _atom_site_type_symbol
 _atom_site_label
 _atom_site_symmetry_multiplicity
 _atom_site_fract_x
 _atom_site_fract_y
 _atom_site_fract_z
 _atom_site_occupancy
  Zn  Zn0  1  0.59878489  0.49977205  0.49994795  1.0
  Zn  Zn1  1  0.40150258  0.50034613  0.49999822  1.0
  H  H2  1  0.42581242  0.70870916  0.94635607  1.0
  H  H3  1  0.57413038  0.29093561  0.05366061  1.0
  H  H4  1  0.24834238  0.53388003  0.41491103  1.0
  H  H5  1  0.75273835  0.37015513  0.52610613  1.0
  H  H6  1  0.24843053  0.46661283  0.58512683  1.0
  H  H7  1  0.75168872  0.62961491  0.47391595  1.0
  H  H8  1  0.42591462  0.70865705  0.05303232  1.0
  H  H9  1  0.57396665  0.29098056  0.94701855  1.0
  H  H10  1  0.34551893  0.49737091  0.21347378  1.0
  H  H11  1  0.34526041  0.49963797  0.78659664  1.0
  H  H12  1  0.34199618  0.49891740  0.31917396  1.0
  H  H13  1  0.34200049  0.49788711  0.68091773  1.0
  H  H14  1  0.64872116  0.50100562  0.32296916  1.0
  H  H15  1  0.64873654  0.50148509  0.67693650  1.0
  H  H16  1  0.65302556  0.50232351  0.21700692  1.0
  H  H17  1  0.65278734  0.50028356  0.78287244  1.0
  H  H18  1  0.63861992  0.78063441  0.45461161  1.0
  H  H19  1  0.36835678  0.22565305  0.45710356  1.0
  H  H20  1  0.63847930  0.21853036  0.54524177  1.0
  H  H21  1  0.36828955  0.77536058  0.54292968  1.0
  C  C22  1  0.50592404  0.66990981  0.49940949  1.0
  C  C23  1  0.50595665  0.33018711  0.50046690  1.0
  C  C24  1  0.41156475  0.49854061  0.23781171  1.0
  C  C25  1  0.41136579  0.49926480  0.76221651  1.0
  C  C26  1  0.40971036  0.49939155  0.29645250  1.0
  C  C27  1  0.40969093  0.49861662  0.70356990  1.0
  C  C28  1  0.49533414  0.50023076  0.32708827  1.0
  C  C29  1  0.49536685  0.49947534  0.67286673  1.0
  C  C30  1  0.58296787  0.50071263  0.29839721  1.0
  C  C31  1  0.58292460  0.50057199  0.70152849  1.0
  C  C32  1  0.58527679  0.50122633  0.23974033  1.0
  C  C33  1  0.58506539  0.50034149  0.76018164  1.0
  C  C34  1  0.49940441  0.49987907  0.20988887  1.0
  C  C35  1  0.49914539  0.49987956  0.79010032  1.0
  C  C36  1  0.57477157  0.90447849  0.47480277  1.0
  C  C37  1  0.42671686  0.09873367  0.47652123  1.0
  C  C38  1  0.57470001  0.09513036  0.52527835  1.0
  C  C39  1  0.42662742  0.90190740  0.52363922  1.0
  C  C40  1  0.57883295  0.81428448  0.47439044  1.0
  C  C41  1  0.42658588  0.18903260  0.47640986  1.0
  C  C42  1  0.57871092  0.18529289  0.52556635  1.0
  C  C43  1  0.42656391  0.81160778  0.52364019  1.0
  C  C44  1  0.50385196  0.76759920  0.49911216  1.0
  C  C45  1  0.50383802  0.23251948  0.50086544  1.0
  C  C46  1  0.49987952  0.95201481  0.49956052  1.0
  C  C47  1  0.49989209  0.04808033  0.50055533  1.0
  C  C48  1  0.49386181  0.50071793  0.39020980  1.0
  C  C49  1  0.49397658  0.49922369  0.60974798  1.0
  C  C50  1  0.10653488  0.51931605  0.45174922  1.0
  C  C51  1  0.89419345  0.42648245  0.51540360  1.0
  C  C52  1  0.10657046  0.48056741  0.54829386  1.0
  C  C53  1  0.89354548  0.57320789  0.48467721  1.0
  C  C54  1  0.20584850  0.51932211  0.45234867  1.0
  C  C55  1  0.79485085  0.42734731  0.51498933  1.0
  C  C56  1  0.20589487  0.48103414  0.54769381  1.0
  C  C57  1  0.79421413  0.57236583  0.48501198  1.0
  C  C58  1  0.05288216  0.49990717  0.50002645  1.0
  C  C59  1  0.94754106  0.49987549  0.50003592  1.0
  C  C60  1  0.52806371  0.42203852  0.87827608  1.0
  C  C61  1  0.47326528  0.57809215  0.12170771  1.0
  C  C62  1  0.47304169  0.57819934  0.87805358  1.0
  C  C63  1  0.52843101  0.42193608  0.12201364  1.0
  C  C64  1  0.47342653  0.57661960  0.94059116  1.0
  C  C65  1  0.52802836  0.42347481  0.05947146  1.0
  C  C66  1  0.50076722  0.50009686  0.96997940  1.0
  C  C67  1  0.50084212  0.50004427  0.03006078  1.0
  C  C68  1  0.52786751  0.42355483  0.94081026  1.0
  C  C69  1  0.47356738  0.57654953  0.05919966  1.0
  C  C70  1  0.44667729  0.65083454  0.97018598  1.0
  C  C71  1  0.55397970  0.34904164  0.02985052  1.0
  C  C72  1  0.44674642  0.65079080  0.02938996  1.0
  C  C73  1  0.55390699  0.34908997  0.97064021  1.0
  N  N74  1  0.50062249  0.50015586  0.85098865  1.0
  N  N75  1  0.50090451  0.50004417  0.14901019  1.0
  N  N76  1  0.25319357  0.50029697  0.50003130  1.0
  N  N77  1  0.74713321  0.49981446  0.49997895  1.0
  O  O78  1  0.58525259  0.63298918  0.48747382  1.0
  O  O79  1  0.42829960  0.36928903  0.48820760  1.0
  O  O80  1  0.58525362  0.36664047  0.51231405  1.0
  O  O81  1  0.42827638  0.63124501  0.51167705  1.0
  O  O82  1  0.57230713  0.48416225  0.41539561  1.0
  O  O83  1  0.41441880  0.48264949  0.58570951  1.0
  O  O84  1  0.57238144  0.51558742  0.58450853  1.0
  O  O85  1  0.41424545  0.51774152  0.41429483  1.0
  O  O86  1  0.55023803  0.35713580  0.85097438  1.0
  O  O87  1  0.45065054  0.64287118  0.14899109  1.0
  O  O88  1  0.45037314  0.64297873  0.85055890  1.0
  O  O89  1  0.55079917  0.35710495  0.14954977  1.0
  F  F90  1  0.64629000  0.94975634  0.44920767  1.0
  F  F91  1  0.35311560  0.05658789  0.45103374  1.0
  F  F92  1  0.64612409  0.04943409  0.55091709  1.0
  F  F93  1  0.35303953  0.94456377  0.54921503  1.0
  F  F94  1  0.06047716  0.53670419  0.40294950  1.0
  F  F95  1  0.94046022  0.35241128  0.52990020  1.0
  F  F96  1  0.06055639  0.46281542  0.59706097  1.0
  F  F97  1  0.93929548  0.64726711  0.47015497  1.0
