# generated using pymatgen
data_Zn4H39C39N9O16
_symmetry_space_group_name_H-M   'P 1'
_cell_length_a   18.55106574
_cell_length_b   19.18044861
_cell_length_c   19.94465719
_cell_angle_alpha   62.79355405
_cell_angle_beta   64.66824272
_cell_angle_gamma   61.29966679
_symmetry_Int_Tables_number   1
_chemical_formula_structural   Zn4H39C39N9O16
_chemical_formula_sum   'Zn8 H78 C78 N18 O32'
_cell_volume   5335.10641422
_cell_formula_units_Z   2
loop_
 _symmetry_equiv_pos_site_id
 _symmetry_equiv_pos_as_xyz
  1  'x, y, z'
loop_
 _atom_site_type_symbol
 _atom_site_label
 _atom_site_symmetry_multiplicity
 _atom_site_fract_x
 _atom_site_fract_y
 _atom_site_fract_z
 _atom_site_occupancy
  Zn  Zn0  1  0.08837147  0.90288804  0.00391008  1.0
  Zn  Zn1  1  0.12228661  0.06103690  0.85576229  1.0
  Zn  Zn2  1  0.06613122  0.06753095  0.03000960  1.0
  Zn  Zn3  1  0.93289096  0.07322198  0.96706707  1.0
  Zn  Zn4  1  0.50971324  0.63692512  0.41730057  1.0
  Zn  Zn5  1  0.54261144  0.49693226  0.58263352  1.0
  Zn  Zn6  1  0.67094677  0.47065970  0.41889829  1.0
  Zn  Zn7  1  0.48464857  0.46335422  0.47294286  1.0
  H  H8  1  0.31374119  0.76372191  0.84971393  1.0
  H  H9  1  0.33979659  0.85219695  0.77420501  1.0
  H  H10  1  0.18790340  0.88116548  0.75213205  1.0
  H  H11  1  0.23161700  0.76962282  0.78284922  1.0
  H  H12  1  0.40093649  0.87839924  0.53876929  1.0
  H  H13  1  0.24050050  0.10480979  0.39050591  1.0
  H  H14  1  0.10453939  0.22780166  0.40572072  1.0
  H  H15  1  0.09966668  0.18037515  0.63186710  1.0
  H  H16  1  0.22929968  0.05312103  0.62876274  1.0
  H  H17  1  0.43746459  0.77100882  0.62158630  1.0
  H  H18  1  0.39288240  0.70667868  0.71101850  1.0
  H  H19  1  0.32000668  0.78340083  0.57002384  1.0
  H  H20  1  0.30695322  0.69653347  0.65500940  1.0
  H  H21  1  0.14528198  0.78775402  0.23528478  1.0
  H  H22  1  0.13075506  0.88291554  0.24396539  1.0
  H  H23  1  0.28357172  0.86409818  0.13206339  1.0
  H  H24  1  0.29410103  0.75671489  0.17893142  1.0
  H  H25  1  0.29129437  0.87952870  0.34191810  1.0
  H  H26  1  0.38750355  0.09449160  0.18896602  1.0
  H  H27  1  0.39872424  0.19270537  0.05086240  1.0
  H  H28  1  0.23303878  0.12657553  0.02325989  1.0
  H  H29  1  0.21858666  0.02544010  0.15527719  1.0
  H  H30  1  0.28228231  0.77065016  0.37192978  1.0
  H  H31  1  0.19768423  0.77053564  0.35323123  1.0
  H  H32  1  0.34668949  0.66356093  0.27328966  1.0
  H  H33  1  0.27387025  0.63121101  0.36186099  1.0
  H  H34  1  0.88213267  0.80975271  0.05107241  1.0
  H  H35  1  0.79567984  0.90577312  0.06099246  1.0
  H  H36  1  0.84865341  0.86886339  0.18363882  1.0
  H  H37  1  0.89044141  0.76436724  0.18188664  1.0
  H  H38  1  0.59090636  0.85874030  0.26177745  1.0
  H  H39  1  0.47071742  0.08547959  0.33883107  1.0
  H  H40  1  0.50939443  0.20429426  0.31772000  1.0
  H  H41  1  0.71032529  0.15714889  0.12518132  1.0
  H  H42  1  0.68265368  0.03749502  0.13875569  1.0
  H  H43  1  0.67040412  0.76878057  0.21662737  1.0
  H  H44  1  0.78004586  0.71666644  0.17987165  1.0
  H  H45  1  0.71474660  0.72785314  0.34471715  1.0
  H  H46  1  0.80542022  0.64941589  0.30724536  1.0
  H  H47  1  0.37755055  0.35801501  0.76850173  1.0
  H  H48  1  0.43646029  0.27719184  0.72674855  1.0
  H  H49  1  0.29626796  0.38509967  0.65492654  1.0
  H  H50  1  0.25204529  0.37035837  0.75690560  1.0
  H  H51  1  0.31850504  0.12529904  0.71596824  1.0
  H  H52  1  0.30668934  0.17012345  0.47902221  1.0
  H  H53  1  0.31917422  0.27625538  0.34653046  1.0
  H  H54  1  0.43312444  0.37825567  0.39910395  1.0
  H  H55  1  0.41992374  0.28098257  0.53493305  1.0
  H  H56  1  0.33239757  0.13150382  0.80526057  1.0
  H  H57  1  0.35640063  0.19667242  0.82578527  1.0
  H  H58  1  0.17957506  0.27970474  0.84075553  1.0
  H  H59  1  0.22920338  0.21731313  0.91722922  1.0
  H  H60  1  0.84762107  0.30090198  0.56917092  1.0
  H  H61  1  0.76508840  0.26048263  0.62346499  1.0
  H  H62  1  0.72133626  0.36680396  0.70461080  1.0
  H  H63  1  0.83354992  0.33820883  0.67338324  1.0
  H  H64  1  0.78927665  0.12292261  0.88307290  1.0
  H  H65  1  0.56306761  0.21456861  0.07240031  1.0
  H  H66  1  0.41929575  0.32808901  0.08278427  1.0
  H  H67  1  0.43124308  0.37868303  0.85385620  1.0
  H  H68  1  0.57660522  0.27185988  0.83215035  1.0
  H  H69  1  0.84567146  0.10191645  0.78157687  1.0
  H  H70  1  0.85574983  0.15781980  0.68152974  1.0
  H  H71  1  0.95845172  0.21084003  0.68211147  1.0
  H  H72  1  0.99509200  0.10503826  0.69327734  1.0
  H  H73  1  0.61825631  0.29363564  0.33047230  1.0
  H  H74  1  0.71159444  0.25374578  0.36032996  1.0
  H  H75  1  0.74408279  0.38590979  0.23789183  1.0
  H  H76  1  0.68058742  0.37146017  0.20204292  1.0
  H  H77  1  0.94122185  0.15534678  0.18612189  1.0
  H  H78  1  0.15404511  0.20948871  0.17161953  1.0
  H  H79  1  0.17778747  0.30561527  0.20603550  1.0
  H  H80  1  0.93909169  0.35233425  0.36331701  1.0
  H  H81  1  0.90299013  0.26331668  0.33196099  1.0
  H  H82  1  0.82804670  0.15071666  0.20825850  1.0
  H  H83  1  0.72349495  0.22141529  0.20493439  1.0
  H  H84  1  0.84890805  0.29315697  0.07249372  1.0
  H  H85  1  0.76395263  0.27677512  0.07003013  1.0
  C  C86  1  0.22229497  0.88425023  0.85864961  1.0
  C  C87  1  0.28828282  0.82697038  0.81077412  1.0
  C  C88  1  0.24723938  0.82673378  0.75690469  1.0
  C  C89  1  0.30548468  0.83367299  0.67578816  1.0
  C  C90  1  0.32920004  0.99998050  0.49649944  1.0
  C  C91  1  0.24461911  0.06845925  0.50917936  1.0
  C  C92  1  0.20941534  0.11923519  0.44538186  1.0
  C  C93  1  0.13379922  0.18757810  0.45423043  1.0
  C  C94  1  0.13028728  0.16113270  0.57954174  1.0
  C  C95  1  0.20344872  0.08951009  0.57831666  1.0
  C  C96  1  0.37834284  0.75730861  0.65745028  1.0
  C  C97  1  0.35212842  0.72880156  0.61291105  1.0
  C  C98  1  0.42601948  0.66984165  0.56980597  1.0
  C  C99  1  0.13231720  0.89546804  0.13278680  1.0
  C  C100  1  0.16328655  0.84352383  0.20585138  1.0
  C  C101  1  0.26153952  0.81887683  0.18678067  1.0
  C  C102  1  0.28111011  0.82325148  0.25053208  1.0
  C  C103  1  0.29526934  0.99411223  0.26613461  1.0
  C  C104  1  0.30401731  0.05005632  0.18272470  1.0
  C  C105  1  0.35344960  0.09991298  0.15275846  1.0
  C  C106  1  0.35917506  0.15447254  0.07599908  1.0
  C  C107  1  0.26883001  0.11748425  0.05990543  1.0
  C  C108  1  0.26042215  0.05966714  0.13483782  1.0
  C  C109  1  0.26642581  0.76027791  0.33093120  1.0
  C  C110  1  0.31592704  0.66764335  0.33307978  1.0
  C  C111  1  0.38701952  0.62286243  0.37300918  1.0
  C  C112  1  0.91718836  0.90764757  0.03863751  1.0
  C  C113  1  0.85638145  0.86101815  0.07490876  1.0
  C  C114  1  0.84196099  0.82673235  0.16535512  1.0
  C  C115  1  0.75303237  0.82526784  0.20577084  1.0
  C  C116  1  0.55035535  0.98009739  0.25555145  1.0
  C  C117  1  0.57552373  0.04988730  0.24210959  1.0
  C  C118  1  0.52509198  0.09933929  0.29162362  1.0
  C  C119  1  0.54683113  0.16531855  0.27952599  1.0
  C  C120  1  0.65825554  0.13929513  0.17329110  1.0
  C  C121  1  0.64329022  0.07108621  0.18095776  1.0
  C  C122  1  0.73421148  0.75009518  0.22230926  1.0
  C  C123  1  0.73935733  0.69020090  0.30619035  1.0
  C  C124  1  0.68444453  0.63749929  0.34063191  1.0
  C  C125  1  0.43459014  0.39521538  0.64571497  1.0
  C  C126  1  0.38872478  0.34132578  0.71823230  1.0
  C  C127  1  0.30673692  0.34391405  0.71271504  1.0
  C  C128  1  0.31152003  0.25861811  0.72424176  1.0
  C  C129  1  0.35012833  0.15216220  0.59804985  1.0
  C  C130  1  0.36038974  0.21751072  0.51909969  1.0
  C  C131  1  0.33353273  0.21644547  0.46386626  1.0
  C  C132  1  0.34132204  0.27563621  0.38960772  1.0
  C  C133  1  0.40376566  0.33220919  0.41890384  1.0
  C  C134  1  0.39711863  0.27689951  0.49538704  1.0
  C  C135  1  0.31047872  0.19584833  0.80518546  1.0
  C  C136  1  0.22275224  0.21641250  0.86556684  1.0
  C  C137  1  0.17545175  0.15815511  0.89227334  1.0
  C  C138  1  0.72162247  0.38705191  0.56460156  1.0
  C  C139  1  0.78359606  0.31327345  0.60983715  1.0
  C  C140  1  0.78098089  0.31868255  0.68540875  1.0
  C  C141  1  0.78722108  0.23728148  0.75177564  1.0
  C  C142  1  0.66725704  0.16485828  0.94740942  1.0
  C  C143  1  0.58249037  0.23486791  0.95081386  1.0
  C  C144  1  0.53631101  0.25092559  0.02226436  1.0
  C  C145  1  0.45585897  0.31374731  0.02789453  1.0
  C  C146  1  0.46248527  0.34188111  0.90133640  1.0
  C  C147  1  0.54416604  0.28172326  0.88890454  1.0
  C  C148  1  0.85744082  0.15834244  0.73581867  1.0
  C  C149  1  0.94763483  0.15211031  0.72265828  1.0
  C  C150  1  0.97251094  0.12761712  0.79562490  1.0
  C  C151  1  0.63168228  0.37269066  0.37013669  1.0
  C  C152  1  0.66899893  0.31036645  0.32667376  1.0
  C  C153  1  0.72170993  0.34036788  0.24168239  1.0
  C  C154  1  0.79854492  0.26942955  0.21767616  1.0
  C  C155  1  0.01540382  0.17207881  0.22417955  1.0
  C  C156  1  0.02590268  0.22954050  0.24813847  1.0
  C  C157  1  0.10443695  0.24133497  0.21349665  1.0
  C  C158  1  0.11747117  0.29454163  0.23330791  1.0
  C  C159  1  0.98522870  0.32072333  0.31994693  1.0
  C  C160  1  0.96499892  0.27013760  0.30315253  1.0
  C  C161  1  0.79016957  0.21731770  0.18535898  1.0
  C  C162  1  0.81873263  0.24672581  0.09415894  1.0
  C  C163  1  0.88457990  0.17692670  0.06026257  1.0
  N  N164  1  0.28777848  0.90782891  0.62536002  1.0
  N  N165  1  0.34152107  0.92162834  0.55262943  1.0
  N  N166  1  0.09408441  0.20942535  0.51984254  1.0
  N  N167  1  0.29659181  0.88974704  0.23110113  1.0
  N  N168  1  0.29995613  0.91334828  0.28357799  1.0
  N  N169  1  0.31781666  0.16411807  0.02919235  1.0
  N  N170  1  0.69724279  0.89290142  0.22195841  1.0
  N  N171  1  0.61350621  0.90315753  0.25146090  1.0
  N  N172  1  0.61253202  0.18567416  0.22171442  1.0
  N  N173  1  0.31989283  0.24724522  0.66191008  1.0
  N  N174  1  0.32907718  0.17174406  0.66420598  1.0
  N  N175  1  0.37587272  0.33328990  0.36631702  1.0
  N  N176  1  0.72818661  0.24220769  0.81639270  1.0
  N  N177  1  0.73188021  0.17103619  0.87942708  1.0
  N  N178  1  0.41840173  0.35912425  0.96890860  1.0
  N  N179  1  0.86800179  0.25786656  0.22836120  1.0
  N  N180  1  0.93913879  0.19211391  0.21213416  1.0
  N  N181  1  0.05940169  0.33420917  0.28562735  1.0
  O  O182  1  0.05388437  0.02608683  0.96324997  1.0
  O  O183  1  0.20614178  0.96272971  0.82282662  1.0
  O  O184  1  0.18673278  0.85008934  0.92924790  1.0
  O  O185  1  0.38735515  0.01048574  0.43659664  1.0
  O  O186  1  0.47074312  0.60080702  0.61016521  1.0
  O  O187  1  0.43689176  0.69500925  0.49615740  1.0
  O  O188  1  0.12491475  0.97250530  0.10633262  1.0
  O  O189  1  0.11723348  0.85877920  0.10336220  1.0
  O  O190  1  0.28421429  0.01696411  0.31939645  1.0
  O  O191  1  0.39807498  0.54658448  0.41516893  1.0
  O  O192  1  0.43036160  0.66503650  0.36042494  1.0
  O  O193  1  0.88272706  0.98610814  0.02927704  1.0
  O  O194  1  0.99702480  0.86536390  0.02366133  1.0
  O  O195  1  0.47543121  0.98810097  0.27179815  1.0
  O  O196  1  0.72152355  0.55840276  0.35768264  1.0
  O  O197  1  0.60419059  0.67808507  0.35018509  1.0
  O  O198  1  0.42561372  0.41032495  0.57992212  1.0
  O  O199  1  0.48065414  0.41898745  0.65718163  1.0
  O  O200  1  0.35822233  0.08114469  0.60587058  1.0
  O  O201  1  0.12787702  0.14636275  0.96219704  1.0
  O  O202  1  0.18544020  0.12696824  0.84293163  1.0
  O  O203  1  0.65750946  0.43735720  0.59930818  1.0
  O  O204  1  0.73778537  0.38956782  0.49475523  1.0
  O  O205  1  0.68022612  0.10058680  0.00431033  1.0
  O  O206  1  0.04589770  0.12601278  0.78531198  1.0
  O  O207  1  0.91929095  0.10882841  0.86172454  1.0
  O  O208  1  0.67773305  0.41281434  0.35605729  1.0
  O  O209  1  0.55852661  0.37828897  0.41918620  1.0
  O  O210  1  0.07524637  0.10826619  0.21149377  1.0
  O  O211  1  0.86878223  0.16750227  0.00932019  1.0
  O  O212  1  0.95199715  0.13317165  0.08463675  1.0
  O  O213  1  0.55098891  0.51702516  0.47434598  1.0
