# generated using pymatgen
data_AlH17C18N2O9
_symmetry_space_group_name_H-M   'P 1'
_cell_length_a   6.63965173
_cell_length_b   20.31004664
_cell_length_c   27.12100830
_cell_angle_alpha   89.72078419
_cell_angle_beta   89.38314211
_cell_angle_gamma   89.46411641
_symmetry_Int_Tables_number   1
_chemical_formula_structural   AlH17C18N2O9
_chemical_formula_sum   'Al4 H68 C72 N8 O36'
_cell_volume   3656.89877683
_cell_formula_units_Z   4
loop_
 _symmetry_equiv_pos_site_id
 _symmetry_equiv_pos_as_xyz
  1  'x, y, z'
loop_
 _atom_site_type_symbol
 _atom_site_label
 _atom_site_symmetry_multiplicity
 _atom_site_fract_x
 _atom_site_fract_y
 _atom_site_fract_z
 _atom_site_occupancy
  Al  Al0  1  0.76680230  0.25314793  0.24864721  1.0
  Al  Al1  1  0.22441961  0.74816024  0.75176584  1.0
  Al  Al2  1  0.26940652  0.24952206  0.24971475  1.0
  Al  Al3  1  0.72391342  0.74992836  0.74957084  1.0
  H  H4  1  0.78674543  0.36532126  0.47929875  1.0
  H  H5  1  0.34385288  0.57927697  0.55503671  1.0
  H  H6  1  0.17846713  0.60236761  0.97409706  1.0
  H  H7  1  0.81188334  0.40181906  0.02872388  1.0
  H  H8  1  0.18236408  0.08778380  0.04690832  1.0
  H  H9  1  0.83045781  0.90399869  0.95091349  1.0
  H  H10  1  0.81364283  0.91329014  0.54663279  1.0
  H  H11  1  0.16430041  0.09581177  0.45106955  1.0
  H  H12  1  0.77618045  0.30362784  0.39925594  1.0
  H  H13  1  0.30383180  0.64289784  0.63185935  1.0
  H  H14  1  0.20333185  0.67435855  0.89876177  1.0
  H  H15  1  0.79306899  0.33010713  0.10389969  1.0
  H  H16  1  0.20630885  0.15214842  0.12382807  1.0
  H  H17  1  0.79352079  0.84415281  0.87202778  1.0
  H  H18  1  0.78773534  0.84998441  0.62469001  1.0
  H  H19  1  0.20133247  0.15410736  0.37088952  1.0
  H  H20  1  0.45219640  0.56311702  0.70134038  1.0
  H  H21  1  0.70397154  0.58244598  0.71971990  1.0
  H  H22  1  0.65289122  0.50508570  0.69105362  1.0
  H  H23  1  0.54644638  0.43520998  0.30267485  1.0
  H  H24  1  0.49024819  0.36155910  0.33584615  1.0
  H  H25  1  0.54174811  0.43669046  0.36863733  1.0
  H  H26  1  0.34102649  0.49033967  0.24149273  1.0
  H  H27  1  0.09272830  0.46024395  0.23250316  1.0
  H  H28  1  0.17688158  0.53217105  0.19905315  1.0
  H  H29  1  0.42117438  0.56150235  0.79474679  1.0
  H  H30  1  0.47800735  0.63311328  0.82959174  1.0
  H  H31  1  0.42532074  0.55598612  0.86052310  1.0
  H  H32  1  0.01212974  0.88490576  0.79657368  1.0
  H  H33  1  0.22766380  0.93724855  0.79995662  1.0
  H  H34  1  0.98641066  0.96696266  0.82110389  1.0
  H  H35  1  0.80377734  0.08258761  0.21162675  1.0
  H  H36  1  0.06211899  0.07093050  0.19321508  1.0
  H  H37  1  0.87816581  0.01088902  0.17697157  1.0
  H  H38  1  0.98523976  0.11741279  0.29376876  1.0
  H  H39  1  0.76694692  0.06605821  0.29763766  1.0
  H  H40  1  0.00667296  0.03432417  0.31706893  1.0
  H  H41  1  0.19087962  0.91668367  0.71336197  1.0
  H  H42  1  0.93243137  0.92919226  0.69669375  1.0
  H  H43  1  0.11717843  0.98942688  0.67973222  1.0
  H  H44  1  0.58262540  0.46533261  0.61743839  1.0
  H  H45  1  0.72674229  0.42331556  0.56988408  1.0
  H  H46  1  0.47159555  0.45013997  0.55894906  1.0
  H  H47  1  0.45743817  0.45511919  0.46962525  1.0
  H  H48  1  0.40891995  0.54096969  0.47930574  1.0
  H  H49  1  0.57734416  0.51468459  0.43063996  1.0
  H  H50  1  0.56000595  0.49140892  0.05727314  1.0
  H  H51  1  0.56381524  0.47749787  0.12286971  1.0
  H  H52  1  0.59393332  0.55916334  0.09827246  1.0
  H  H53  1  0.51075726  0.51068509  0.96935140  1.0
  H  H54  1  0.61874723  0.42966723  0.96680022  1.0
  H  H55  1  0.40102724  0.44993267  0.93038934  1.0
  H  H56  1  0.04102980  0.01550737  0.89537694  1.0
  H  H57  1  0.20315532  0.05868438  0.93733134  1.0
  H  H58  1  0.95594321  0.03375924  0.95692115  1.0
  H  H59  1  0.80180996  0.93622451  0.06644502  1.0
  H  H60  1  0.98004295  0.97649236  0.10616639  1.0
  H  H61  1  0.04609659  0.95831523  0.04326387  1.0
  H  H62  1  0.96227341  0.98670888  0.39471394  1.0
  H  H63  1  0.79583409  0.94326557  0.43673951  1.0
  H  H64  1  0.04065021  0.96833190  0.45648277  1.0
  H  H65  1  0.18957017  0.06439071  0.56711344  1.0
  H  H66  1  0.01097625  0.02303594  0.60742336  1.0
  H  H67  1  0.94690911  0.04159889  0.54468943  1.0
  H  H68  1  0.50642579  0.33180039  0.22733029  1.0
  H  H69  1  0.47637939  0.67068302  0.72733130  1.0
  H  H70  1  0.01726075  0.18056607  0.21705699  1.0
  H  H71  1  0.97934516  0.82000006  0.71859739  1.0
  C  C72  1  0.52558397  0.17340581  0.31663421  1.0
  C  C73  1  0.47082218  0.82750161  0.68118908  1.0
  C  C74  1  0.47251949  0.82556575  0.81873819  1.0
  C  C75  1  0.51940526  0.17441271  0.17953423  1.0
  C  C76  1  0.02005314  0.33380566  0.18390900  1.0
  C  C77  1  0.97125106  0.67204714  0.81868557  1.0
  C  C78  1  0.97762843  0.66661473  0.68481418  1.0
  C  C79  1  0.01823982  0.32229474  0.31961235  1.0
  C  C80  1  0.01217331  0.36185572  0.36595679  1.0
  C  C81  1  0.98969220  0.62082302  0.64205618  1.0
  C  C82  1  0.96258966  0.62539548  0.86133640  1.0
  C  C83  1  0.03306224  0.37957944  0.14086464  1.0
  C  C84  1  0.52045946  0.13087749  0.13528060  1.0
  C  C85  1  0.47877826  0.86683260  0.86403618  1.0
  C  C86  1  0.47270283  0.87091884  0.63654113  1.0
  C  C87  1  0.51744089  0.13252680  0.36238399  1.0
  C  C88  1  0.14522594  0.41442405  0.37174622  1.0
  C  C89  1  0.82396824  0.58621353  0.62289186  1.0
  C  C90  1  0.81973946  0.57506446  0.86333257  1.0
  C  C91  1  0.17482175  0.43062343  0.13833201  1.0
  C  C92  1  0.69236783  0.09722626  0.11636708  1.0
  C  C93  1  0.30962321  0.89920614  0.88548364  1.0
  C  C94  1  0.30098061  0.90399303  0.61765054  1.0
  C  C95  1  0.68700523  0.10133777  0.38390613  1.0
  C  C96  1  0.14988887  0.45036395  0.41632010  1.0
  C  C97  1  0.84557914  0.55012877  0.57860455  1.0
  C  C98  1  0.80245862  0.53480391  0.90616795  1.0
  C  C99  1  0.18256077  0.47230424  0.09652355  1.0
  C  C100  1  0.67992690  0.06064107  0.07225585  1.0
  C  C101  1  0.33004950  0.93359045  0.93042219  1.0
  C  C102  1  0.31464873  0.94024169  0.57313491  1.0
  C  C103  1  0.66646502  0.06764160  0.42943905  1.0
  C  C104  1  0.01568084  0.43196427  0.45541683  1.0
  C  C105  1  0.03488894  0.54739481  0.55403983  1.0
  C  C106  1  0.93725475  0.54449022  0.94575758  1.0
  C  C107  1  0.04946066  0.46173392  0.05695761  1.0
  C  C108  1  0.49321349  0.05648901  0.04776674  1.0
  C  C109  1  0.51999591  0.93626940  0.95330832  1.0
  C  C110  1  0.50246503  0.94445300  0.54814114  1.0
  C  C111  1  0.47575627  0.06463368  0.45292369  1.0
  C  C112  1  0.88593228  0.37811440  0.44848983  1.0
  C  C113  1  0.19814395  0.58164138  0.57382131  1.0
  C  C114  1  0.08084320  0.59537740  0.94258476  1.0
  C  C115  1  0.91043577  0.40982235  0.05988204  1.0
  C  C116  1  0.32470195  0.09083194  0.06635036  1.0
  C  C117  1  0.68530498  0.90227458  0.93261845  1.0
  C  C118  1  0.67068698  0.91043888  0.56658448  1.0
  C  C119  1  0.30996975  0.09767998  0.43223345  1.0
  C  C120  1  0.87976620  0.34431118  0.40435261  1.0
  C  C121  1  0.17607854  0.61658496  0.61712722  1.0
  C  C122  1  0.09410706  0.63473600  0.90114535  1.0
  C  C123  1  0.90121566  0.37001904  0.10127747  1.0
  C  C124  1  0.33826367  0.12626215  0.10953523  1.0
  C  C125  1  0.66471835  0.86956059  0.88843245  1.0
  C  C126  1  0.65604148  0.87551937  0.61035025  1.0
  C  C127  1  0.33062629  0.12955624  0.38731677  1.0
  C  C128  1  0.61273105  0.55783440  0.69192303  1.0
  C  C129  1  0.47303732  0.41530152  0.33582857  1.0
  C  C130  1  0.22221481  0.48401909  0.21433265  1.0
  C  C131  1  0.49418253  0.57944191  0.82805000  1.0
  C  C132  1  0.08530790  0.92331399  0.81795612  1.0
  C  C133  1  0.90477972  0.06375943  0.18256132  1.0
  C  C134  1  0.91010804  0.07863202  0.31501781  1.0
  C  C135  1  0.08959773  0.93644383  0.68506531  1.0
  C  C136  1  0.61259306  0.46162746  0.57760928  1.0
  C  C137  1  0.43927491  0.50323404  0.45150768  1.0
  C  C138  1  0.51890671  0.51184710  0.09352968  1.0
  C  C139  1  0.54238427  0.46826814  0.94546728  1.0
  C  C140  1  0.08697678  0.02081130  0.93395508  1.0
  C  C141  1  0.92305899  0.97252124  0.06839426  1.0
  C  C142  1  0.91202470  0.98122288  0.43324262  1.0
  C  C143  1  0.06951374  0.02760601  0.56948551  1.0
  N  N144  1  0.98359987  0.46248117  0.50145959  1.0
  N  N145  1  0.07550446  0.51596465  0.50880890  1.0
  N  N146  1  0.92099347  0.50224265  0.98659295  1.0
  N  N147  1  0.06874126  0.50423116  0.01611248  1.0
  N  N148  1  0.46215364  0.02313902  0.00306361  1.0
  N  N149  1  0.55571417  0.96908944  0.99807762  1.0
  N  N150  1  0.53432612  0.97796210  0.50312099  1.0
  N  N151  1  0.43983446  0.03184268  0.49817302  1.0
  O  O152  1  0.34666741  0.19457613  0.19459363  1.0
  O  O153  1  0.64246551  0.80909378  0.79996285  1.0
  O  O154  1  0.64246641  0.81215662  0.69907138  1.0
  O  O155  1  0.35931897  0.18333909  0.29441144  1.0
  O  O156  1  0.85230319  0.31409645  0.29761435  1.0
  O  O157  1  0.14483209  0.68192207  0.70457042  1.0
  O  O158  1  0.14461617  0.69175695  0.80497119  1.0
  O  O159  1  0.84518840  0.31292709  0.19584397  1.0
  O  O160  1  0.69374767  0.19724090  0.30278123  1.0
  O  O161  1  0.30213950  0.80787272  0.69834227  1.0
  O  O162  1  0.30304110  0.80837675  0.80170851  1.0
  O  O163  1  0.68607099  0.18933911  0.19938626  1.0
  O  O164  1  0.18404680  0.31796762  0.20481919  1.0
  O  O165  1  0.80561648  0.69012853  0.79978873  1.0
  O  O166  1  0.80546289  0.68891753  0.69816432  1.0
  O  O167  1  0.18772351  0.29868836  0.30628188  1.0
  O  O168  1  0.51517654  0.29284137  0.24820595  1.0
  O  O169  1  0.47594373  0.70851475  0.74902740  1.0
  O  O170  1  0.01722904  0.21010931  0.24515043  1.0
  O  O171  1  0.97482626  0.79033446  0.74682542  1.0
  O  O172  1  0.63476715  0.58667306  0.64367516  1.0
  O  O173  1  0.26265576  0.43340485  0.33239645  1.0
  O  O174  1  0.30599435  0.44265226  0.17608805  1.0
  O  O175  1  0.70468045  0.56143703  0.82317217  1.0
  O  O176  1  0.11965328  0.89878596  0.86705983  1.0
  O  O177  1  0.87968643  0.09971608  0.13730144  1.0
  O  O178  1  0.87700866  0.10155286  0.36458021  1.0
  O  O179  1  0.11310302  0.90185599  0.63932684  1.0
  O  O180  1  0.67807000  0.52351290  0.55755288  1.0
  O  O181  1  0.27788204  0.50210151  0.41641910  1.0
  O  O182  1  0.30539551  0.52592217  0.09552367  1.0
  O  O183  1  0.66171176  0.48709673  0.90314570  1.0
  O  O184  1  0.16188709  0.95917249  0.95328135  1.0
  O  O185  1  0.85159414  0.03554338  0.05081624  1.0
  O  O186  1  0.83441017  0.04279918  0.45212493  1.0
  O  O187  1  0.14378748  0.96507105  0.55183367  1.0
