# generated using pymatgen
data_ZnH12C12(N2O3)3
_symmetry_space_group_name_H-M   'P 1'
_cell_length_a   7.35565792
_cell_length_b   11.66693949
_cell_length_c   14.93150930
_cell_angle_alpha   112.97816397
_cell_angle_beta   100.72506612
_cell_angle_gamma   90.01738685
_symmetry_Int_Tables_number   1
_chemical_formula_structural   ZnH12C12(N2O3)3
_chemical_formula_sum   'Zn2 H24 C24 N12 O18'
_cell_volume   1155.33516611
_cell_formula_units_Z   2
loop_
 _symmetry_equiv_pos_site_id
 _symmetry_equiv_pos_as_xyz
  1  'x, y, z'
loop_
 _atom_site_type_symbol
 _atom_site_label
 _atom_site_symmetry_multiplicity
 _atom_site_fract_x
 _atom_site_fract_y
 _atom_site_fract_z
 _atom_site_occupancy
  Zn  Zn0  1  0.00000032  0.50000080  0.49999859  1.0
  Zn  Zn1  1  0.49999994  0.00000069  0.50000024  1.0
  H  H2  1  0.02973409  0.54602979  0.71042223  1.0
  H  H3  1  0.52926842  0.16390161  0.71036563  1.0
  H  H4  1  0.97026128  0.45396977  0.28957364  1.0
  H  H5  1  0.47073240  0.83610447  0.28963579  1.0
  H  H6  1  0.10852431  0.71692044  0.88007251  1.0
  H  H7  1  0.60793856  0.16262095  0.88002186  1.0
  H  H8  1  0.89147368  0.28307292  0.11992743  1.0
  H  H9  1  0.39205727  0.83737943  0.11997854  1.0
  H  H10  1  0.15632853  0.97378545  0.73853138  1.0
  H  H11  1  0.65556184  0.76426662  0.73862658  1.0
  H  H12  1  0.84367145  0.02621529  0.26146939  1.0
  H  H13  1  0.34444677  0.23572962  0.26137251  1.0
  H  H14  1  0.07322296  0.79272434  0.57599856  1.0
  H  H15  1  0.57271127  0.78285344  0.57604993  1.0
  H  H16  1  0.92677553  0.20727759  0.42400246  1.0
  H  H17  1  0.42729020  0.21714680  0.42395127  1.0
  H  H18  1  0.31043576  0.41228666  0.58368642  1.0
  H  H19  1  0.81034739  0.17107066  0.58376654  1.0
  H  H20  1  0.68956560  0.58771286  0.41631314  1.0
  H  H21  1  0.18965398  0.82893089  0.41623504  1.0
  H  H22  1  0.13034425  0.33397856  0.58185638  1.0
  H  H23  1  0.63036839  0.24763438  0.58197077  1.0
  H  H24  1  0.86965550  0.66602144  0.41814180  1.0
  H  H25  1  0.36963310  0.75236788  0.41803244  1.0
  C  C26  1  0.05737285  0.64243243  0.72061354  1.0
  C  C27  1  0.55688995  0.07769509  0.72056299  1.0
  C  C28  1  0.94262308  0.35756461  0.27938448  1.0
  C  C29  1  0.44311163  0.92230318  0.27943718  1.0
  C  C30  1  0.10326537  0.73744253  0.81459030  1.0
  C  C31  1  0.60271263  0.07664827  0.81457476  1.0
  C  C32  1  0.89673748  0.26255379  0.18540701  1.0
  C  C33  1  0.39728437  0.92335687  0.18542851  1.0
  C  C34  1  0.14327681  0.85933050  0.82308210  1.0
  C  C35  1  0.64269084  0.96328888  0.82314473  1.0
  C  C36  1  0.85672488  0.14066779  0.17691903  1.0
  C  C37  1  0.35730775  0.03670906  0.17685325  1.0
  C  C38  1  0.12905950  0.88091622  0.73618098  1.0
  C  C39  1  0.62834701  0.85478492  0.73625942  1.0
  C  C40  1  0.87094242  0.11908013  0.26382008  1.0
  C  C41  1  0.37165557  0.14520627  0.26374209  1.0
  C  C42  1  0.08207673  0.77961833  0.64495355  1.0
  C  C43  1  0.58149796  0.86486515  0.64501513  1.0
  C  C44  1  0.91792292  0.22038433  0.35504633  1.0
  C  C45  1  0.41849820  0.13513063  0.35498349  1.0
  C  C46  1  0.20188936  0.95918596  0.92079299  1.0
  C  C47  1  0.70159496  0.96143210  0.92094094  1.0
  C  C48  1  0.79810530  0.04081031  0.07920520  1.0
  C  C49  1  0.29840569  0.03856483  0.07906163  1.0
  N  N50  1  0.04917371  0.66220380  0.63705549  1.0
  N  N51  1  0.54871074  0.97438476  0.63705343  1.0
  N  N52  1  0.95082340  0.33779666  0.36294407  1.0
  N  N53  1  0.45129064  0.02562016  0.36295149  1.0
  N  N54  1  0.21896021  0.08091101  0.94851521  1.0
  N  N55  1  0.71921313  0.86765912  0.94895066  1.0
  N  N56  1  0.78103412  0.91908920  0.05148410  1.0
  N  N57  1  0.28078514  0.13234274  0.05104843  1.0
  N  N58  1  0.34919170  0.53991141  0.41859796  1.0
  N  N59  1  0.84935942  0.87899170  0.41856050  1.0
  N  N60  1  0.65080679  0.46009120  0.58140373  1.0
  N  N61  1  0.15064277  0.12101181  0.58143837  1.0
  O  O62  1  0.25030366  0.92581362  0.00000933  1.0
  O  O63  1  0.74969217  0.07418608  0.99999040  1.0
  O  O64  1  0.17388544  0.41192391  0.57732802  1.0
  O  O65  1  0.67380426  0.16516799  0.57751241  1.0
  O  O66  1  0.82611408  0.58807400  0.42266622  1.0
  O  O67  1  0.32619860  0.83483305  0.42248959  1.0
  O  O68  1  0.21299111  0.58998095  0.45746500  1.0
  O  O69  1  0.71318926  0.86786437  0.45751594  1.0
  O  O70  1  0.78700876  0.41002245  0.54253748  1.0
  O  O71  1  0.28681028  0.13213758  0.54248231  1.0
  O  O72  1  0.37709515  0.42856273  0.39931726  1.0
  O  O73  1  0.87722390  0.97090488  0.39905862  1.0
  O  O74  1  0.62290217  0.57143646  0.60068290  1.0
  O  O75  1  0.12277863  0.02909739  0.60094181  1.0
  O  O76  1  0.45676427  0.61038644  0.39966703  1.0
  O  O77  1  0.95693832  0.78962082  0.39977815  1.0
  O  O78  1  0.54323572  0.38961498  0.60033442  1.0
  O  O79  1  0.04306399  0.21038271  0.60022168  1.0
