# generated using pymatgen
data_Al4H13C39N3O20
_symmetry_space_group_name_H-M   'P 1'
_cell_length_a   6.68633186
_cell_length_b   16.67088012
_cell_length_c   18.60660119
_cell_angle_alpha   74.30958536
_cell_angle_beta   89.70249359
_cell_angle_gamma   89.74956198
_symmetry_Int_Tables_number   1
_chemical_formula_structural   Al4H13C39N3O20
_chemical_formula_sum   'Al4 H13 C39 N3 O20'
_cell_volume   1996.70200188
_cell_formula_units_Z   1
loop_
 _symmetry_equiv_pos_site_id
 _symmetry_equiv_pos_as_xyz
  1  'x, y, z'
loop_
 _atom_site_type_symbol
 _atom_site_label
 _atom_site_symmetry_multiplicity
 _atom_site_fract_x
 _atom_site_fract_y
 _atom_site_fract_z
 _atom_site_occupancy
  Al  Al0  1  0.11196491  0.50264329  0.50269599  1.0
  Al  Al1  1  0.61055888  0.50294649  0.50002245  1.0
  Al  Al2  1  0.62451133  0.00127450  0.99786361  1.0
  Al  Al3  1  0.12623934  0.00315084  0.99889649  1.0
  H  H4  1  0.59176735  0.64289769  0.26808568  1.0
  H  H5  1  0.19174838  0.89259151  0.27162438  1.0
  H  H6  1  0.33901770  0.84806199  0.21134201  1.0
  H  H7  1  0.34582592  0.71116353  0.30682852  1.0
  H  H8  1  0.08744293  0.35403374  0.73027012  1.0
  H  H9  1  0.09886979  0.23579419  0.84551326  1.0
  H  H10  1  0.71898012  0.22734253  0.62297616  1.0
  H  H11  1  0.85080166  0.29373720  0.66727819  1.0
  H  H12  1  0.86225168  0.17916862  0.78613004  1.0
  H  H13  1  0.35878519  0.60971171  0.49675363  1.0
  H  H14  1  0.86372680  0.40322679  0.48971539  1.0
  H  H15  1  0.37314807  0.89149068  0.02712780  1.0
  H  H16  1  0.86986323  0.09871204  0.01703873  1.0
  C  C17  1  0.36266711  0.41143602  0.41890166  1.0
  C  C18  1  0.36207946  0.39325060  0.61669787  1.0
  C  C19  1  0.85724340  0.59215668  0.58322167  1.0
  C  C20  1  0.86366905  0.60906347  0.38282859  1.0
  C  C21  1  0.02571991  0.73215876  0.29264457  1.0
  C  C22  1  0.86968507  0.67546406  0.31067974  1.0
  C  C23  1  0.71453404  0.68741418  0.25825039  1.0
  C  C24  1  0.71594401  0.75426209  0.19299963  1.0
  C  C25  1  0.87186691  0.81463067  0.17803608  1.0
  C  C26  1  0.02462780  0.80082526  0.23021223  1.0
  C  C27  1  0.21575986  0.83699464  0.25175948  1.0
  C  C28  1  0.23016464  0.75338518  0.31815664  1.0
  C  C29  1  0.88539484  0.86480149  0.86385150  1.0
  C  C30  1  0.88062725  0.82050731  0.82096290  1.0
  C  C31  1  0.87396890  0.77296194  0.77336680  1.0
  C  C32  1  0.86669966  0.72978292  0.72904650  1.0
  C  C33  1  0.86044655  0.68352113  0.68034986  1.0
  C  C34  1  0.85548601  0.64143715  0.63554246  1.0
  C  C35  1  0.36051333  0.36006673  0.36798625  1.0
  C  C36  1  0.36149979  0.31666861  0.32424980  1.0
  C  C37  1  0.36374491  0.26946268  0.27626094  1.0
  C  C38  1  0.36688549  0.22625512  0.23191579  1.0
  C  C39  1  0.36988718  0.17953086  0.18353269  1.0
  C  C40  1  0.37246969  0.13692943  0.13912681  1.0
  C  C41  1  0.53288826  0.27079258  0.70394002  1.0
  C  C42  1  0.37110332  0.32564448  0.68749118  1.0
  C  C43  1  0.21482115  0.31147999  0.74050739  1.0
  C  C44  1  0.22074553  0.24509995  0.80498302  1.0
  C  C45  1  0.38253280  0.18850894  0.82034017  1.0
  C  C46  1  0.53773609  0.20462486  0.76833002  1.0
  C  C47  1  0.74043940  0.17308371  0.74851545  1.0
  C  C48  1  0.72989380  0.24799968  0.67404316  1.0
  C  C49  1  0.38355648  0.11684507  0.88823239  1.0
  C  C50  1  0.36932565  0.08812896  0.08597678  1.0
  C  C51  1  0.87018269  0.88768303  0.11079698  1.0
  C  C52  1  0.88487024  0.91707620  0.91374611  1.0
  C  C53  1  0.55525042  0.75971894  0.14147410  1.0
  C  C54  1  0.25680913  0.75668212  0.39454103  1.0
  C  C55  1  0.74626935  0.09008787  0.73782199  1.0
  N  N56  1  0.42067550  0.76201507  0.10111757  1.0
  N  N57  1  0.28217457  0.75560621  0.45677801  1.0
  N  N58  1  0.75047568  0.02428916  0.72719940  1.0
  O  O59  1  0.52977285  0.41658061  0.58531125  1.0
  O  O60  1  0.19344911  0.42992395  0.44190760  1.0
  O  O61  1  0.03279079  0.58595030  0.41225281  1.0
  O  O62  1  0.19012629  0.42028192  0.59227068  1.0
  O  O63  1  0.02853096  0.57212543  0.56311891  1.0
  O  O64  1  0.53396961  0.43317665  0.43627986  1.0
  O  O65  1  0.36080560  0.55316927  0.49135349  1.0
  O  O66  1  0.68857672  0.57264735  0.56114604  1.0
  O  O67  1  0.69159966  0.58467392  0.40876526  1.0
  O  O68  1  0.86201594  0.45245452  0.50807798  1.0
  O  O69  1  0.19777575  0.06331006  0.07188889  1.0
  O  O70  1  0.55215440  0.08257483  0.90829640  1.0
  O  O71  1  0.71588294  0.92923628  0.94105295  1.0
  O  O72  1  0.53695612  0.07550896  0.05802307  1.0
  O  O73  1  0.69971774  0.91853656  0.08905151  1.0
  O  O74  1  0.21696593  0.09633838  0.92149110  1.0
  O  O75  1  0.37480559  0.95205019  0.00810199  1.0
  O  O76  1  0.03966289  0.91135941  0.08196949  1.0
  O  O77  1  0.05264882  0.94564496  0.92738799  1.0
  O  O78  1  0.87404332  0.05263011  0.99443391  1.0
