# generated using pymatgen
data_AlH27(C15O4)3
_symmetry_space_group_name_H-M   'P 1'
_cell_length_a   3.96971592
_cell_length_b   23.55958002
_cell_length_c   23.58969536
_cell_angle_alpha   119.91322282
_cell_angle_beta   90.07985507
_cell_angle_gamma   92.39572542
_symmetry_Int_Tables_number   1
_chemical_formula_structural   AlH27(C15O4)3
_chemical_formula_sum   'Al1 H27 C45 O12'
_cell_volume   1910.01168409
_cell_formula_units_Z   1
loop_
 _symmetry_equiv_pos_site_id
 _symmetry_equiv_pos_as_xyz
  1  'x, y, z'
loop_
 _atom_site_type_symbol
 _atom_site_label
 _atom_site_symmetry_multiplicity
 _atom_site_fract_x
 _atom_site_fract_y
 _atom_site_fract_z
 _atom_site_occupancy
  Al  Al0  1  0.01638958  0.00040514  0.49974869  1.0
  H  H1  1  0.73348613  0.99866443  0.32147286  1.0
  H  H2  1  0.70385133  0.94447071  0.20220221  1.0
  H  H3  1  0.86090830  0.81759004  0.98395838  1.0
  H  H4  1  0.31234901  0.92670830  0.72980535  1.0
  H  H5  1  0.25627145  0.87453699  0.76890404  1.0
  H  H6  1  0.24339049  0.81878892  0.83148434  1.0
  H  H7  1  0.51784802  0.78889465  0.89390988  1.0
  H  H8  1  0.72095979  0.82566000  0.50338709  1.0
  H  H9  1  0.69771903  0.76028891  0.55722533  1.0
  H  H10  1  0.83209322  0.66725580  0.68421874  1.0
  H  H11  1  0.34277389  0.30211326  0.57209553  1.0
  H  H12  1  0.26474165  0.39091006  0.62474485  1.0
  H  H13  1  0.23574679  0.50882580  0.68062355  1.0
  H  H14  1  0.52189025  0.60562800  0.71272542  1.0
  H  H15  1  0.79095920  0.18160599  0.67543363  1.0
  H  H16  1  0.76930673  0.30039365  0.74096978  1.0
  H  H17  1  0.86169015  0.52372364  0.83757405  1.0
  H  H18  1  0.29750083  0.76755604  0.19653500  1.0
  H  H19  1  0.20760181  0.73151525  0.10490186  1.0
  H  H20  1  0.19884570  0.66885671  0.98630038  1.0
  H  H21  1  0.51917414  0.60746705  0.89591241  1.0
  H  H22  1  0.21980641  0.13290459  0.49014761  1.0
  H  H23  1  0.17178523  0.85490654  0.36443102  1.0
  H  H24  1  0.19267755  0.00756854  0.64254846  1.0
  H  H25  1  0.06579051  0.36644498  0.75620763  1.0
  H  H26  1  0.02093493  0.89794195  0.14725502  1.0
  H  H27  1  0.00813378  0.74921317  0.60472849  1.0
  C  C28  1  0.50834924  0.95225957  0.39833413  1.0
  C  C29  1  0.54422426  0.10208964  0.55327107  1.0
  C  C30  1  0.50834263  0.94682720  0.54773202  1.0
  C  C31  1  0.63411963  0.94809214  0.29309637  1.0
  C  C32  1  0.63156300  0.91601211  0.22538403  1.0
  C  C33  1  0.72801130  0.83321685  0.07785187  1.0
  C  C34  1  0.70725466  0.79857175  0.00960475  1.0
  C  C35  1  0.36404326  0.93534467  0.64531226  1.0
  C  C36  1  0.39849276  0.90187574  0.67977684  1.0
  C  C37  1  0.39069072  0.82958219  0.75004786  1.0
  C  C38  1  0.38153793  0.79789136  0.78612840  1.0
  C  C39  1  0.49782595  0.91783571  0.32675855  1.0
  C  C40  1  0.52491546  0.84861168  0.18761501  1.0
  C  C41  1  0.54270075  0.81118392  0.11536978  1.0
  C  C42  1  0.52244645  0.73895021  0.97516065  1.0
  C  C43  1  0.51488361  0.70231120  0.90298616  1.0
  C  C44  1  0.51566240  0.73547567  0.86748383  1.0
  C  C45  1  0.62748832  0.84671042  0.55292307  1.0
  C  C46  1  0.62777538  0.81093744  0.58494797  1.0
  C  C47  1  0.71508440  0.74513567  0.66789267  1.0
  C  C48  1  0.69353338  0.71181759  0.70291312  1.0
  C  C49  1  0.40501659  0.20963278  0.56335999  1.0
  C  C50  1  0.43881110  0.27796566  0.59739479  1.0
  C  C51  1  0.40489302  0.41938558  0.67085479  1.0
  C  C52  1  0.38635566  0.48682822  0.70256880  1.0
  C  C53  1  0.49848609  0.90939922  0.58191482  1.0
  C  C54  1  0.52986359  0.83923475  0.65130606  1.0
  C  C55  1  0.55044695  0.80469379  0.68917087  1.0
  C  C56  1  0.52815484  0.73695205  0.76220471  1.0
  C  C57  1  0.51768912  0.70136951  0.79894314  1.0
  C  C58  1  0.51840902  0.63272207  0.76601605  1.0
  C  C59  1  0.68947061  0.20896074  0.65381067  1.0
  C  C60  1  0.68976688  0.27675701  0.68982328  1.0
  C  C61  1  0.75191230  0.42750453  0.75812101  1.0
  C  C62  1  0.72004485  0.49529884  0.79150592  1.0
  C  C63  1  0.35371750  0.85311113  0.28956934  1.0
  C  C64  1  0.38797351  0.81870909  0.22175691  1.0
  C  C65  1  0.36076441  0.75028812  0.07907950  1.0
  C  C66  1  0.35302187  0.71440564  0.01140723  1.0
  C  C67  1  0.54744431  0.17370782  0.59030838  1.0
  C  C68  1  0.57597941  0.31367066  0.66138628  1.0
  C  C69  1  0.58247893  0.38634112  0.69692970  1.0
  C  C70  1  0.53977775  0.52632631  0.76481596  1.0
  C  C71  1  0.52123026  0.59829931  0.80022968  1.0
  C  C72  1  0.51659990  0.63371659  0.86874612  1.0
  O  O73  1  0.28539060  0.99064430  0.56245894  1.0
  O  O74  1  0.27126799  0.93743901  0.42730543  1.0
  O  O75  1  0.30615923  0.07190314  0.50886791  1.0
  O  O76  1  0.73698810  0.93602919  0.50591950  1.0
  O  O77  1  0.77206384  0.07203581  0.56450994  1.0
  O  O78  1  0.75079839  0.99419345  0.42908735  1.0
  O  O79  1  0.24561395  0.18019233  0.50413826  1.0
  O  O80  1  0.19600647  0.82177013  0.31771123  1.0
  O  O81  1  0.21497615  0.99343936  0.67550757  1.0
  O  O82  1  0.95929036  0.40571750  0.78901750  1.0
  O  O83  1  0.94175732  0.88795066  0.10388099  1.0
  O  O84  1  0.90778153  0.71576123  0.61327867  1.0
