# generated using pymatgen
data_MgH6C9NO4
_symmetry_space_group_name_H-M   'P 1'
_cell_length_a   6.86030347
_cell_length_b   28.84092619
_cell_length_c   28.84521616
_cell_angle_alpha   119.39457159
_cell_angle_beta   94.53522731
_cell_angle_gamma   94.54282571
_symmetry_Int_Tables_number   1
_chemical_formula_structural   MgH6C9NO4
_chemical_formula_sum   'Mg6 H36 C54 N6 O24'
_cell_volume   4910.95197022
_cell_formula_units_Z   6
loop_
 _symmetry_equiv_pos_site_id
 _symmetry_equiv_pos_as_xyz
  1  'x, y, z'
loop_
 _atom_site_type_symbol
 _atom_site_label
 _atom_site_symmetry_multiplicity
 _atom_site_fract_x
 _atom_site_fract_y
 _atom_site_fract_z
 _atom_site_occupancy
  Mg  Mg0  1  0.58937242  0.69476996  0.32036963  1.0
  Mg  Mg1  1  0.35523333  0.30242522  0.67575620  1.0
  Mg  Mg2  1  0.89467101  0.62552428  0.30532845  1.0
  Mg  Mg3  1  0.05276831  0.37349592  0.69749137  1.0
  Mg  Mg4  1  0.26892048  0.67975171  0.37454258  1.0
  Mg  Mg5  1  0.67942685  0.32409032  0.62637868  1.0
  H  H6  1  0.36692247  0.51758346  0.96260618  1.0
  H  H7  1  0.12583823  0.40632493  0.83108688  1.0
  H  H8  1  0.83256881  0.47144323  0.84639307  1.0
  H  H9  1  0.65921390  0.51195888  0.92723776  1.0
  H  H10  1  0.02235410  0.53909130  0.99633827  1.0
  H  H11  1  0.18676238  0.51578903  0.02697628  1.0
  H  H12  1  0.92586359  0.44188012  0.01158399  1.0
  H  H13  1  0.76547683  0.45924422  0.97409947  1.0
  H  H14  1  0.59451299  0.45724905  0.04570061  1.0
  H  H15  1  0.81722167  0.57939063  0.16907422  1.0
  H  H16  1  0.11357622  0.51626537  0.15980222  1.0
  H  H17  1  0.28681329  0.46848630  0.07971825  1.0
  H  H18  1  0.84917373  0.44503052  0.48227660  1.0
  H  H19  1  0.71988455  0.42475759  0.59352940  1.0
  H  H20  1  0.36157787  0.37504221  0.52839204  1.0
  H  H21  1  0.14745118  0.41528932  0.48787032  1.0
  H  H22  1  0.48297555  0.45723675  0.46084590  1.0
  H  H23  1  0.67038673  0.51127066  0.48422269  1.0
  H  H24  1  0.48306452  0.56961632  0.55816548  1.0
  H  H25  1  0.30546920  0.51467956  0.54066580  1.0
  H  H26  1  0.13626172  0.58832893  0.54279658  1.0
  H  H27  1  0.23739807  0.58971163  0.42080805  1.0
  H  H28  1  0.59659195  0.64351283  0.48375595  1.0
  H  H29  1  0.81733075  0.61122151  0.53157074  1.0
  H  H30  1  0.40429698  0.03733568  0.55511828  1.0
  H  H31  1  0.29508305  0.16886637  0.57530540  1.0
  H  H32  1  0.98647945  0.15350007  0.62496280  1.0
  H  H33  1  0.73216351  0.07271731  0.58483878  1.0
  H  H34  1  0.02603292  0.00355612  0.54272956  1.0
  H  H35  1  0.15945257  0.97294587  0.48867132  1.0
  H  H36  1  0.91371886  0.98857801  0.43041438  1.0
  H  H37  1  0.79115135  0.02604512  0.48537559  1.0
  H  H38  1  0.54832710  0.95438476  0.41162732  1.0
  H  H39  1  0.64771415  0.83103091  0.41042227  1.0
  H  H40  1  0.95341644  0.84025664  0.35655673  1.0
  H  H41  1  0.20658121  0.92033052  0.38881139  1.0
  C  C42  1  0.11569281  0.46460740  0.94047627  1.0
  C  C43  1  0.38130659  0.46088192  0.88423944  1.0
  C  C44  1  0.28009058  0.42110167  0.83481180  1.0
  C  C45  1  0.37513934  0.39898153  0.78855222  1.0
  C  C46  1  0.58044337  0.41708127  0.79330107  1.0
  C  C47  1  0.67708644  0.45797568  0.84374273  1.0
  C  C48  1  0.58124188  0.48022705  0.88861528  1.0
  C  C49  1  0.69631163  0.39528449  0.74814992  1.0
  C  C50  1  0.05975762  0.50220501  0.99540184  1.0
  C  C51  1  0.88596571  0.47631009  0.00794307  1.0
  C  C52  1  0.81493551  0.51655415  0.05953498  1.0
  C  C53  1  0.56321115  0.52172146  0.11922565  1.0
  C  C54  1  0.66340355  0.56505123  0.16657302  1.0
  C  C55  1  0.56904711  0.59138246  0.21253266  1.0
  C  C56  1  0.36441333  0.57379549  0.20941074  1.0
  C  C57  1  0.26839083  0.52932110  0.16109071  1.0
  C  C58  1  0.36421133  0.50295124  0.11662974  1.0
  C  C59  1  0.24945512  0.59949196  0.25436427  1.0
  C  C60  1  0.65090452  0.47581160  0.53528920  1.0
  C  C61  1  0.92062876  0.42336713  0.53895219  1.0
  C  C62  1  0.85935758  0.41372545  0.57873500  1.0
  C  C63  1  0.97662550  0.38961858  0.60084777  1.0
  C  C64  1  0.16388262  0.37630903  0.58276631  1.0
  C  C65  1  0.21950802  0.38581255  0.54185000  1.0
  C  C66  1  0.10122793  0.40838484  0.51958836  1.0
  C  C67  1  0.30134124  0.35298816  0.60459451  1.0
  C  C68  1  0.55710495  0.49318005  0.49775984  1.0
  C  C69  1  0.40891298  0.53155243  0.52368193  1.0
  C  C70  1  0.29770304  0.54295598  0.48349028  1.0
  C  C71  1  0.04074875  0.59750176  0.47839193  1.0
  C  C72  1  0.09785863  0.60155448  0.43510826  1.0
  C  C73  1  0.97735525  0.62115581  0.40874433  1.0
  C  C74  1  0.79021590  0.63559110  0.42628138  1.0
  C  C75  1  0.73840815  0.63174399  0.47072870  1.0
  C  C76  1  0.86038291  0.61364254  0.49710702  1.0
  C  C77  1  0.64961989  0.65478871  0.40054537  1.0
  C  C78  1  0.17534524  0.05949792  0.52424723  1.0
  C  C79  1  0.49721304  0.11568896  0.57673125  1.0
  C  C80  1  0.44558137  0.16511338  0.58631830  1.0
  C  C81  1  0.58696210  0.21133621  0.61032579  1.0
  C  C82  1  0.78750576  0.20656734  0.62362877  1.0
  C  C83  1  0.83362522  0.15615960  0.61419474  1.0
  C  C84  1  0.69278835  0.11132907  0.59169871  1.0
  C  C85  1  0.94837134  0.25170773  0.64686782  1.0
  C  C86  1  0.06424360  0.00457231  0.50681640  1.0
  C  C87  1  0.87764135  0.99215492  0.46847732  1.0
  C  C88  1  0.75498916  0.94055196  0.45708235  1.0
  C  C89  1  0.44355946  0.88086456  0.40258722  1.0
  C  C90  1  0.49643779  0.83352202  0.39858226  1.0
  C  C91  1  0.35620780  0.78756281  0.37897381  1.0
  C  C92  1  0.15471253  0.79067910  0.36452197  1.0
  C  C93  1  0.10695712  0.83896728  0.36830886  1.0
  C  C94  1  0.24713349  0.88342881  0.38638453  1.0
  C  C95  1  0.99493282  0.74573149  0.34528446  1.0
  N  N96  1  0.29045565  0.48360009  0.93103510  1.0
  N  N97  1  0.65742882  0.49513101  0.07334949  1.0
  N  N98  1  0.80683630  0.44742478  0.51626179  1.0
  N  N99  1  0.16142408  0.57815747  0.50493550  1.0
  N  N100  1  0.35944566  0.06891760  0.55272030  1.0
  N  N101  1  0.58366164  0.92673718  0.42184748  1.0
  O  O102  1  0.06892026  0.58190253  0.25035107  1.0
  O  O103  1  0.33573798  0.64125953  0.29840196  1.0
  O  O104  1  0.67824822  0.63146141  0.25704657  1.0
  O  O105  1  0.87751515  0.41338901  0.75387117  1.0
  O  O106  1  0.61020654  0.35633073  0.70211209  1.0
  O  O107  1  0.26603136  0.36201675  0.74222617  1.0
  O  O108  1  0.01269135  0.42204874  0.90774829  1.0
  O  O109  1  0.89098606  0.56377704  0.08630299  1.0
  O  O110  1  0.48655374  0.66830717  0.41809332  1.0
  O  O111  1  0.69437867  0.65710218  0.35881999  1.0
  O  O112  1  0.04662630  0.62557788  0.36867530  1.0
  O  O113  1  0.46437902  0.34052141  0.58646608  1.0
  O  O114  1  0.25409216  0.34600921  0.64359904  1.0
  O  O115  1  0.90440771  0.38026564  0.63780549  1.0
  O  O116  1  0.59061563  0.48559503  0.57784298  1.0
  O  O117  1  0.32685412  0.52257833  0.43629274  1.0
  O  O118  1  0.81840568  0.74976508  0.33175186  1.0
  O  O119  1  0.03733426  0.70167229  0.34293748  1.0
  O  O120  1  0.42104473  0.74306902  0.37456537  1.0
  O  O121  1  0.12390753  0.24601643  0.65923461  1.0
  O  O122  1  0.90813741  0.29771796  0.65389357  1.0
  O  O123  1  0.52409978  0.25764170  0.61960261  1.0
  O  O124  1  0.10533607  0.09224505  0.51440901  1.0
  O  O125  1  0.80422218  0.91376590  0.47751097  1.0
