# generated using pymatgen
data_CdH13C18N3O4
_symmetry_space_group_name_H-M   'P 1'
_cell_length_a   11.79656608
_cell_length_b   13.75282958
_cell_length_c   21.29304718
_cell_angle_alpha   89.99997750
_cell_angle_beta   90.00008842
_cell_angle_gamma   89.99990547
_symmetry_Int_Tables_number   1
_chemical_formula_structural   CdH13C18N3O4
_chemical_formula_sum   'Cd4 H52 C72 N12 O16'
_cell_volume   3454.50227151
_cell_formula_units_Z   4
loop_
 _symmetry_equiv_pos_site_id
 _symmetry_equiv_pos_as_xyz
  1  'x, y, z'
loop_
 _atom_site_type_symbol
 _atom_site_label
 _atom_site_symmetry_multiplicity
 _atom_site_fract_x
 _atom_site_fract_y
 _atom_site_fract_z
 _atom_site_occupancy
  Cd  Cd0  1  0.99999967  0.60302949  0.56682049  1.0
  Cd  Cd1  1  0.00000019  0.39697082  0.43317928  1.0
  Cd  Cd2  1  0.00000005  0.89696985  0.06682066  1.0
  Cd  Cd3  1  0.99999981  0.10302973  0.93317958  1.0
  H  H4  1  0.20516856  0.46874058  0.61970551  1.0
  H  H5  1  0.41499574  0.46351750  0.62400137  1.0
  H  H6  1  0.41658732  0.72411191  0.50948837  1.0
  H  H7  1  0.20658553  0.71775046  0.51097139  1.0
  H  H8  1  0.20516817  0.53126014  0.38029449  1.0
  H  H9  1  0.41499532  0.53648220  0.37599787  1.0
  H  H10  1  0.41658857  0.27588706  0.49051087  1.0
  H  H11  1  0.20658762  0.28224954  0.48902767  1.0
  H  H12  1  0.79483141  0.03125797  0.11970505  1.0
  H  H13  1  0.58500425  0.03648177  0.12400073  1.0
  H  H14  1  0.58341309  0.77588674  0.00948860  1.0
  H  H15  1  0.79341403  0.78224819  0.01097180  1.0
  H  H16  1  0.79483157  0.96874192  0.88029451  1.0
  H  H17  1  0.58500440  0.96351841  0.87599913  1.0
  H  H18  1  0.58341244  0.22411345  0.99051172  1.0
  H  H19  1  0.79341339  0.21775170  0.98902870  1.0
  H  H20  1  0.79483129  0.53126118  0.38029568  1.0
  H  H21  1  0.58500497  0.53648135  0.37599794  1.0
  H  H22  1  0.58341254  0.27588694  0.49051094  1.0
  H  H23  1  0.79341348  0.28224985  0.48902839  1.0
  H  H24  1  0.79483169  0.46873943  0.61970482  1.0
  H  H25  1  0.58500538  0.46351811  0.62400144  1.0
  H  H26  1  0.58341214  0.72411252  0.50948844  1.0
  H  H27  1  0.79341309  0.71775077  0.51097164  1.0
  H  H28  1  0.20516845  0.96874161  0.88029473  1.0
  H  H29  1  0.41499561  0.96351781  0.87599905  1.0
  H  H30  1  0.41658677  0.22411211  0.99051212  1.0
  H  H31  1  0.20658583  0.21775066  0.98902844  1.0
  H  H32  1  0.20516829  0.03125839  0.11970573  1.0
  H  H33  1  0.41499545  0.03648189  0.12400112  1.0
  H  H34  1  0.41658742  0.77588758  0.00948759  1.0
  H  H35  1  0.20658647  0.78224933  0.01097155  1.0
  H  H36  1  0.00000073  0.56873550  0.33019588  1.0
  H  H37  1  0.99999915  0.64218807  0.22198586  1.0
  H  H38  1  0.99999972  0.85649953  0.40909531  1.0
  H  H39  1  0.00000033  0.99421958  0.33837502  1.0
  H  H40  1  0.00000024  0.97628729  0.25566680  1.0
  H  H41  1  0.99999913  0.43126553  0.66980390  1.0
  H  H42  1  0.99999986  0.35781296  0.77801486  1.0
  H  H43  1  0.99999929  0.14350150  0.59090541  1.0
  H  H44  1  0.99999868  0.00578145  0.66162523  1.0
  H  H45  1  0.99999793  0.02371374  0.74433391  1.0
  H  H46  1  0.00000193  0.93126511  0.83019707  1.0
  H  H47  1  0.00000100  0.85781335  0.72198617  1.0
  H  H48  1  0.99999977  0.64350031  0.90909470  1.0
  H  H49  1  0.99999980  0.50578104  0.83837445  1.0
  H  H50  1  0.99999916  0.52371339  0.75566571  1.0
  H  H51  1  0.99999963  0.06873519  0.16980458  1.0
  H  H52  1  0.99999886  0.14218768  0.27801454  1.0
  H  H53  1  0.99999924  0.35649781  0.09090555  1.0
  H  H54  1  0.99999921  0.49421927  0.16162486  1.0
  H  H55  1  0.00000070  0.47628692  0.24433359  1.0
  C  C56  1  0.25608669  0.52380267  0.59584656  1.0
  C  C57  1  0.37393963  0.52168593  0.59784163  1.0
  C  C58  1  0.43710197  0.59351039  0.56655820  1.0
  C  C59  1  0.37488205  0.66541201  0.53478910  1.0
  C  C60  1  0.25714864  0.66269992  0.53509338  1.0
  C  C61  1  0.25608731  0.47619652  0.40415348  1.0
  C  C62  1  0.37394025  0.47831382  0.40215804  1.0
  C  C63  1  0.43710027  0.40649000  0.43344106  1.0
  C  C64  1  0.37488227  0.33458702  0.46521010  1.0
  C  C65  1  0.25715055  0.33729854  0.46490572  1.0
  C  C66  1  0.74391226  0.97619519  0.09584641  1.0
  C  C67  1  0.62605932  0.97831193  0.09784091  1.0
  C  C68  1  0.56289775  0.90648968  0.06655791  1.0
  C  C69  1  0.62511673  0.83458880  0.03478842  1.0
  C  C70  1  0.74284929  0.83729798  0.03509326  1.0
  C  C71  1  0.74391261  0.02380477  0.90415358  1.0
  C  C72  1  0.62605967  0.02168819  0.90215898  1.0
  C  C73  1  0.56289804  0.09351127  0.93344239  1.0
  C  C74  1  0.62511697  0.16541351  0.96521100  1.0
  C  C75  1  0.74284954  0.16270198  0.96490719  1.0
  C  C76  1  0.74391317  0.47619691  0.40415416  1.0
  C  C77  1  0.62605938  0.47831146  0.40215627  1.0
  C  C78  1  0.56289704  0.40648919  0.43344064  1.0
  C  C79  1  0.62511865  0.33458757  0.46521020  1.0
  C  C80  1  0.74285037  0.33729965  0.46490734  1.0
  C  C81  1  0.74391255  0.52380305  0.59584630  1.0
  C  C82  1  0.62605876  0.52168866  0.59784315  1.0
  C  C83  1  0.56289790  0.59351030  0.56655825  1.0
  C  C84  1  0.62511674  0.66541256  0.53478874  1.0
  C  C85  1  0.74284846  0.66270103  0.53509218  1.0
  C  C86  1  0.25608675  0.02380366  0.90415337  1.0
  C  C87  1  0.37393969  0.02168692  0.90215887  1.0
  C  C88  1  0.43710211  0.09351063  0.93344234  1.0
  C  C89  1  0.37488144  0.16541296  0.96521136  1.0
  C  C90  1  0.25714887  0.16270087  0.96490698  1.0
  C  C91  1  0.25608725  0.97619627  0.09584667  1.0
  C  C92  1  0.37393934  0.97831284  0.09784127  1.0
  C  C93  1  0.43710182  0.90648904  0.06655785  1.0
  C  C94  1  0.37488204  0.83458680  0.03478831  1.0
  C  C95  1  0.25714947  0.83729905  0.03509305  1.0
  C  C96  1  0.99999943  0.66752607  0.44084368  1.0
  C  C97  1  0.99999930  0.70921569  0.37593423  1.0
  C  C98  1  0.99999980  0.64703285  0.32347396  1.0
  C  C99  1  0.99999968  0.68756052  0.26387093  1.0
  C  C100  1  0.00000140  0.80967863  0.36772688  1.0
  C  C101  1  0.99999907  0.85179946  0.30714931  1.0
  C  C102  1  0.99999990  0.78835071  0.25391786  1.0
  C  C103  1  0.99999977  0.82404521  0.18789255  1.0
  C  C104  1  0.00000043  0.33247424  0.55915610  1.0
  C  C105  1  0.99999971  0.29078534  0.62406649  1.0
  C  C106  1  0.99999973  0.35296889  0.67652633  1.0
  C  C107  1  0.99999933  0.31243978  0.73612885  1.0
  C  C108  1  0.99999931  0.19032167  0.63227337  1.0
  C  C109  1  0.99999943  0.14819941  0.69285089  1.0
  C  C110  1  0.99999944  0.21165034  0.74608235  1.0
  C  C111  1  0.00000008  0.17595510  0.81210723  1.0
  C  C112  1  0.00000302  0.83247159  0.94084447  1.0
  C  C113  1  0.00000297  0.79078419  0.87593503  1.0
  C  C114  1  0.00000199  0.85296632  0.82347376  1.0
  C  C115  1  0.00000110  0.81243941  0.76387074  1.0
  C  C116  1  0.99999915  0.69032052  0.86772715  1.0
  C  C117  1  0.99999996  0.64820121  0.80714964  1.0
  C  C118  1  0.00000034  0.71165069  0.75391821  1.0
  C  C119  1  0.00000113  0.67595551  0.68789291  1.0
  C  C120  1  0.99999938  0.16752653  0.05915671  1.0
  C  C121  1  0.99999858  0.20921538  0.12406663  1.0
  C  C122  1  0.99999956  0.14703253  0.17652648  1.0
  C  C123  1  0.00000012  0.18756088  0.23612954  1.0
  C  C124  1  0.99999934  0.30967907  0.13227352  1.0
  C  C125  1  0.00000075  0.35179909  0.19285061  1.0
  C  C126  1  0.00000004  0.28834959  0.24608255  1.0
  C  C127  1  0.00000009  0.32404550  0.31210785  1.0
  N  N128  1  0.19846472  0.59277471  0.56473261  1.0
  N  N129  1  0.19846472  0.40722602  0.43526784  1.0
  N  N130  1  0.80153668  0.90722317  0.06473206  1.0
  N  N131  1  0.80153613  0.09277598  0.93526797  1.0
  N  N132  1  0.80153598  0.40722560  0.43526857  1.0
  N  N133  1  0.80153599  0.59277428  0.56473146  1.0
  N  N134  1  0.19846402  0.09277495  0.93526725  1.0
  N  N135  1  0.19846372  0.90722433  0.06473274  1.0
  N  N136  1  0.00000032  0.95010939  0.30046735  1.0
  N  N137  1  0.99999869  0.04989164  0.69953290  1.0
  N  N138  1  0.99999750  0.54989126  0.80046672  1.0
  N  N139  1  0.00000406  0.45010904  0.19953306  1.0
  O  O140  1  0.99999995  0.72540503  0.48771629  1.0
  O  O141  1  0.00000004  0.57494873  0.44856926  1.0
  O  O142  1  0.99999977  0.76384888  0.14262614  1.0
  O  O143  1  0.99999967  0.91697299  0.17765304  1.0
  O  O144  1  0.99999821  0.27459454  0.51228395  1.0
  O  O145  1  0.00000287  0.42505155  0.55143009  1.0
  O  O146  1  0.00000094  0.23615070  0.85737364  1.0
  O  O147  1  0.99999798  0.08302806  0.82234669  1.0
  O  O148  1  0.99999839  0.77459187  0.98771608  1.0
  O  O149  1  0.00000634  0.92504890  0.94857140  1.0
  O  O150  1  0.00000016  0.73615187  0.64262648  1.0
  O  O151  1  0.99999984  0.58302775  0.67765339  1.0
  O  O152  1  0.99999926  0.22540554  0.01228413  1.0
  O  O153  1  0.00000030  0.07494922  0.05143026  1.0
  O  O154  1  0.00000022  0.26384842  0.35737381  1.0
  O  O155  1  0.99999950  0.41697257  0.32234682  1.0
