# generated using pymatgen
data_ZnH12C20(N4O5)2
_symmetry_space_group_name_H-M   'P 1'
_cell_length_a   16.18707866
_cell_length_b   16.99630891
_cell_length_c   17.19035715
_cell_angle_alpha   91.52615209
_cell_angle_beta   92.20130518
_cell_angle_gamma   93.70096237
_symmetry_Int_Tables_number   1
_chemical_formula_structural   ZnH12C20(N4O5)2
_chemical_formula_sum   'Zn2 H24 C40 N16 O20'
_cell_volume   4714.06501084
_cell_formula_units_Z   2
loop_
 _symmetry_equiv_pos_site_id
 _symmetry_equiv_pos_as_xyz
  1  'x, y, z'
loop_
 _atom_site_type_symbol
 _atom_site_label
 _atom_site_symmetry_multiplicity
 _atom_site_fract_x
 _atom_site_fract_y
 _atom_site_fract_z
 _atom_site_occupancy
  Zn  Zn0  1  0.59435315  0.50694364  0.49530804  1.0
  Zn  Zn1  1  0.40564344  0.49305873  0.50471257  1.0
  H  H2  1  0.62797621  0.25295012  0.47423190  1.0
  H  H3  1  0.37209625  0.74702059  0.52581578  1.0
  H  H4  1  0.47061747  0.60873599  0.75387497  1.0
  H  H5  1  0.52927414  0.39118385  0.24613564  1.0
  H  H6  1  0.61282372  0.10450856  0.47139179  1.0
  H  H7  1  0.38720882  0.89546629  0.52867580  1.0
  H  H8  1  0.46384587  0.59999453  0.89876458  1.0
  H  H9  1  0.53605248  0.39995236  0.10125428  1.0
  H  H10  1  0.62299050  0.88455090  0.42249181  1.0
  H  H11  1  0.37700848  0.11547321  0.57749627  1.0
  H  H12  1  0.39153724  0.60368113  0.10950009  1.0
  H  H13  1  0.60850854  0.39634819  0.89055080  1.0
  H  H14  1  0.89804616  0.56886559  0.58667187  1.0
  H  H15  1  0.10195601  0.43123108  0.41326583  1.0
  H  H16  1  0.13269229  0.56646815  0.62938332  1.0
  H  H17  1  0.86727596  0.43372661  0.37050070  1.0
  H  H18  1  0.35823699  0.53803959  0.64213951  1.0
  H  H19  1  0.32422646  0.61558539  0.74378234  1.0
  H  H20  1  0.22324230  0.56790337  0.73968285  1.0
  H  H21  1  0.24494404  0.65388623  0.68414629  1.0
  H  H22  1  0.64171583  0.46203019  0.35784711  1.0
  H  H23  1  0.67574535  0.38449764  0.25619789  1.0
  H  H24  1  0.75502811  0.34621842  0.31585208  1.0
  H  H25  1  0.77672924  0.43218303  0.26029099  1.0
  C  C26  1  0.53095591  0.51015916  0.65260754  1.0
  C  C27  1  0.46899802  0.48980454  0.34742000  1.0
  C  C28  1  0.51909609  0.35468789  0.51649634  1.0
  C  C29  1  0.48094973  0.64531264  0.48350493  1.0
  C  C30  1  0.48827934  0.73279789  0.47405401  1.0
  C  C31  1  0.51177313  0.26721145  0.52595602  1.0
  C  C32  1  0.46270185  0.49537543  0.26027862  1.0
  C  C33  1  0.53728145  0.50459530  0.73975412  1.0
  C  C34  1  0.42659145  0.77852413  0.50350830  1.0
  C  C35  1  0.57346260  0.22147144  0.49653895  1.0
  C  C36  1  0.50138002  0.43889398  0.21557840  1.0
  C  C37  1  0.49854818  0.56104818  0.78444446  1.0
  C  C38  1  0.43489746  0.86018978  0.50544001  1.0
  C  C39  1  0.56514452  0.13980059  0.49461481  1.0
  C  C40  1  0.50476074  0.44305007  0.13539856  1.0
  C  C41  1  0.49516978  0.55691063  0.86463193  1.0
  C  C42  1  0.50708351  0.89858055  0.47777157  1.0
  C  C43  1  0.49293990  0.10142192  0.52224025  1.0
  C  C44  1  0.46807529  0.50498103  0.09713187  1.0
  C  C45  1  0.53190525  0.49501142  0.90290504  1.0
  C  C46  1  0.56789019  0.85439746  0.44509211  1.0
  C  C47  1  0.43213165  0.14561530  0.55491044  1.0
  C  C48  1  0.42286898  0.55768750  0.13942576  1.0
  C  C49  1  0.57713462  0.44232096  0.86061233  1.0
  C  C50  1  0.55762012  0.77266751  0.44311684  1.0
  C  C51  1  0.44241071  0.22734150  0.55687984  1.0
  C  C52  1  0.42143268  0.55282791  0.22000366  1.0
  C  C53  1  0.57856868  0.44717644  0.78004024  1.0
  C  C54  1  0.22404157  0.44902003  0.46691888  1.0
  C  C55  1  0.77595075  0.55106972  0.53304851  1.0
  C  C56  1  0.14028091  0.45760864  0.46141117  1.0
  C  C57  1  0.85971903  0.54251208  0.53852838  1.0
  C  C58  1  0.10764070  0.50176654  0.52219446  1.0
  C  C59  1  0.89234661  0.49839434  0.47770568  1.0
  C  C60  1  0.15921756  0.53324113  0.58266659  1.0
  C  C61  1  0.84076336  0.46693135  0.41724118  1.0
  C  C62  1  0.24549171  0.52123620  0.58313683  1.0
  C  C63  1  0.75447833  0.47888133  0.41681268  1.0
  C  C64  1  0.27015185  0.59928739  0.70515432  1.0
  C  C65  1  0.72982065  0.40080978  0.29482538  1.0
  N  N66  1  0.52449039  0.98105483  0.47990776  1.0
  N  N67  1  0.47551907  0.01894995  0.52010992  1.0
  N  N68  1  0.47312227  0.51912522  0.01687523  1.0
  N  N69  1  0.52685042  0.48086161  0.98316692  1.0
  N  N70  1  0.27764434  0.47957898  0.52326984  1.0
  N  N71  1  0.72232685  0.52050461  0.47671039  1.0
  N  N72  1  0.02280058  0.51666925  0.52703483  1.0
  N  N73  1  0.97719525  0.48349934  0.47284727  1.0
  N  N74  1  0.62337773  0.73131048  0.40415941  1.0
  N  N75  1  0.37667284  0.26871015  0.59583437  1.0
  N  N76  1  0.37736805  0.61416191  0.26094330  1.0
  N  N77  1  0.62267312  0.38585764  0.73910291  1.0
  N  N78  1  0.74289826  0.60346107  0.59424414  1.0
  N  N79  1  0.25710797  0.39657570  0.40576552  1.0
  N  N80  1  0.29655570  0.55029856  0.64173260  1.0
  N  N81  1  0.70340612  0.44981112  0.35822795  1.0
  O  O82  1  0.59616362  0.50620205  0.61502389  1.0
  O  O83  1  0.40379084  0.49382026  0.38499282  1.0
  O  O84  1  0.45266773  0.38954425  0.52410261  1.0
  O  O85  1  0.54736316  0.61044653  0.47584333  1.0
  O  O86  1  0.45900822  0.52091366  0.62409531  1.0
  O  O87  1  0.54092482  0.47900029  0.37594314  1.0
  O  O88  1  0.58900821  0.38619463  0.49909832  1.0
  O  O89  1  0.41105637  0.61380947  0.50096174  1.0
  O  O90  1  0.69441946  0.74178314  0.43337139  1.0
  O  O91  1  0.60336787  0.69378208  0.34308364  1.0
  O  O92  1  0.30562123  0.25822292  0.56665263  1.0
  O  O93  1  0.39669816  0.30626370  0.65689214  1.0
  O  O94  1  0.30992030  0.63053964  0.23100807  1.0
  O  O95  1  0.41140229  0.64598140  0.32021390  1.0
  O  O96  1  0.69010858  0.36948344  0.76906730  1.0
  O  O97  1  0.58867860  0.35405031  0.67980547  1.0
  O  O98  1  0.68517844  0.64326945  0.57430646  1.0
  O  O99  1  0.77849161  0.60479121  0.65928705  1.0
  O  O100  1  0.31479532  0.35675024  0.42575446  1.0
  O  O101  1  0.22156863  0.39524448  0.34069919  1.0
