# generated using pymatgen
data_ZnSiH16C24(N2F5)2
_symmetry_space_group_name_H-M   'P 1'
_cell_length_a   7.78152414
_cell_length_b   13.78516602
_cell_length_c   13.78689293
_cell_angle_alpha   86.64173351
_cell_angle_beta   73.72686371
_cell_angle_gamma   73.72040609
_symmetry_Int_Tables_number   1
_chemical_formula_structural   ZnSiH16C24(N2F5)2
_chemical_formula_sum   'Zn1 Si1 H16 C24 N4 F10'
_cell_volume   1362.42311638
_cell_formula_units_Z   1
loop_
 _symmetry_equiv_pos_site_id
 _symmetry_equiv_pos_as_xyz
  1  'x, y, z'
loop_
 _atom_site_type_symbol
 _atom_site_label
 _atom_site_symmetry_multiplicity
 _atom_site_fract_x
 _atom_site_fract_y
 _atom_site_fract_z
 _atom_site_occupancy
  Zn  Zn0  1  0.49999337  0.49995395  0.50005515  1.0
  Si  Si1  1  0.00000292  0.50005488  0.49991181  1.0
  H  H2  1  0.27020641  0.57178039  0.35965953  1.0
  H  H3  1  0.26407628  0.57120519  0.18425405  1.0
  H  H4  1  0.86129578  0.43101220  0.10440037  1.0
  H  H5  1  0.13871183  0.56852455  0.89575785  1.0
  H  H6  1  0.73630020  0.42942634  0.81567951  1.0
  H  H7  1  0.73006105  0.42873409  0.64032130  1.0
  H  H8  1  0.71466413  0.46705161  0.96842959  1.0
  H  H9  1  0.28559024  0.53308247  0.03161950  1.0
  H  H10  1  0.26997204  0.35970782  0.57149384  1.0
  H  H11  1  0.26379689  0.18430790  0.57081040  1.0
  H  H12  1  0.86112352  0.10434198  0.43096432  1.0
  H  H13  1  0.13885240  0.89553032  0.56953700  1.0
  H  H14  1  0.73577944  0.81576791  0.42855072  1.0
  H  H15  1  0.72973136  0.64031295  0.42809214  1.0
  H  H16  1  0.71439696  0.96840977  0.46675200  1.0
  H  H17  1  0.28533181  0.03156898  0.53310049  1.0
  C  C18  1  0.39897274  0.54145117  0.30122654  1.0
  C  C19  1  0.39695338  0.54036150  0.20134490  1.0
  C  C20  1  0.56308556  0.49906951  0.12582842  1.0
  C  C21  1  0.72575925  0.46330017  0.15734751  1.0
  C  C22  1  0.71226821  0.46714043  0.25990340  1.0
  C  C23  1  0.57384918  0.49100958  0.01925311  1.0
  C  C24  1  0.42643015  0.50917492  0.98076887  1.0
  C  C25  1  0.27431503  0.53644235  0.84276958  1.0
  C  C26  1  0.43715144  0.50105328  0.87420734  1.0
  C  C27  1  0.60332839  0.45999871  0.79864373  1.0
  C  C28  1  0.60122078  0.45884860  0.69878030  1.0
  C  C29  1  0.28769528  0.53247663  0.74023727  1.0
  C  C30  1  0.39878405  0.30125120  0.54119571  1.0
  C  C31  1  0.39669532  0.20136721  0.54007380  1.0
  C  C32  1  0.56282677  0.12582280  0.49883204  1.0
  C  C33  1  0.72555049  0.15731022  0.46318828  1.0
  C  C34  1  0.71215627  0.25987039  0.46707571  1.0
  C  C35  1  0.57356654  0.01924938  0.49075352  1.0
  C  C36  1  0.42616526  0.98073117  0.50906141  1.0
  C  C37  1  0.27433872  0.84258829  0.53707626  1.0
  C  C38  1  0.43694874  0.87414020  0.50104771  1.0
  C  C39  1  0.60298802  0.79865096  0.45957697  1.0
  C  C40  1  0.60098946  0.69876558  0.45853099  1.0
  C  C41  1  0.28781720  0.74002148  0.53324358  1.0
  N  N42  1  0.55519176  0.50334613  0.33226211  1.0
  N  N43  1  0.44482922  0.49657487  0.66781385  1.0
  N  N44  1  0.55506109  0.33226550  0.50321850  1.0
  N  N45  1  0.44485432  0.66767770  0.49683867  1.0
  F  F46  1  0.21677455  0.51253612  0.51235097  1.0
  F  F47  1  0.78318441  0.48758117  0.48749665  1.0
  F  F48  1  0.99995364  0.59059626  0.40936747  1.0
  F  F49  1  0.00003319  0.40950113  0.59046409  1.0
  F  F50  1  0.12104991  0.41047230  0.41036763  1.0
  F  F51  1  0.87890694  0.58962678  0.58947337  1.0
  F  F52  1  0.86906955  0.43159163  0.28833387  1.0
  F  F53  1  0.13073098  0.56751863  0.71187254  1.0
  F  F54  1  0.86899766  0.28828590  0.43167935  1.0
  F  F55  1  0.13112702  0.71153970  0.56909559  1.0
