# generated using pymatgen
data_AlH18C27(NO2)3
_symmetry_space_group_name_H-M   'P 1'
_cell_length_a   4.01037777
_cell_length_b   27.74700118
_cell_length_c   27.80576603
_cell_angle_alpha   119.92137399
_cell_angle_beta   90.58372073
_cell_angle_gamma   90.00552794
_symmetry_Int_Tables_number   1
_chemical_formula_structural   AlH18C27(NO2)3
_chemical_formula_sum   'Al3 H54 C81 N9 O18'
_cell_volume   2681.51409041
_cell_formula_units_Z   3
loop_
 _symmetry_equiv_pos_site_id
 _symmetry_equiv_pos_as_xyz
  1  'x, y, z'
loop_
 _atom_site_type_symbol
 _atom_site_label
 _atom_site_symmetry_multiplicity
 _atom_site_fract_x
 _atom_site_fract_y
 _atom_site_fract_z
 _atom_site_occupancy
  Al  Al0  1  0.99146834  0.99902758  0.50061526  1.0
  Al  Al1  1  0.96069613  0.66624081  0.83316378  1.0
  Al  Al2  1  0.05159995  0.33276838  0.16637291  1.0
  H  H3  1  0.52551315  0.99882483  0.92214506  1.0
  H  H4  1  0.51591671  0.08996200  0.83461632  1.0
  H  H5  1  0.49134779  0.91121052  0.74380163  1.0
  H  H6  1  0.78028066  0.83357297  0.90439433  1.0
  H  H7  1  0.80587496  0.92339869  0.90594086  1.0
  H  H8  1  0.16926391  0.85519083  0.76050749  1.0
  H  H9  1  0.23503836  0.07283285  0.98012750  1.0
  H  H10  1  0.85354285  0.23553807  0.99746429  1.0
  H  H11  1  0.85229374  0.14696318  0.90797885  1.0
  H  H12  1  0.81092269  0.07439745  0.76198331  1.0
  H  H13  1  0.18536147  0.93143020  0.59822751  1.0
  H  H14  1  0.18366860  0.92806193  0.68567094  1.0
  H  H15  1  0.49954514  0.57729770  0.07822605  1.0
  H  H16  1  0.51305896  0.75594804  0.16584508  1.0
  H  H17  1  0.52693851  0.66789154  0.25661397  1.0
  H  H18  1  0.23364462  0.42990869  0.09511700  1.0
  H  H19  1  0.21135854  0.51858194  0.09432608  1.0
  H  H20  1  0.84709764  0.59446894  0.23989847  1.0
  H  H21  1  0.79509921  0.59358284  0.02025572  1.0
  H  H22  1  0.16995601  0.73831155  0.00280927  1.0
  H  H23  1  0.17547245  0.73956047  0.09243964  1.0
  H  H24  1  0.20802516  0.81229671  0.23792834  1.0
  H  H25  1  0.81720336  0.83381558  0.40333447  1.0
  H  H26  1  0.83638321  0.74357383  0.31536613  1.0
  H  H27  1  0.51244355  0.42283707  0.50106656  1.0
  H  H28  1  0.49301259  0.24427671  0.40988010  1.0
  H  H29  1  0.47086785  0.33134439  0.58821065  1.0
  H  H30  1  0.77121971  0.56967473  0.66567343  1.0
  H  H31  1  0.79040297  0.48141876  0.57635366  1.0
  H  H32  1  0.16252595  0.40456292  0.64455238  1.0
  H  H33  1  0.22281537  0.40697838  0.42543578  1.0
  H  H34  1  0.85137423  0.26193171  0.26649669  1.0
  H  H35  1  0.83999725  0.26073689  0.35487299  1.0
  H  H36  1  0.78574088  0.18711651  0.42574655  1.0
  H  H37  1  0.17617741  0.16503168  0.56750079  1.0
  H  H38  1  0.16595295  0.25592068  0.57077727  1.0
  H  H39  1  0.99768747  0.72956938  0.76023576  1.0
  H  H40  1  0.94863816  0.76602365  0.72783286  1.0
  H  H41  1  0.09995370  0.19844395  0.10564934  1.0
  H  H42  1  0.04598933  0.12972906  0.07014504  1.0
  H  H43  1  0.89648776  0.08183179  0.63778774  1.0
  H  H44  1  0.02033337  0.10804525  0.70579384  1.0
  H  H45  1  0.01817728  0.46874905  0.23883760  1.0
  H  H46  1  0.06123151  0.53771128  0.27261001  1.0
  H  H47  1  0.93039465  0.59382934  0.89513220  1.0
  H  H48  1  0.97987817  0.56004653  0.93015220  1.0
  H  H49  1  0.09313071  0.94203104  0.36256041  1.0
  H  H50  1  0.98375644  0.90084246  0.29388597  1.0
  H  H51  1  0.00035484  0.52981270  0.76943311  1.0
  H  H52  1  0.95415101  0.46091080  0.73380506  1.0
  H  H53  1  0.09224815  0.40646053  0.29981014  1.0
  H  H54  1  0.04515817  0.44077035  0.36828856  1.0
  H  H55  1  0.88580187  0.05597784  0.41918529  1.0
  H  H56  1  0.00118500  0.09776831  0.39274147  1.0
  C  C57  1  0.48864000  0.07281740  0.49797751  1.0
  C  C58  1  0.49475177  0.00169229  0.57587831  1.0
  C  C59  1  0.49085266  0.92510913  0.42570159  1.0
  C  C60  1  0.45923668  0.74009499  0.83194321  1.0
  C  C61  1  0.46888602  0.66625159  0.90775871  1.0
  C  C62  1  0.45628371  0.59085803  0.75903977  1.0
  C  C63  1  0.54800489  0.25832036  0.09228454  1.0
  C  C64  1  0.55277372  0.40794642  0.16721554  1.0
  C  C65  1  0.55159227  0.33352556  0.24159510  1.0
  C  C66  1  0.53100982  0.05045509  0.88443699  1.0
  C  C67  1  0.52051244  0.99938102  0.88320886  1.0
  C  C68  1  0.50083799  0.94889586  0.83302135  1.0
  C  C69  1  0.49371322  0.95018531  0.78324553  1.0
  C  C70  1  0.50413180  0.00059861  0.78304899  1.0
  C  C71  1  0.52134711  0.05038063  0.83402527  1.0
  C  C72  1  0.64181749  0.83896733  0.87344999  1.0
  C  C73  1  0.65411703  0.88957448  0.87451409  1.0
  C  C74  1  0.48988451  0.89555936  0.83288045  1.0
  C  C75  1  0.31227183  0.85019298  0.79135395  1.0
  C  C76  1  0.28996566  0.79919578  0.79030972  1.0
  C  C77  1  0.46272582  0.79391718  0.83196311  1.0
  C  C78  1  0.38001159  0.10798230  0.98411008  1.0
  C  C79  1  0.37341751  0.15799692  0.03491558  1.0
  C  C80  1  0.54500982  0.20434054  0.03888684  1.0
  C  C81  1  0.71305153  0.19984981  0.99303368  1.0
  C  C82  1  0.71071342  0.15015593  0.94266306  1.0
  C  C83  1  0.54239570  0.10343229  0.93774136  1.0
  C  C84  1  0.66676627  0.04333668  0.72645335  1.0
  C  C85  1  0.67685028  0.04534178  0.67688026  1.0
  C  C86  1  0.49996368  0.00354371  0.62969893  1.0
  C  C87  1  0.32561022  0.96207882  0.63442120  1.0
  C  C88  1  0.32798123  0.95991857  0.68306474  1.0
  C  C89  1  0.49943924  0.00132235  0.73027391  1.0
  C  C90  1  0.49703349  0.66664534  0.11595020  1.0
  C  C91  1  0.50459986  0.61677073  0.11718254  1.0
  C  C92  1  0.52062630  0.61640854  0.16737948  1.0
  C  C93  1  0.52757935  0.66745584  0.21717912  1.0
  C  C94  1  0.51985093  0.71809363  0.21739988  1.0
  C  C95  1  0.50627436  0.71693752  0.16640422  1.0
  C  C96  1  0.37296528  0.46600856  0.12624764  1.0
  C  C97  1  0.36226249  0.51580102  0.12562959  1.0
  C  C98  1  0.52747423  0.56314878  0.16743270  1.0
  C  C99  1  0.70350498  0.55884554  0.20883225  1.0
  C  C100  1  0.72401795  0.50866530  0.20947569  1.0
  C  C101  1  0.55126667  0.46192959  0.16751302  1.0
  C  C102  1  0.64879435  0.62462121  0.01625508  1.0
  C  C103  1  0.65338962  0.62366400  0.96533721  1.0
  C  C104  1  0.47854749  0.66574653  0.96124188  1.0
  C  C105  1  0.31206667  0.70720390  0.00724130  1.0
  C  C106  1  0.31694759  0.70809062  0.05772406  1.0
  C  C107  1  0.48624203  0.66636524  0.06264934  1.0
  C  C108  1  0.34874915  0.81694665  0.27384014  1.0
  C  C109  1  0.32862625  0.86811091  0.32365042  1.0
  C  C110  1  0.49938578  0.87366435  0.37139406  1.0
  C  C111  1  0.68033501  0.82807460  0.36677187  1.0
  C  C112  1  0.68773076  0.77758005  0.31783423  1.0
  C  C113  1  0.51977834  0.77151113  0.27024025  1.0
  C  C114  1  0.51330247  0.33355588  0.44948903  1.0
  C  C115  1  0.50442291  0.38326731  0.50048330  1.0
  C  C116  1  0.48388626  0.38331121  0.55080374  1.0
  C  C117  1  0.47332392  0.33207410  0.54936486  1.0
  C  C118  1  0.48159131  0.28160876  0.49903875  1.0
  C  C119  1  0.49965678  0.28310562  0.44945303  1.0
  C  C120  1  0.63311251  0.53346379  0.66043787  1.0
  C  C121  1  0.64180191  0.48387495  0.61005721  1.0
  C  C122  1  0.47774210  0.43637207  0.60408196  1.0
  C  C123  1  0.30526236  0.44027430  0.64940063  1.0
  C  C124  1  0.28733893  0.49020820  0.70021469  1.0
  C  C125  1  0.45801995  0.53713945  0.70534503  1.0
  C  C126  1  0.37082274  0.37597515  0.39121446  1.0
  C  C127  1  0.36968653  0.37693997  0.34124821  1.0
  C  C128  1  0.54517293  0.33474230  0.29592980  1.0
  C  C129  1  0.70948037  0.29324747  0.30137312  1.0
  C  C130  1  0.70117628  0.29237099  0.35095946  1.0
  C  C131  1  0.53016822  0.33409849  0.39668365  1.0
  C  C132  1  0.64452784  0.18232921  0.45648770  1.0
  C  C133  1  0.65934334  0.13071985  0.45455948  1.0
  C  C134  1  0.48801497  0.12492026  0.49606418  1.0
  C  C135  1  0.31339213  0.17085797  0.53714124  1.0
  C  C136  1  0.31076932  0.22173073  0.53923820  1.0
  C  C137  1  0.47787999  0.22794679  0.49819067  1.0
  N  N138  1  0.11362282  0.75463316  0.74830032  1.0
  N  N139  1  0.21167422  0.16121512  0.08047279  1.0
  N  N140  1  0.84111140  0.08853271  0.67628985  1.0
  N  N141  1  0.89913968  0.50559387  0.25130144  1.0
  N  N142  1  0.81589926  0.58144286  0.91984675  1.0
  N  N143  1  0.15929164  0.91144968  0.32407165  1.0
  N  N144  1  0.11698296  0.49290652  0.74482648  1.0
  N  N145  1  0.20858363  0.41918224  0.33711605  1.0
  N  N146  1  0.82421427  0.08725659  0.41172506  1.0
  O  O147  1  0.71982024  0.93349003  0.46148431  1.0
  O  O148  1  0.72160069  0.03721903  0.47226635  1.0
  O  O149  1  0.72776109  0.02752422  0.56589279  1.0
  O  O150  1  0.25131600  0.95965702  0.43478195  1.0
  O  O151  1  0.26001513  0.97458375  0.54123535  1.0
  O  O152  1  0.25832468  0.06505961  0.52501631  1.0
  O  O153  1  0.69364306  0.60005717  0.79385050  1.0
  O  O154  1  0.69252529  0.70533425  0.80634359  1.0
  O  O155  1  0.70113019  0.69192825  0.89861851  1.0
  O  O156  1  0.21931988  0.62469581  0.76753349  1.0
  O  O157  1  0.22787875  0.64085773  0.87379134  1.0
  O  O158  1  0.22490335  0.73154824  0.85745367  1.0
  O  O159  1  0.79021183  0.35850260  0.23253317  1.0
  O  O160  1  0.78600452  0.26723304  0.12686775  1.0
  O  O161  1  0.78629432  0.37370332  0.14175750  1.0
  O  O162  1  0.31658154  0.30754926  0.20685332  1.0
  O  O163  1  0.31778802  0.39887230  0.19264418  1.0
  O  O164  1  0.31315353  0.29255053  0.10094847  1.0
