# generated using pymatgen
data_AlH9C24Br3(NO2)3
_symmetry_space_group_name_H-M   'P 1'
_cell_length_a   3.98103937
_cell_length_b   15.42670875
_cell_length_c   15.70190998
_cell_angle_alpha   61.17598144
_cell_angle_beta   85.85066071
_cell_angle_gamma   84.89653442
_symmetry_Int_Tables_number   1
_chemical_formula_structural   AlH9C24Br3(NO2)3
_chemical_formula_sum   'Al1 H9 C24 Br3 N3 O6'
_cell_volume   841.01807499
_cell_formula_units_Z   1
loop_
 _symmetry_equiv_pos_site_id
 _symmetry_equiv_pos_as_xyz
  1  'x, y, z'
loop_
 _atom_site_type_symbol
 _atom_site_label
 _atom_site_symmetry_multiplicity
 _atom_site_fract_x
 _atom_site_fract_y
 _atom_site_fract_z
 _atom_site_occupancy
  Al  Al0  1  0.98306038  0.49507384  0.50380246  1.0
  H  H1  1  0.46911547  0.13183684  0.96083673  1.0
  H  H2  1  0.02170471  0.95872142  0.40006882  1.0
  H  H3  1  0.76655073  0.41191790  0.12551622  1.0
  H  H4  1  0.72210906  0.24100762  0.48652795  1.0
  H  H5  1  0.90471554  0.14561279  0.39806654  1.0
  H  H6  1  0.64296014  0.76376961  0.25716129  1.0
  H  H7  1  0.52590074  0.94707842  0.15413400  1.0
  H  H8  1  0.22691733  0.49564385  0.76364787  1.0
  H  H9  1  0.09870262  0.41025149  0.94326412  1.0
  C  C10  1  0.46278423  0.41445090  0.65293780  1.0
  C  C11  1  0.54074850  0.42873759  0.41689812  1.0
  C  C12  1  0.44323831  0.64742268  0.43754883  1.0
  C  C13  1  0.41467471  0.36158864  0.76139344  1.0
  C  C14  1  0.38720863  0.75743176  0.38474584  1.0
  C  C15  1  0.62257426  0.37836114  0.35649417  1.0
  C  C16  1  0.48352447  0.25920648  0.81752632  1.0
  C  C17  1  0.41541653  0.21132640  0.91728322  1.0
  C  C18  1  0.21086177  0.81336827  0.42481027  1.0
  C  C19  1  0.15447466  0.91543231  0.36879092  1.0
  C  C20  1  0.62949324  0.42567394  0.25442937  1.0
  C  C21  1  0.74739068  0.37411923  0.20460771  1.0
  C  C22  1  0.72387512  0.27695158  0.40732469  1.0
  C  C23  1  0.82772419  0.22416130  0.35859915  1.0
  C  C24  1  0.50389694  0.80758850  0.28716933  1.0
  C  C25  1  0.44004495  0.90905402  0.23007172  1.0
  C  C26  1  0.27956009  0.41590033  0.80758439  1.0
  C  C27  1  0.20758575  0.36875361  0.90713174  1.0
  C  C28  1  0.27364316  0.26594432  0.96258552  1.0
  C  C29  1  0.19587904  0.21445407  0.06826924  1.0
  C  C30  1  0.26399098  0.96380501  0.27093986  1.0
  C  C31  1  0.19186341  0.07209605  0.21290997  1.0
  C  C32  1  0.84693771  0.27303829  0.25646672  1.0
  C  C33  1  0.98538687  0.21794676  0.20525188  1.0
  Br  Br34  1  0.68303189  0.18358949  0.75858307  1.0
  Br  Br35  1  0.50100801  0.56273353  0.17924842  1.0
  Br  Br36  1  0.04983830  0.75767755  0.55659363  1.0
  N  N37  1  0.27739496  0.11631583  0.11764302  1.0
  N  N38  1  0.04489385  0.11954097  0.25988345  1.0
  N  N39  1  0.04982127  0.26860294  0.10883030  1.0
  O  O40  1  0.70844461  0.60892574  0.41535150  1.0
  O  O41  1  0.69698275  0.47421342  0.61623360  1.0
  O  O42  1  0.75213331  0.40656570  0.48298450  1.0
  O  O43  1  0.21674095  0.59816163  0.49965474  1.0
  O  O44  1  0.27702833  0.48583247  0.40286293  1.0
  O  O45  1  0.25425877  0.39751499  0.60579568  1.0
