# generated using pymatgen
data_ZnH13C16NO4F
_symmetry_space_group_name_H-M   'P 1'
_cell_length_a   9.86982159
_cell_length_b   11.07050008
_cell_length_c   24.33928530
_cell_angle_alpha   89.94722099
_cell_angle_beta   89.12791332
_cell_angle_gamma   89.64378270
_symmetry_Int_Tables_number   1
_chemical_formula_structural   ZnH13C16NO4F
_chemical_formula_sum   'Zn4 H52 C64 N4 O16 F4'
_cell_volume   2659.04392986
_cell_formula_units_Z   4
loop_
 _symmetry_equiv_pos_site_id
 _symmetry_equiv_pos_as_xyz
  1  'x, y, z'
loop_
 _atom_site_type_symbol
 _atom_site_label
 _atom_site_symmetry_multiplicity
 _atom_site_fract_x
 _atom_site_fract_y
 _atom_site_fract_z
 _atom_site_occupancy
  Zn  Zn0  1  0.36396908  0.49153759  0.50312081  1.0
  Zn  Zn1  1  0.65067143  0.49073275  0.50158473  1.0
  Zn  Zn2  1  0.63399173  0.49401972  0.95762441  1.0
  Zn  Zn3  1  0.34771417  0.49591791  0.94977968  1.0
  H  H4  1  0.88156688  0.57977896  0.38349180  1.0
  H  H5  1  0.88725434  0.70738540  0.42806042  1.0
  H  H6  1  0.14442219  0.69844423  0.42419509  1.0
  H  H7  1  0.13705915  0.56619955  0.38249691  1.0
  H  H8  1  0.81317694  0.86725680  0.52968465  1.0
  H  H9  1  0.81281164  0.87559554  0.45641206  1.0
  H  H10  1  0.82036894  0.10193247  0.46079173  1.0
  H  H11  1  0.81555828  0.09465917  0.53400761  1.0
  H  H12  1  0.25284252  0.47546888  0.11907143  1.0
  H  H13  1  0.73832850  0.48414621  0.33659769  1.0
  H  H14  1  0.22678537  0.44390547  0.78229368  1.0
  H  H15  1  0.19518919  0.60236379  0.78638324  1.0
  H  H16  1  0.18776605  0.60841625  0.68159905  1.0
  H  H17  1  0.21540995  0.44907510  0.68124386  1.0
  H  H18  1  0.12842730  0.58850849  0.06935382  1.0
  H  H19  1  0.11012276  0.71601641  0.02527979  1.0
  H  H20  1  0.85456687  0.70071243  0.03484696  1.0
  H  H21  1  0.87330422  0.56873530  0.07626377  1.0
  H  H22  1  0.17520694  0.87167431  0.92720340  1.0
  H  H23  1  0.17675162  0.88521118  0.00032693  1.0
  H  H24  1  0.16810847  0.11128368  0.99217913  1.0
  H  H25  1  0.17430695  0.09739038  0.91914928  1.0
  H  H26  1  0.13394849  0.24481647  0.58139128  1.0
  H  H27  1  0.25598644  0.36085802  0.58766166  1.0
  H  H28  1  0.10238212  0.36410356  0.62772717  1.0
  H  H29  1  0.86383342  0.37437319  0.62487265  1.0
  H  H30  1  0.75182086  0.32629184  0.57317396  1.0
  H  H31  1  0.90452989  0.24419212  0.58573028  1.0
  H  H32  1  0.18444310  0.13889547  0.51657351  1.0
  H  H33  1  0.26352142  0.21015101  0.45975219  1.0
  H  H34  1  0.18405994  0.06732184  0.45178018  1.0
  H  H35  1  0.18987426  0.85388038  0.46305970  1.0
  H  H36  1  0.24437361  0.78680291  0.52483217  1.0
  H  H37  1  0.16762566  0.93311176  0.52553461  1.0
  H  H38  1  0.84462882  0.56102391  0.66840023  1.0
  H  H39  1  0.74159627  0.63695647  0.62001875  1.0
  H  H40  1  0.79931623  0.71315229  0.67962945  1.0
  H  H41  1  0.80184810  0.71489059  0.76947651  1.0
  H  H42  1  0.77220689  0.61030030  0.82376161  1.0
  H  H43  1  0.85812008  0.56472296  0.76181693  1.0
  H  H44  1  0.89037454  0.25637059  0.86612527  1.0
  H  H45  1  0.73794100  0.33710147  0.88123476  1.0
  H  H46  1  0.85482546  0.39219298  0.83074979  1.0
  H  H47  1  0.09073105  0.35678488  0.82927223  1.0
  H  H48  1  0.24312698  0.36450034  0.86780635  1.0
  H  H49  1  0.12374917  0.24743985  0.88014159  1.0
  H  H50  1  0.80134727  0.14356135  0.93554238  1.0
  H  H51  1  0.72721084  0.20879373  0.99493217  1.0
  H  H52  1  0.80918805  0.06546241  0.99889922  1.0
  H  H53  1  0.79752392  0.84938998  0.99105403  1.0
  H  H54  1  0.74239100  0.78710940  0.92864588  1.0
  H  H55  1  0.82165572  0.93134810  0.92925025  1.0
  C  C56  1  0.50316044  0.72560452  0.49578942  1.0
  C  C57  1  0.50927946  0.48233153  0.39501173  1.0
  C  C58  1  0.51079377  0.25682770  0.50007495  1.0
  C  C59  1  0.50456992  0.53270902  0.60782447  1.0
  C  C60  1  0.48738257  0.72890041  0.96161519  1.0
  C  C61  1  0.48418610  0.48073933  0.06090579  1.0
  C  C62  1  0.47808688  0.26038751  0.95329926  1.0
  C  C63  1  0.51833975  0.53662275  0.84769602  1.0
  C  C64  1  0.93874736  0.53578519  0.46890855  1.0
  C  C65  1  0.07747023  0.41214296  0.54356234  1.0
  C  C66  1  0.07937445  0.53385868  0.46876133  1.0
  C  C67  1  0.93317686  0.41053766  0.54250428  1.0
  C  C68  1  0.93122335  0.61799489  0.41942814  1.0
  C  C69  1  0.09222242  0.61246396  0.41826476  1.0
  C  C70  1  0.49633695  0.86085084  0.49602111  1.0
  C  C71  1  0.50158682  0.12257049  0.49440520  1.0
  C  C72  1  0.61642737  0.92651632  0.49498409  1.0
  C  C73  1  0.37754172  0.05826810  0.49108120  1.0
  C  C74  1  0.61911746  0.05215547  0.49552039  1.0
  C  C75  1  0.37436943  0.93032895  0.49578777  1.0
  C  C76  1  0.76950192  0.91455495  0.49437043  1.0
  C  C77  1  0.77262207  0.05716484  0.49636381  1.0
  C  C78  1  0.57937137  0.48485612  0.15808495  1.0
  C  C79  1  0.33903793  0.47907181  0.14630093  1.0
  C  C80  1  0.31892647  0.48072152  0.20202668  1.0
  C  C81  1  0.42780363  0.48287548  0.23962015  1.0
  C  C82  1  0.41164703  0.48181551  0.29778141  1.0
  C  C83  1  0.65207238  0.48444215  0.30936909  1.0
  C  C84  1  0.67205578  0.48626342  0.25369453  1.0
  C  C85  1  0.56302013  0.48505949  0.21619827  1.0
  C  C86  1  0.47088073  0.48121072  0.12267254  1.0
  C  C87  1  0.52033372  0.48239617  0.33312112  1.0
  C  C88  1  0.52356874  0.56205845  0.78687773  1.0
  C  C89  1  0.51386677  0.56302693  0.66766692  1.0
  C  C90  1  0.40325181  0.55298477  0.75788921  1.0
  C  C91  1  0.63568061  0.59009618  0.69561394  1.0
  C  C92  1  0.39831768  0.55443110  0.70075616  1.0
  C  C93  1  0.64104021  0.58937353  0.75408352  1.0
  C  C94  1  0.25248177  0.53154143  0.76436134  1.0
  C  C95  1  0.24678425  0.53440514  0.69974598  1.0
  C  C96  1  0.06116888  0.54345953  0.98551416  1.0
  C  C97  1  0.91806524  0.41686638  0.91368950  1.0
  C  C98  1  0.92085695  0.53781081  0.98873775  1.0
  C  C99  1  0.06241629  0.41885487  0.91186113  1.0
  C  C100  1  0.07157347  0.62552458  0.03481074  1.0
  C  C101  1  0.91115766  0.61589975  0.03953282  1.0
  C  C102  1  0.49279727  0.86410113  0.95985037  1.0
  C  C103  1  0.48762756  0.12602958  0.95912076  1.0
  C  C104  1  0.37271036  0.93101323  0.96049977  1.0
  C  C105  1  0.61188885  0.06039917  0.96264672  1.0
  C  C106  1  0.37018793  0.05662163  0.95857430  1.0
  C  C107  1  0.61465956  0.93221644  0.95886470  1.0
  C  C108  1  0.21963489  0.92074702  0.96167295  1.0
  C  C109  1  0.21668873  0.06308950  0.95764352  1.0
  C  C110  1  0.14755830  0.34245879  0.58740599  1.0
  C  C111  1  0.85844438  0.33461259  0.58352900  1.0
  C  C112  1  0.24580386  0.12251032  0.47918160  1.0
  C  C113  1  0.23702098  0.87264000  0.50285753  1.0
  C  C114  1  0.76130624  0.62681667  0.66382080  1.0
  C  C115  1  0.77528196  0.62059008  0.77919894  1.0
  C  C116  1  0.84524494  0.34681021  0.87086915  1.0
  C  C117  1  0.13518977  0.34368739  0.86990917  1.0
  C  C118  1  0.74426098  0.12315362  0.97355186  1.0
  C  C119  1  0.75120809  0.87170776  0.95142281  1.0
  N  N120  1  0.86191457  0.47620350  0.50513374  1.0
  N  N121  1  0.15256518  0.47556222  0.50602028  1.0
  N  N122  1  0.13574356  0.48580336  0.94765049  1.0
  N  N123  1  0.84544513  0.47779191  0.95308770  1.0
  O  O124  1  0.39698785  0.66722736  0.48279261  1.0
  O  O125  1  0.61699950  0.67763338  0.50764790  1.0
  O  O126  1  0.61928208  0.50873649  0.41905259  1.0
  O  O127  1  0.39711816  0.45625209  0.41797699  1.0
  O  O128  1  0.62540890  0.30524213  0.49010528  1.0
  O  O129  1  0.40544585  0.31437533  0.51685850  1.0
  O  O130  1  0.38975348  0.54584721  0.58514458  1.0
  O  O131  1  0.61004699  0.48843135  0.58425993  1.0
  O  O132  1  0.59245363  0.67116344  0.97707556  1.0
  O  O133  1  0.37513970  0.68079665  0.94833956  1.0
  O  O134  1  0.37583563  0.50433159  0.03519130  1.0
  O  O135  1  0.59962247  0.45638743  0.03970701  1.0
  O  O136  1  0.36154873  0.30941368  0.95939914  1.0
  O  O137  1  0.58544956  0.31852002  0.94058119  1.0
  O  O138  1  0.62404067  0.54915374  0.87652738  1.0
  O  O139  1  0.40459947  0.49960350  0.86693278  1.0
  F  F140  1  0.80203880  0.48859259  0.23434812  1.0
  F  F141  1  0.70764658  0.48975522  0.13782108  1.0
  F  F142  1  0.18893995  0.47943752  0.22138955  1.0
  F  F143  1  0.28338453  0.48109819  0.31828195  1.0
