# generated using pymatgen
data_Zn4H16C40N4O13F8
_symmetry_space_group_name_H-M   'P 1'
_cell_length_a   23.84054869
_cell_length_b   23.84057481
_cell_length_c   23.83847829
_cell_angle_alpha   67.00013297
_cell_angle_beta   72.25894316
_cell_angle_gamma   107.73497223
_symmetry_Int_Tables_number   1
_chemical_formula_structural   Zn4H16C40N4O13F8
_chemical_formula_sum   'Zn8 H32 C80 N8 O26 F16'
_cell_volume   10399.81945539
_cell_formula_units_Z   2
loop_
 _symmetry_equiv_pos_site_id
 _symmetry_equiv_pos_as_xyz
  1  'x, y, z'
loop_
 _atom_site_type_symbol
 _atom_site_label
 _atom_site_symmetry_multiplicity
 _atom_site_fract_x
 _atom_site_fract_y
 _atom_site_fract_z
 _atom_site_occupancy
  Zn  Zn0  1  0.05695031  0.09990170  0.45596444  1.0
  Zn  Zn1  1  0.05695001  0.95704244  0.48706732  1.0
  Zn  Zn2  1  0.94305890  0.95596631  0.59991583  1.0
  Zn  Zn3  1  0.94306625  0.98709101  0.45703009  1.0
  Zn  Zn4  1  0.94413300  0.40010168  0.04294996  1.0
  Zn  Zn5  1  0.05589657  0.54297633  0.90006904  1.0
  Zn  Zn6  1  0.94412178  0.54402122  0.01291331  1.0
  Zn  Zn7  1  0.05587665  0.51291432  0.04402214  1.0
  H  H8  1  0.92233276  0.27111102  0.96388873  1.0
  H  H9  1  0.07772723  0.46393943  0.77099773  1.0
  H  H10  1  0.92413310  0.03494898  0.72869170  1.0
  H  H11  1  0.07576403  0.22866570  0.53491392  1.0
  H  H12  1  0.07770148  0.61380082  0.15121244  1.0
  H  H13  1  0.92231799  0.65126306  0.11376220  1.0
  H  H14  1  0.07578352  0.84709628  0.38927305  1.0
  H  H15  1  0.92414583  0.88919032  0.34719248  1.0
  H  H16  1  0.73641308  0.27132714  0.15287102  1.0
  H  H17  1  0.73636242  0.46502875  0.11079478  1.0
  H  H18  1  0.26503463  0.03608803  0.38621621  1.0
  H  H19  1  0.26502371  0.22891857  0.34878604  1.0
  H  H20  1  0.26363083  0.65290242  0.77129451  1.0
  H  H21  1  0.26361532  0.61078703  0.96504907  1.0
  H  H22  1  0.73499515  0.88621338  0.53609521  1.0
  H  H23  1  0.73496784  0.84873962  0.72896755  1.0
  H  H24  1  0.91643333  0.07447786  0.33368283  1.0
  H  H25  1  0.90907026  0.10633542  0.25951007  1.0
  H  H26  1  0.09183722  0.42553119  0.15804270  1.0
  H  H27  1  0.13416271  0.39368171  0.19724339  1.0
  H  H28  1  0.90816667  0.25011271  0.16630771  1.0
  H  H29  1  0.86584887  0.16858038  0.24048573  1.0
  H  H30  1  0.08359908  0.24989050  0.34192817  1.0
  H  H31  1  0.09095800  0.33142048  0.30271973  1.0
  H  H32  1  0.91641228  0.84193186  0.74990927  1.0
  H  H33  1  0.90905477  0.80271586  0.83144364  1.0
  H  H34  1  0.09184184  0.66631323  0.75007638  1.0
  H  H35  1  0.13415495  0.74048410  0.66853532  1.0
  H  H36  1  0.90816606  0.65804227  0.92554366  1.0
  H  H37  1  0.86584444  0.69724954  0.89369763  1.0
  H  H38  1  0.08358148  0.83370075  0.57444269  1.0
  H  H39  1  0.09093697  0.75952919  0.60628889  1.0
  C  C40  1  0.18202665  0.09100323  0.40899618  1.0
  C  C41  1  0.00000137  0.86052138  0.63947717  1.0
  C  C42  1  0.99998190  0.09037320  0.59038315  1.0
  C  C43  1  0.81798291  0.90898175  0.59102791  1.0
  C  C44  1  0.00001085  0.13948209  0.36051323  1.0
  C  C45  1  0.99999054  0.90960140  0.40963071  1.0
  C  C46  1  0.00002776  0.40903592  0.90893682  1.0
  C  C47  1  0.00000617  0.63948295  0.86051385  1.0
  C  C48  1  0.81924242  0.40961579  0.09038327  1.0
  C  C49  1  0.00000294  0.59102417  0.09099048  1.0
  C  C50  1  0.00000016  0.36052205  0.13947397  1.0
  C  C51  1  0.18076721  0.59039667  0.90960063  1.0
  C  C52  1  0.00000926  0.19543009  0.30456451  1.0
  C  C53  1  0.00000287  0.30457458  0.19542299  1.0
  C  C54  1  0.95682678  0.17939289  0.27633898  1.0
  C  C55  1  0.04427058  0.32061403  0.22256313  1.0
  C  C56  1  0.95574110  0.23316616  0.22364986  1.0
  C  C57  1  0.04319435  0.26684022  0.27741386  1.0
  C  C58  1  0.99999735  0.80456832  0.69542373  1.0
  C  C59  1  0.00000205  0.69542834  0.80456524  1.0
  C  C60  1  0.95681518  0.77741980  0.76684288  1.0
  C  C61  1  0.04426781  0.72365849  0.73314369  1.0
  C  C62  1  0.95573516  0.72256594  0.82061462  1.0
  C  C63  1  0.04318120  0.77634648  0.67937132  1.0
  C  C64  1  0.00002665  0.37145459  0.87137166  1.0
  C  C65  1  0.95626208  0.29969384  0.90822763  1.0
  C  C66  1  0.95710218  0.26590556  0.87250859  1.0
  C  C67  1  0.00000825  0.30033382  0.80027397  1.0
  C  C68  1  0.04293847  0.37255301  0.76582890  1.0
  C  C69  1  0.04378894  0.40828549  0.79960391  1.0
  C  C70  1  0.99997037  0.26501859  0.76496278  1.0
  C  C71  1  0.99992834  0.23436420  0.73429637  1.0
  C  C72  1  0.99991098  0.19904731  0.69899176  1.0
  C  C73  1  0.95788479  0.12658502  0.73366780  1.0
  C  C74  1  0.95723145  0.09081364  0.69993507  1.0
  C  C75  1  0.99995139  0.12793096  0.62792565  1.0
  C  C76  1  0.04264598  0.19993940  0.59078114  1.0
  C  C77  1  0.04194425  0.23369586  0.62652564  1.0
  C  C78  1  0.00000817  0.62860395  0.12855961  1.0
  C  C79  1  0.04377307  0.63552538  0.15655267  1.0
  C  C80  1  0.04291632  0.67038825  0.19119532  1.0
  C  C81  1  0.99999600  0.69968689  0.19968609  1.0
  C  C82  1  0.95708828  0.69121964  0.17037343  1.0
  C  C83  1  0.95624825  0.65660285  0.13548423  1.0
  C  C84  1  0.99996754  0.73496786  0.23503886  1.0
  C  C85  1  0.99994528  0.76559766  0.26572565  1.0
  C  C86  1  0.99993323  0.80089683  0.30105497  1.0
  C  C87  1  0.04196542  0.80826871  0.33147633  1.0
  C  C88  1  0.04266632  0.84271171  0.36653313  1.0
  C  C89  1  0.99996618  0.87201752  0.37210717  1.0
  C  C90  1  0.95724576  0.86642708  0.34282708  1.0
  C  C91  1  0.95790526  0.83132435  0.30842670  1.0
  C  C92  1  0.74413992  0.37205373  0.12796426  1.0
  C  C93  1  0.70927608  0.30004777  0.15727266  1.0
  C  C94  1  0.63977471  0.26628242  0.19174016  1.0
  C  C95  1  0.60196363  0.30092220  0.19914681  1.0
  C  C96  1  0.63974896  0.37338547  0.16869922  1.0
  C  C97  1  0.70925172  0.40916572  0.13356509  1.0
  C  C98  1  0.53134178  0.26561103  0.23446436  1.0
  C  C99  1  0.47001653  0.23497693  0.26507933  1.0
  C  C100  1  0.39938932  0.19967966  0.30034733  1.0
  C  C101  1  0.36160109  0.12746255  0.32963688  1.0
  C  C102  1  0.29209458  0.09173882  0.36450160  1.0
  C  C103  1  0.25717166  0.12857532  0.37142604  1.0
  C  C104  1  0.29209023  0.20033155  0.34344172  1.0
  C  C105  1  0.36159829  0.23411367  0.30881584  1.0
  C  C106  1  0.25587431  0.62797910  0.87204086  1.0
  C  C107  1  0.29075831  0.65729890  0.80002361  1.0
  C  C108  1  0.36025829  0.69176952  0.76627012  1.0
  C  C109  1  0.39804755  0.69915351  0.80093341  1.0
  C  C110  1  0.36024434  0.66870245  0.87340393  1.0
  C  C111  1  0.29074124  0.63356896  0.90917577  1.0
  C  C112  1  0.46867244  0.73447409  0.76562298  1.0
  C  C113  1  0.52999117  0.76507899  0.73499965  1.0
  C  C114  1  0.60062198  0.80034132  0.69970529  1.0
  C  C115  1  0.63842064  0.82963579  0.62747727  1.0
  C  C116  1  0.70792764  0.86449093  0.59175494  1.0
  C  C117  1  0.74283720  0.87140343  0.62860449  1.0
  C  C118  1  0.70791032  0.84340613  0.70037077  1.0
  C  C119  1  0.63840284  0.80879448  0.73415218  1.0
  N  N120  1  0.91209421  0.11209172  0.29880155  1.0
  N  N121  1  0.08911046  0.38791468  0.19999142  1.0
  N  N122  1  0.91089832  0.21089365  0.20119253  1.0
  N  N123  1  0.08793061  0.28911118  0.29997924  1.0
  N  N124  1  0.91207922  0.79998209  0.78912794  1.0
  N  N125  1  0.08910608  0.70119695  0.71085845  1.0
  N  N126  1  0.91089365  0.69998994  0.88792902  1.0
  N  N127  1  0.08791383  0.79881234  0.61205775  1.0
  O  O128  1  0.00000400  0.00000047  0.49999612  1.0
  O  O129  1  0.15307399  0.12675946  0.41596508  1.0
  O  O130  1  0.04369369  0.88810662  0.57567078  1.0
  O  O131  1  0.96242930  0.02440123  0.62748165  1.0
  O  O132  1  0.15307959  0.02629664  0.43097198  1.0
  O  O133  1  0.03756624  0.12746260  0.52440831  1.0
  O  O134  1  0.95630857  0.88062097  0.65559987  1.0
  O  O135  1  0.84692819  0.91593261  0.62679602  1.0
  O  O136  1  0.95632117  0.07568537  0.38809209  1.0
  O  O137  1  0.84693957  0.93098124  0.52630645  1.0
  O  O138  1  0.04370136  0.15559171  0.38061848  1.0
  O  O139  1  0.03756964  0.91009262  0.43801762  1.0
  O  O140  1  0.96244629  0.93803000  0.41008358  1.0
  O  O141  1  0.00000967  0.50000281  0.99998632  1.0
  O  O142  1  0.95730361  0.37327565  0.97365817  1.0
  O  O143  1  0.03623302  0.61191709  0.84438706  1.0
  O  O144  1  0.84811911  0.47558460  0.06197253  1.0
  O  O145  1  0.04274889  0.47374829  0.87316400  1.0
  O  O146  1  0.84812564  0.37253252  0.08989207  1.0
  O  O147  1  0.96378877  0.61937267  0.92432076  1.0
  O  O148  1  0.95727726  0.58406087  0.06900675  1.0
  O  O149  1  0.03621460  0.42431678  0.11937015  1.0
  O  O150  1  0.04272446  0.56903204  0.08402962  1.0
  O  O151  1  0.96378015  0.34441162  0.11189793  1.0
  O  O152  1  0.15189575  0.58991108  0.87250569  1.0
  O  O153  1  0.15188367  0.56197221  0.97558048  1.0
  F  F154  1  0.08486492  0.40760205  0.69650060  1.0
  F  F155  1  0.91517001  0.19658633  0.90758887  1.0
  F  F156  1  0.08315831  0.30319888  0.59122908  1.0
  F  F157  1  0.91666264  0.09132237  0.80317334  1.0
  F  F158  1  0.91515709  0.71860745  0.17725160  1.0
  F  F159  1  0.08483913  0.67724985  0.21859314  1.0
  F  F160  1  0.91668930  0.82538212  0.28014373  1.0
  F  F161  1  0.08318317  0.77998819  0.32552684  1.0
  F  F162  1  0.60550653  0.40864176  0.17465940  1.0
  F  F163  1  0.60556175  0.19677736  0.22002771  1.0
  F  F164  1  0.39585500  0.30343132  0.28143060  1.0
  F  F165  1  0.39586586  0.09240893  0.32276637  1.0
  F  F166  1  0.39446895  0.67465346  0.90867898  1.0
  F  F167  1  0.39448780  0.72006366  0.69675839  1.0
  F  F168  1  0.60413183  0.78139617  0.80348000  1.0
  F  F169  1  0.60416672  0.82277686  0.59241114  1.0
