# generated using pymatgen
data_Al3H25C42I6(N3O7)2
_symmetry_space_group_name_H-M   'P 1'
_cell_length_a   13.08867419
_cell_length_b   13.13808499
_cell_length_c   28.29284151
_cell_angle_alpha   89.86557938
_cell_angle_beta   89.78547803
_cell_angle_gamma   60.21035282
_symmetry_Int_Tables_number   1
_chemical_formula_structural   Al3H25C42I6(N3O7)2
_chemical_formula_sum   'Al6 H50 C84 I12 N12 O28'
_cell_volume   4222.29397506
_cell_formula_units_Z   2
loop_
 _symmetry_equiv_pos_site_id
 _symmetry_equiv_pos_as_xyz
  1  'x, y, z'
loop_
 _atom_site_type_symbol
 _atom_site_label
 _atom_site_symmetry_multiplicity
 _atom_site_fract_x
 _atom_site_fract_y
 _atom_site_fract_z
 _atom_site_occupancy
  Al  Al0  1  0.52254503  0.24766686  0.25242212  1.0
  Al  Al1  1  0.27720858  0.24983924  0.25211918  1.0
  Al  Al2  1  0.26929594  0.48130958  0.25263688  1.0
  Al  Al3  1  0.77799962  0.74298832  0.74788624  1.0
  Al  Al4  1  0.52929533  0.75142313  0.74930798  1.0
  Al  Al5  1  0.74729026  0.51586204  0.74999455  1.0
  H  H6  1  0.90500593  0.41123960  0.40391590  1.0
  H  H7  1  0.79849974  0.99019376  0.43660166  1.0
  H  H8  1  0.88432362  0.83383892  0.43244866  1.0
  H  H9  1  0.83121529  0.90296388  0.48844517  1.0
  H  H10  1  0.15539838  0.28601911  0.08146079  1.0
  H  H11  1  0.02480440  0.20801986  0.05279129  1.0
  H  H12  1  0.17837470  0.10439366  0.05965085  1.0
  H  H13  1  0.11881995  0.15874982  0.00255492  1.0
  H  H14  1  0.40407504  0.68859365  0.41350234  1.0
  H  H15  1  0.20253514  0.81532161  0.44204213  1.0
  H  H16  1  0.28146124  0.89368349  0.43725156  1.0
  H  H17  1  0.97982492  0.20840436  0.42936424  1.0
  H  H18  1  0.26310123  0.84207114  0.49331623  1.0
  H  H19  1  0.55737114  0.14595937  0.07916847  1.0
  H  H20  1  0.76402045  0.01955267  0.04920213  1.0
  H  H21  1  0.71460647  0.17274857  0.05601621  1.0
  H  H22  1  0.71841919  0.11322225  0.99904798  1.0
  H  H23  1  0.32071801  0.59476130  0.90229301  1.0
  H  H24  1  0.13469897  0.60562533  0.91662521  1.0
  H  H25  1  0.18368031  0.54739276  0.97442597  1.0
  H  H26  1  0.24985655  0.45737858  0.92406664  1.0
  H  H27  1  0.88559144  0.38467614  0.57608671  1.0
  H  H28  1  0.82265265  0.28609093  0.42632234  1.0
  H  H29  1  0.70996167  0.39837215  0.54508861  1.0
  H  H30  1  0.73175401  0.45603125  0.49140869  1.0
  H  H31  1  0.69756285  0.54008913  0.54419627  1.0
  H  H32  1  0.59437929  0.08090850  0.90822228  1.0
  H  H33  1  0.59960619  0.25745622  0.92346278  1.0
  H  H34  1  0.53861616  0.26499791  0.98070245  1.0
  H  H35  1  0.45145677  0.28681332  0.92963236  1.0
  H  H36  1  0.39104745  0.72160083  0.58612330  1.0
  H  H37  1  0.39985059  0.88613920  0.55475752  1.0
  H  H38  1  0.45693308  0.80835527  0.50079355  1.0
  H  H39  1  0.89546467  0.26372482  0.48190429  1.0
  H  H40  1  0.54271870  0.75903589  0.55320785  1.0
  H  H41  1  0.08073844  0.31660225  0.91130819  1.0
  H  H42  1  0.25930928  0.13696730  0.92469852  1.0
  H  H43  1  0.26936986  0.18735592  0.98204557  1.0
  H  H44  1  0.28793674  0.25579652  0.93105828  1.0
  H  H45  1  0.71466583  0.89216714  0.58250192  1.0
  H  H46  1  0.88036357  0.72008975  0.55356383  1.0
  H  H47  1  0.80830043  0.73764715  0.49830445  1.0
  H  H48  1  0.75454813  0.70150613  0.54979919  1.0
  H  H49  1  0.27715787  0.57055450  0.07314340  1.0
  H  H50  1  0.20616753  0.77366948  0.04121713  1.0
  H  H51  1  0.09791791  0.72875126  0.04762524  1.0
  H  H52  1  0.15941607  0.72675339  0.99108609  1.0
  H  H53  1  0.67981243  0.90524028  0.40981688  1.0
  H  H54  1  0.71370430  0.18434387  0.22497946  1.0
  H  H55  1  0.87977306  0.83478051  0.77625806  1.0
  C  C56  1  0.44663466  0.11410834  0.31721397  1.0
  C  C57  1  0.57661510  0.88309986  0.68397026  1.0
  C  C58  1  0.56124258  0.56395435  0.81267305  1.0
  C  C59  1  0.89311958  0.52850880  0.68325846  1.0
  C  C60  1  0.06039044  0.46466523  0.35781954  1.0
  C  C61  1  0.44955848  0.48019186  0.13634410  1.0
  C  C62  1  0.47605779  0.05439208  0.36182962  1.0
  C  C63  1  0.07990021  0.45718947  0.14177526  1.0
  C  C64  1  0.45666256  0.48679240  0.36478504  1.0
  C  C65  1  0.46645376  0.06773003  0.13924324  1.0
  C  C66  1  0.52567745  0.53703126  0.85670821  1.0
  C  C67  1  0.13448097  0.42784615  0.18714927  1.0
  C  C68  1  0.94888773  0.49393179  0.63771362  1.0
  C  C69  1  0.53773265  0.93903815  0.86025619  1.0
  C  C70  1  0.51336204  0.54655663  0.64376550  1.0
  C  C71  1  0.93944506  0.51248971  0.86337091  1.0
  C  C72  1  0.54190233  0.94936915  0.64097406  1.0
  C  C73  1  0.95027410  0.43478255  0.46864318  1.0
  C  C74  1  0.37881532  0.54399339  0.01657425  1.0
  C  C75  1  0.60724583  0.95293032  0.47392974  1.0
  C  C76  1  0.07624990  0.38278073  0.02441805  1.0
  C  C77  1  0.42903148  0.61601481  0.47753603  1.0
  C  C78  1  0.43766874  0.45173860  0.31903503  1.0
  C  C79  1  0.53674439  0.07058338  0.02160722  1.0
  C  C80  1  0.39161290  0.54642207  0.96657862  1.0
  C  C81  1  0.94040754  0.43313659  0.51886443  1.0
  C  C82  1  0.54266766  0.05628338  0.97161973  1.0
  C  C83  1  0.43171611  0.62368383  0.52778184  1.0
  C  C84  1  0.05900309  0.39163770  0.97454835  1.0
  C  C85  1  0.61595720  0.94536724  0.52420765  1.0
  C  C86  1  0.07195020  0.51833560  0.52691597  1.0
  C  C87  1  0.60787309  0.45999028  0.97691008  1.0
  C  C88  1  0.39959215  0.08077971  0.53049305  1.0
  C  C89  1  0.44801233  0.12028495  0.18505663  1.0
  C  C90  1  0.92548614  0.60680713  0.98286385  1.0
  C  C91  1  0.50861243  0.40863277  0.53387268  1.0
  C  C92  1  0.45794883  0.92419165  0.97955981  1.0
  C  C93  1  0.59599518  0.45185848  0.02532671  1.0
  C  C94  1  0.07351353  0.52915994  0.47822205  1.0
  C  C95  1  0.44735502  0.94227384  0.02805281  1.0
  C  C96  1  0.51309920  0.40008019  0.48497726  1.0
  C  C97  1  0.94792691  0.59927632  0.03103209  1.0
  C  C98  1  0.38991951  0.08017387  0.48177670  1.0
  C  C99  1  0.01533843  0.48530874  0.44899586  1.0
  C  C100  1  0.12550515  0.43692189  0.31461356  1.0
  C  C101  1  0.48196199  0.49293556  0.04517675  1.0
  C  C102  1  0.49326752  0.01762588  0.45348322  1.0
  C  C103  1  0.02403533  0.48796964  0.05177644  1.0
  C  C104  1  0.47370816  0.50310007  0.45680478  1.0
  C  C105  1  0.48505523  0.01635336  0.04896050  1.0
  C  C106  1  0.50613308  0.50719793  0.94759662  1.0
  C  C107  1  0.00230949  0.47369559  0.54728600  1.0
  C  C108  1  0.50542230  0.98094727  0.95146342  1.0
  C  C109  1  0.47266571  0.51946758  0.55524297  1.0
  C  C110  1  0.98178225  0.50351320  0.95461158  1.0
  C  C111  1  0.43040152  0.45578807  0.18406908  1.0
  C  C112  1  0.51170216  0.01001818  0.55169031  1.0
  C  C113  1  0.98052554  0.48178686  0.59640334  1.0
  C  C114  1  0.51777265  0.51953939  0.89871422  1.0
  C  C115  1  0.52184414  0.98701997  0.60055565  1.0
  C  C116  1  0.96021486  0.51035449  0.90557777  1.0
  C  C117  1  0.49168273  0.52825714  0.60367084  1.0
  C  C118  1  0.51916414  0.96058920  0.90240876  1.0
  C  C119  1  0.46749519  0.48646670  0.09429944  1.0
  C  C120  1  0.03514064  0.47774782  0.39991580  1.0
  C  C121  1  0.47418529  0.03835127  0.09788132  1.0
  C  C122  1  0.56720515  0.88261163  0.81486438  1.0
  C  C123  1  0.46698019  0.49511291  0.40734414  1.0
  C  C124  1  0.04924002  0.47695170  0.10043542  1.0
  C  C125  1  0.48466901  0.03298955  0.40415665  1.0
  C  C126  1  0.89881672  0.28174231  0.44435469  1.0
  C  C127  1  0.17840303  0.71154926  0.02891123  1.0
  C  C128  1  0.81035252  0.90682262  0.45084993  1.0
  C  C129  1  0.11425949  0.18175781  0.03997311  1.0
  C  C130  1  0.27797344  0.82180016  0.45560548  1.0
  C  C131  1  0.70078473  0.10851398  0.03661128  1.0
  C  C132  1  0.21180298  0.54749641  0.93795991  1.0
  C  C133  1  0.55071536  0.57624549  0.68633590  1.0
  C  C134  1  0.74596750  0.45036936  0.52966955  1.0
  C  C135  1  0.54134918  0.23663989  0.94414661  1.0
  C  C136  1  0.45243606  0.79906925  0.53908937  1.0
  C  C137  1  0.23890159  0.21469485  0.94581648  1.0
  C  C138  1  0.79486799  0.75248082  0.53644071  1.0
  C  C139  1  0.88754428  0.54438663  0.81709894  1.0
  I  I140  1  0.16206518  0.57105440  0.57277619  1.0
  I  I141  1  0.56855540  0.24143822  0.44978935  1.0
  I  I142  1  0.86408986  0.74442722  0.07634170  1.0
  I  I143  1  0.22889917  0.17722415  0.44711135  1.0
  I  I144  1  0.77052233  0.40455275  0.94413857  1.0
  I  I145  1  0.25545735  0.17578861  0.57547747  1.0
  I  I146  1  0.81210915  0.76494096  0.94904723  1.0
  I  I147  1  0.55923330  0.26425226  0.57862095  1.0
  I  I148  1  0.40364021  0.81845846  0.94518978  1.0
  I  I149  1  0.73911269  0.39259185  0.07176556  1.0
  I  I150  1  0.16611201  0.60035417  0.44455040  1.0
  I  I151  1  0.38925455  0.85456380  0.07336574  1.0
  N  N152  1  0.89674144  0.39352359  0.43835859  1.0
  N  N153  1  0.39680144  0.72916987  0.55048879  1.0
  N  N154  1  0.11162767  0.29487302  0.94499467  1.0
  N  N155  1  0.72216278  0.87748976  0.54695587  1.0
  N  N156  1  0.26910496  0.58929497  0.03788274  1.0
  N  N157  1  0.70413282  0.89755663  0.44442564  1.0
  N  N158  1  0.14303660  0.27549360  0.04664235  1.0
  N  N159  1  0.38930526  0.71260986  0.44819110  1.0
  N  N160  1  0.57850601  0.13633774  0.04409584  1.0
  N  N161  1  0.29655333  0.58944398  0.93610656  1.0
  N  N162  1  0.87172651  0.39316969  0.54050346  1.0
  N  N163  1  0.58648433  0.11007461  0.94213699  1.0
  O  O164  1  0.51015962  0.34844194  0.30620895  1.0
  O  O165  1  0.88136378  0.62134625  0.70139690  1.0
  O  O166  1  0.49189046  0.85431492  0.79922086  1.0
  O  O167  1  0.64467196  0.49827511  0.70637175  1.0
  O  O168  1  0.52131160  0.13491787  0.29766733  1.0
  O  O169  1  0.17154965  0.32225775  0.20130395  1.0
  O  O170  1  0.34575262  0.52684899  0.29585964  1.0
  O  O171  1  0.51580920  0.15866204  0.19679665  1.0
  O  O172  1  0.14976429  0.34114204  0.29360042  1.0
  O  O173  1  0.32811482  0.52692709  0.20188605  1.0
  O  O174  1  0.66280828  0.86073695  0.79529853  1.0
  O  O175  1  0.36106223  0.12802667  0.20963916  1.0
  O  O176  1  0.48800293  0.68331405  0.70013465  1.0
  O  O177  1  0.86789842  0.47037105  0.79476414  1.0
  O  O178  1  0.68449925  0.83625948  0.69464620  1.0
  O  O179  1  0.49190751  0.66107221  0.79232842  1.0
  O  O180  1  0.85496644  0.46231419  0.70089340  1.0
  O  O181  1  0.35518803  0.32721691  0.25214322  1.0
  O  O182  1  0.68420245  0.66949868  0.74940926  1.0
  O  O183  1  0.16020841  0.50834343  0.30139932  1.0
  O  O184  1  0.51160219  0.36592823  0.20400315  1.0
  O  O185  1  0.34175676  0.14628822  0.30215895  1.0
  O  O186  1  0.14740283  0.50552019  0.20923911  1.0
  O  O187  1  0.86152183  0.64587283  0.80315035  1.0
  O  O188  1  0.49690978  0.87286178  0.70698244  1.0
  O  O189  1  0.66491662  0.48882368  0.79828586  1.0
  O  O190  1  0.67658014  0.17455773  0.25287489  1.0
  O  O191  1  0.86557439  0.80913830  0.74623379  1.0
