# generated using pymatgen
data_Zn4H6C32O19
_symmetry_space_group_name_H-M   'P 1'
_cell_length_a   19.66382583
_cell_length_b   19.66235623
_cell_length_c   22.87152427
_cell_angle_alpha   64.58084502
_cell_angle_beta   64.58102241
_cell_angle_gamma   90.01115313
_symmetry_Int_Tables_number   1
_chemical_formula_structural   Zn4H6C32O19
_chemical_formula_sum   'Zn8 H12 C64 O38'
_cell_volume   7026.92465376
_cell_formula_units_Z   2
loop_
 _symmetry_equiv_pos_site_id
 _symmetry_equiv_pos_as_xyz
  1  'x, y, z'
loop_
 _atom_site_type_symbol
 _atom_site_label
 _atom_site_symmetry_multiplicity
 _atom_site_fract_x
 _atom_site_fract_y
 _atom_site_fract_z
 _atom_site_occupancy
  Zn  Zn0  1  0.28125589  0.86320809  0.43738348  1.0
  Zn  Zn1  1  0.69898619  0.28111576  0.43768053  1.0
  Zn  Zn2  1  0.28115640  0.69895073  0.43766545  1.0
  Zn  Zn3  1  0.71884267  0.30104919  0.56233458  1.0
  Zn  Zn4  1  0.30101377  0.71888737  0.56231859  1.0
  Zn  Zn5  1  0.71874558  0.13679228  0.56261724  1.0
  Zn  Zn6  1  0.13674623  0.71873990  0.56267063  1.0
  Zn  Zn7  1  0.86325330  0.28125811  0.43732899  1.0
  H  H8  1  0.34858089  0.91429170  0.00060209  1.0
  H  H9  1  0.64875645  0.91078988  0.00068111  1.0
  H  H10  1  0.91081252  0.64877261  0.00071033  1.0
  H  H11  1  0.08919023  0.35122747  0.99929011  1.0
  H  H12  1  0.35124184  0.08920981  0.99931914  1.0
  H  H13  1  0.49768302  0.82591158  0.00055128  1.0
  H  H14  1  0.50231898  0.17408731  0.99944977  1.0
  H  H15  1  0.17405846  0.50230072  0.99946335  1.0
  H  H16  1  0.65141587  0.08570634  0.99940038  1.0
  H  H17  1  0.82594120  0.49769675  0.00053739  1.0
  H  H18  1  0.08571700  0.65138617  0.99944018  1.0
  H  H19  1  0.91428120  0.34861309  0.00055934  1.0
  C  C20  1  0.15156631  0.65088021  0.69825423  1.0
  C  C21  1  0.51228298  0.94834690  0.97381383  1.0
  C  C22  1  0.88804260  0.38880486  0.22254075  1.0
  C  C23  1  0.38871006  0.88806622  0.22258004  1.0
  C  C24  1  0.61128635  0.11193225  0.77742084  1.0
  C  C25  1  0.11195565  0.61119344  0.77745915  1.0
  C  C26  1  0.35576959  0.90895886  0.04831301  1.0
  C  C27  1  0.64422912  0.09103943  0.95168921  1.0
  C  C28  1  0.09104122  0.64421520  0.95172244  1.0
  C  C29  1  0.90895848  0.35578387  0.04827727  1.0
  C  C30  1  0.94836637  0.51234251  0.97377591  1.0
  C  C31  1  0.40568490  0.09382280  0.95164514  1.0
  C  C32  1  0.59431388  0.90617636  0.04835506  1.0
  C  C33  1  0.90617993  0.59430422  0.04836554  1.0
  C  C34  1  0.09381965  0.40569517  0.95163443  1.0
  C  C35  1  0.05163254  0.48765611  0.02622541  1.0
  C  C36  1  0.52203620  0.88571275  0.95262085  1.0
  C  C37  1  0.47796061  0.11428455  0.04738062  1.0
  C  C38  1  0.11427377  0.47788790  0.04742567  1.0
  C  C39  1  0.88572541  0.52211009  0.95257512  1.0
  C  C40  1  0.48771588  0.05165268  0.02618711  1.0
  C  C41  1  0.46116863  0.96153900  0.07775179  1.0
  C  C42  1  0.53883081  0.03846071  0.92224844  1.0
  C  C43  1  0.03848658  0.53881983  0.92226723  1.0
  C  C44  1  0.84843102  0.34911818  0.30174616  1.0
  C  C45  1  0.96151264  0.46117977  0.07773253  1.0
  C  C46  1  0.42214538  0.92184213  0.15575125  1.0
  C  C47  1  0.57785449  0.07815801  0.84424855  1.0
  C  C48  1  0.07820481  0.57778147  0.84428791  1.0
  C  C49  1  0.92179494  0.42221664  0.15571218  1.0
  C  C50  1  0.34907729  0.84841437  0.30178302  1.0
  C  C51  1  0.06808995  0.56823821  0.50015500  1.0
  C  C52  1  0.93191297  0.43175869  0.49984283  1.0
  C  C53  1  0.43176449  0.93192252  0.49983882  1.0
  C  C54  1  0.56823303  0.06808330  0.50016570  1.0
  C  C55  1  0.65092241  0.15158471  0.69821669  1.0
  C  C56  1  0.02421491  0.52426766  0.50005117  1.0
  C  C57  1  0.97578658  0.47573008  0.49994583  1.0
  C  C58  1  0.47573970  0.97579107  0.49994340  1.0
  C  C59  1  0.52426082  0.02421225  0.50006015  1.0
  C  C60  1  0.43170082  0.56812981  0.50013523  1.0
  C  C61  1  0.56829987  0.43186989  0.49986848  1.0
  C  C62  1  0.47573166  0.52423298  0.50001732  1.0
  C  C63  1  0.52426623  0.47576538  0.49998889  1.0
  C  C64  1  0.38001210  0.88009444  0.49977867  1.0
  C  C65  1  0.61998694  0.11990834  0.50022370  1.0
  C  C66  1  0.11992494  0.61998450  0.50020959  1.0
  C  C67  1  0.88007385  0.38001231  0.49979064  1.0
  C  C68  1  0.37995288  0.61999060  0.50005382  1.0
  C  C69  1  0.62004462  0.38001098  0.49994801  1.0
  C  C70  1  0.12011368  0.87996657  0.49993877  1.0
  C  C71  1  0.87988475  0.12003258  0.50006260  1.0
  C  C72  1  0.06830495  0.93182211  0.49986084  1.0
  C  C73  1  0.93169367  0.06817576  0.50014064  1.0
  C  C74  1  0.02427081  0.97573623  0.49998519  1.0
  C  C75  1  0.97572772  0.02426122  0.50001556  1.0
  C  C76  1  0.45787844  0.04613243  0.97348458  1.0
  C  C77  1  0.54212069  0.95386652  0.02651583  1.0
  C  C78  1  0.95390690  0.54215379  0.02649129  1.0
  C  C79  1  0.04609390  0.45784392  0.97350805  1.0
  C  C80  1  0.43058834  0.95519339  0.02652884  1.0
  C  C81  1  0.56940969  0.04480458  0.97347197  1.0
  C  C82  1  0.04483626  0.56938127  0.97350655  1.0
  C  C83  1  0.95516296  0.43061833  0.02649321  1.0
  O  O84  1  0.24998336  0.74996951  0.50000390  1.0
  O  O85  1  0.89130591  0.33371722  0.33257670  1.0
  O  O86  1  0.33362899  0.89124983  0.33264685  1.0
  O  O87  1  0.66637236  0.10874852  0.66735416  1.0
  O  O88  1  0.36801583  0.80843225  0.54328543  1.0
  O  O89  1  0.63198609  0.19157069  0.45671620  1.0
  O  O90  1  0.19157824  0.63199826  0.45668957  1.0
  O  O91  1  0.80842286  0.36800020  0.54330960  1.0
  O  O92  1  0.75001573  0.25003041  0.49999612  1.0
  O  O93  1  0.36816215  0.64849533  0.54330288  1.0
  O  O94  1  0.63183508  0.35150476  0.45669813  1.0
  O  O95  1  0.35153476  0.63180218  0.45673604  1.0
  O  O96  1  0.64846572  0.36819742  0.54326719  1.0
  O  O97  1  0.08873837  0.80833386  0.54379509  1.0
  O  O98  1  0.91126205  0.19166480  0.45620503  1.0
  O  O99  1  0.19174379  0.91131388  0.45614458  1.0
  O  O100  1  0.80825683  0.08868510  0.54385464  1.0
  O  O101  1  0.35180884  0.91142892  0.45625375  1.0
  O  O102  1  0.64819285  0.08857157  0.54374744  1.0
  O  O103  1  0.08859758  0.64817942  0.54374820  1.0
  O  O104  1  0.91140268  0.35181999  0.45624943  1.0
  O  O105  1  0.22522644  0.66642668  0.66734039  1.0
  O  O106  1  0.77477321  0.33357336  0.33265894  1.0
  O  O107  1  0.33363429  0.77474118  0.33266032  1.0
  O  O108  1  0.66636546  0.22525693  0.66733977  1.0
  O  O109  1  0.10869290  0.66628120  0.66742251  1.0
  O  O110  1  0.30590625  0.86880214  0.11163755  1.0
  O  O111  1  0.69409294  0.13119563  0.88836462  1.0
  O  O112  1  0.13111807  0.69411734  0.88839832  1.0
  O  O113  1  0.86888455  0.30588093  0.11160103  1.0
  O  O114  1  0.41932726  0.13433029  0.88829719  1.0
  O  O115  1  0.58067254  0.86566921  0.11170325  1.0
  O  O116  1  0.86559587  0.58055957  0.11173519  1.0
  O  O117  1  0.13440194  0.41943829  0.88826515  1.0
  O  O118  1  0.55346364  0.89696425  0.88938026  1.0
  O  O119  1  0.44652549  0.10303271  0.11062156  1.0
  O  O120  1  0.10307636  0.44646614  0.11064540  1.0
  O  O121  1  0.89692282  0.55353185  0.88935539  1.0
