# generated using pymatgen
data_ZnH18C18N4O5
_symmetry_space_group_name_H-M   'P 1'
_cell_length_a   5.36116814
_cell_length_b   18.03543023
_cell_length_c   21.68905504
_cell_angle_alpha   90.00016299
_cell_angle_beta   89.99938398
_cell_angle_gamma   89.99988177
_symmetry_Int_Tables_number   1
_chemical_formula_structural   ZnH18C18N4O5
_chemical_formula_sum   'Zn4 H72 C72 N16 O20'
_cell_volume   2097.13585553
_cell_formula_units_Z   4
loop_
 _symmetry_equiv_pos_site_id
 _symmetry_equiv_pos_as_xyz
  1  'x, y, z'
loop_
 _atom_site_type_symbol
 _atom_site_label
 _atom_site_symmetry_multiplicity
 _atom_site_fract_x
 _atom_site_fract_y
 _atom_site_fract_z
 _atom_site_occupancy
  Zn  Zn0  1  0.81413536  0.83136150  0.70538164  1.0
  Zn  Zn1  1  0.81412010  0.16863915  0.29462253  1.0
  Zn  Zn2  1  0.18587942  0.66863566  0.20537796  1.0
  Zn  Zn3  1  0.18587003  0.33136222  0.79462038  1.0
  H  H4  1  0.24356685  0.91355376  0.64833754  1.0
  H  H5  1  0.24352873  0.08644240  0.35166389  1.0
  H  H6  1  0.75644686  0.58644930  0.14833041  1.0
  H  H7  1  0.75644941  0.41355694  0.85166422  1.0
  H  H8  1  0.52781860  0.89757493  0.55829360  1.0
  H  H9  1  0.52780233  0.10241433  0.44170298  1.0
  H  H10  1  0.47220305  0.60243392  0.05828767  1.0
  H  H11  1  0.47217907  0.39757978  0.94170397  1.0
  H  H12  1  0.82171103  0.73085415  0.59822885  1.0
  H  H13  1  0.82172769  0.26915038  0.40177392  1.0
  H  H14  1  0.17830129  0.76914875  0.09823095  1.0
  H  H15  1  0.17826490  0.23085247  0.90177063  1.0
  H  H16  1  0.08361848  0.70662368  0.50653786  1.0
  H  H17  1  0.08364568  0.29337651  0.49346211  1.0
  H  H18  1  0.91641305  0.79338556  0.00654051  1.0
  H  H19  1  0.91634448  0.20662332  0.99345788  1.0
  H  H20  1  0.63582164  0.83294860  0.46404493  1.0
  H  H21  1  0.63582683  0.16704334  0.53594908  1.0
  H  H22  1  0.36421275  0.66705778  0.96403780  1.0
  H  H23  1  0.36414368  0.33295104  0.03594903  1.0
  H  H24  1  0.38409918  0.68001249  0.44832515  1.0
  H  H25  1  0.38410864  0.31997745  0.55167593  1.0
  H  H26  1  0.61592103  0.81999993  0.94832837  1.0
  H  H27  1  0.61589471  0.18001864  0.05167398  1.0
  H  H28  1  0.94104952  0.80448216  0.40285698  1.0
  H  H29  1  0.94106106  0.19550340  0.59714596  1.0
  H  H30  1  0.05901012  0.69552233  0.90285989  1.0
  H  H31  1  0.05892710  0.30448509  0.09714199  1.0
  H  H32  1  0.19452972  0.77679960  0.31049423  1.0
  H  H33  1  0.19452006  0.22319328  0.68951009  1.0
  H  H34  1  0.80550253  0.72319681  0.81049952  1.0
  H  H35  1  0.80546193  0.27680273  0.18950790  1.0
  H  H36  1  0.47579233  0.61646958  0.35457214  1.0
  H  H37  1  0.47578225  0.38351917  0.64542179  1.0
  H  H38  1  0.52421175  0.88354196  0.85456744  1.0
  H  H39  1  0.52420926  0.11647780  0.14542684  1.0
  H  H40  1  0.75063385  0.59671430  0.26371075  1.0
  H  H41  1  0.75062317  0.40328252  0.73628298  1.0
  H  H42  1  0.24935769  0.90329083  0.76371046  1.0
  H  H43  1  0.24936968  0.09671809  0.23628819  1.0
  H  H44  1  0.80974013  0.10314379  0.71350977  1.0
  H  H45  1  0.80974113  0.89685465  0.28649717  1.0
  H  H46  1  0.19025380  0.39685120  0.21350708  1.0
  H  H47  1  0.19025494  0.60314280  0.78648987  1.0
  H  H48  1  0.43470793  0.03794689  0.80415818  1.0
  H  H49  1  0.43469986  0.96204356  0.19584738  1.0
  H  H50  1  0.56528363  0.46204841  0.30415702  1.0
  H  H51  1  0.56527806  0.53794969  0.69583669  1.0
  H  H52  1  0.76034373  0.03109636  0.81819296  1.0
  H  H53  1  0.76033443  0.96890156  0.18181134  1.0
  H  H54  1  0.23964716  0.46890398  0.31819032  1.0
  H  H55  1  0.23963482  0.53110162  0.68180374  1.0
  H  H56  1  0.80444970  0.16872876  0.81074876  1.0
  H  H57  1  0.80448348  0.83126913  0.18925958  1.0
  H  H58  1  0.19550983  0.33127100  0.31075051  1.0
  H  H59  1  0.19553205  0.66873352  0.68925288  1.0
  H  H60  1  0.61943266  0.13856665  0.87271062  1.0
  H  H61  1  0.61945803  0.86142641  0.12729818  1.0
  H  H62  1  0.38054076  0.36143499  0.37271106  1.0
  H  H63  1  0.38055853  0.63857381  0.62728956  1.0
  H  H64  1  0.28109250  0.05514849  0.70772404  1.0
  H  H65  1  0.28108186  0.94485430  0.29227914  1.0
  H  H66  1  0.71890915  0.44484925  0.20772246  1.0
  H  H67  1  0.71890461  0.55515093  0.79227226  1.0
  H  H68  1  0.24977467  0.05808966  0.54907125  1.0
  H  H69  1  0.24976595  0.94190705  0.45093569  1.0
  H  H70  1  0.75023439  0.44190587  0.04906913  1.0
  H  H71  1  0.75024854  0.55810204  0.95092368  1.0
  H  H72  1  0.07201335  0.06036260  0.61533992  1.0
  H  H73  1  0.07199841  0.93963427  0.38466516  1.0
  H  H74  1  0.92799262  0.43963149  0.11533781  1.0
  H  H75  1  0.92798933  0.56037349  0.88465455  1.0
  C  C76  1  0.21621172  0.86871032  0.61547117  1.0
  C  C77  1  0.21618868  0.13128476  0.38453078  1.0
  C  C78  1  0.78380539  0.63129208  0.11546593  1.0
  C  C79  1  0.78378792  0.36871192  0.88452956  1.0
  C  C80  1  0.37310223  0.85911627  0.56514466  1.0
  C  C81  1  0.37308613  0.14087646  0.43485322  1.0
  C  C82  1  0.62691723  0.64089372  0.06513706  1.0
  C  C83  1  0.62689372  0.35911929  0.93485512  1.0
  C  C84  1  0.98057025  0.76621002  0.58754958  1.0
  C  C85  1  0.98057908  0.23379159  0.41245326  1.0
  C  C86  1  0.01945004  0.73379450  0.08755107  1.0
  C  C87  1  0.01940927  0.26621018  0.91245137  1.0
  C  C88  1  0.13007397  0.75271964  0.53683055  1.0
  C  C89  1  0.13007853  0.24727718  0.46317115  1.0
  C  C90  1  0.86995427  0.74728914  0.03683045  1.0
  C  C91  1  0.86989814  0.25272033  0.96316759  1.0
  C  C92  1  0.33628482  0.79899068  0.52494003  1.0
  C  C93  1  0.33627780  0.20100319  0.47505933  1.0
  C  C94  1  0.66374212  0.70101529  0.02493663  1.0
  C  C95  1  0.66369830  0.29899381  0.97505731  1.0
  C  C96  1  0.50911777  0.78696197  0.47414644  1.0
  C  C97  1  0.50912512  0.21303008  0.52585018  1.0
  C  C98  1  0.49090497  0.71304721  0.97414234  1.0
  C  C99  1  0.49085892  0.28696315  0.02584787  1.0
  C  C100  1  0.51608360  0.72495728  0.43922967  1.0
  C  C101  1  0.51609095  0.27503033  0.56077109  1.0
  C  C102  1  0.48394823  0.77505233  0.93922758  1.0
  C  C103  1  0.48389892  0.22496026  0.06076911  1.0
  C  C104  1  0.68278918  0.71242955  0.38734982  1.0
  C  C105  1  0.68279778  0.28755735  0.61264868  1.0
  C  C106  1  0.31724321  0.78757988  0.88734955  1.0
  C  C107  1  0.31718780  0.21243674  0.11264800  1.0
  C  C108  1  0.89104252  0.75737153  0.37401248  1.0
  C  C109  1  0.89104508  0.24261519  0.62598781  1.0
  C  C110  1  0.10898489  0.74263508  0.87401631  1.0
  C  C111  1  0.10893987  0.25737728  0.12598730  1.0
  C  C112  1  0.03514074  0.74217951  0.32249444  1.0
  C  C113  1  0.03513337  0.25781352  0.67750796  1.0
  C  C114  1  0.96488349  0.75782028  0.82249712  1.0
  C  C115  1  0.96484731  0.24218079  0.17750714  1.0
  C  C116  1  0.63502452  0.65303031  0.34710601  1.0
  C  C117  1  0.63502356  0.34695719  0.65289076  1.0
  C  C118  1  0.36498363  0.84697898  0.84710715  1.0
  C  C119  1  0.36496760  0.15303759  0.15289259  1.0
  C  C120  1  0.78603014  0.64159323  0.29609345  1.0
  C  C121  1  0.78601369  0.35840024  0.70390387  1.0
  C  C122  1  0.21397853  0.85840980  0.79609452  1.0
  C  C123  1  0.21398068  0.14159749  0.20390651  1.0
  C  C124  1  0.79198673  0.98538779  0.71281417  1.0
  C  C125  1  0.79199293  0.01461510  0.28718775  1.0
  C  C126  1  0.20800905  0.51460884  0.21281330  1.0
  C  C127  1  0.20801434  0.48538680  0.78717992  1.0
  C  C128  1  0.67007075  0.06074455  0.72505351  1.0
  C  C129  1  0.67008332  0.93925678  0.27494918  1.0
  C  C130  1  0.32992263  0.43925159  0.22505195  1.0
  C  C131  1  0.32992634  0.56074561  0.77494557  1.0
  C  C132  1  0.61611445  0.06428661  0.79491324  1.0
  C  C133  1  0.61611538  0.93570922  0.20509188  1.0
  C  C134  1  0.38387380  0.43571143  0.29490969  1.0
  C  C135  1  0.38387703  0.56428905  0.70508493  1.0
  C  C136  1  0.62598279  0.14224155  0.82187715  1.0
  C  C137  1  0.62600206  0.85775151  0.17813072  1.0
  C  C138  1  0.37398555  0.35775492  0.32187898  1.0
  C  C139  1  0.37400653  0.64224778  0.67812213  1.0
  C  C140  1  0.41211555  0.19271448  0.80384902  1.0
  C  C141  1  0.41213976  0.80727488  0.19615752  1.0
  C  C142  1  0.58784804  0.30727860  0.30385297  1.0
  C  C143  1  0.58787918  0.69271837  0.69615544  1.0
  C  C144  1  0.46284396  0.06795417  0.62595125  1.0
  C  C145  1  0.46284073  0.93204956  0.37405425  1.0
  C  C146  1  0.53714846  0.43204495  0.12594548  1.0
  C  C147  1  0.53716429  0.56795705  0.87404646  1.0
  N  N148  1  0.02343266  0.82279913  0.62689417  1.0
  N  N149  1  0.02342117  0.17720001  0.37310872  1.0
  N  N150  1  0.97658205  0.67720276  0.12689086  1.0
  N  N151  1  0.97656343  0.32279941  0.87310599  1.0
  N  N152  1  0.98410844  0.68527325  0.28383961  1.0
  N  N153  1  0.98409905  0.31472392  0.71615907  1.0
  N  N154  1  0.01590080  0.81472640  0.78384245  1.0
  N  N155  1  0.01589288  0.18527274  0.21616138  1.0
  N  N156  1  0.44626960  0.07284799  0.68867784  1.0
  N  N157  1  0.44626187  0.92715188  0.31132723  1.0
  N  N158  1  0.55374040  0.42714692  0.18867433  1.0
  N  N159  1  0.55373117  0.57284898  0.81132034  1.0
  N  N160  1  0.24014882  0.06970078  0.59461913  1.0
  N  N161  1  0.24013668  0.93029761  0.40538553  1.0
  N  N162  1  0.75986371  0.43029436  0.09461880  1.0
  N  N163  1  0.75986316  0.56971189  0.90537490  1.0
  O  O164  1  0.64370023  0.92929825  0.70813635  1.0
  O  O165  1  0.64369108  0.07070144  0.29186640  1.0
  O  O166  1  0.35630882  0.57069670  0.20813524  1.0
  O  O167  1  0.35630478  0.42929825  0.79186268  1.0
  O  O168  1  0.02569107  0.98122743  0.71216132  1.0
  O  O169  1  0.02570096  0.01877004  0.28783603  1.0
  O  O170  1  0.97431220  0.51876865  0.21215627  1.0
  O  O171  1  0.97431188  0.48122521  0.78783644  1.0
  O  O172  1  0.46839980  0.26312531  0.80324735  1.0
  O  O173  1  0.46844105  0.73686678  0.19675721  1.0
  O  O174  1  0.53155635  0.23687221  0.30324759  1.0
  O  O175  1  0.53158533  0.76312759  0.69675774  1.0
  O  O176  1  0.19908950  0.16760454  0.79340758  1.0
  O  O177  1  0.19910194  0.83238612  0.20659903  1.0
  O  O178  1  0.80089509  0.33239017  0.29341245  1.0
  O  O179  1  0.80090531  0.66760661  0.70659313  1.0
  O  O180  1  0.66800700  0.06559257  0.59793410  1.0
  O  O181  1  0.66800618  0.93440710  0.40206997  1.0
  O  O182  1  0.33199979  0.43440590  0.09793299  1.0
  O  O183  1  0.33200500  0.56559795  0.90206361  1.0
