# generated using pymatgen
data_Zn2H12C42N2Cl(O4F5)2
_symmetry_space_group_name_H-M   'P 1'
_cell_length_a   16.50108660
_cell_length_b   17.89841382
_cell_length_c   28.91372044
_cell_angle_alpha   90.29374694
_cell_angle_beta   89.88192106
_cell_angle_gamma   89.96248270
_symmetry_Int_Tables_number   1
_chemical_formula_structural   Zn2H12C42N2Cl(O4F5)2
_chemical_formula_sum   'Zn4 H24 C84 N4 Cl2 O16 F20'
_cell_volume   8539.34067658
_cell_formula_units_Z   2
loop_
 _symmetry_equiv_pos_site_id
 _symmetry_equiv_pos_as_xyz
  1  'x, y, z'
loop_
 _atom_site_type_symbol
 _atom_site_label
 _atom_site_symmetry_multiplicity
 _atom_site_fract_x
 _atom_site_fract_y
 _atom_site_fract_z
 _atom_site_occupancy
  Zn  Zn0  1  0.58310350  0.50126222  0.49878034  1.0
  Zn  Zn1  1  0.41600980  0.49988948  0.49950597  1.0
  Zn  Zn2  1  0.41605009  0.50190891  0.88018482  1.0
  Zn  Zn3  1  0.58316938  0.50338728  0.88047733  1.0
  H  H4  1  0.28747588  0.57960378  0.55332146  1.0
  H  H5  1  0.28681405  0.41844389  0.44854755  1.0
  H  H6  1  0.71119149  0.57869558  0.55346147  1.0
  H  H7  1  0.71294114  0.42100143  0.44678255  1.0
  H  H8  1  0.62807723  0.73663000  0.49650304  1.0
  H  H9  1  0.36645820  0.73985466  0.50254590  1.0
  H  H10  1  0.63128588  0.26324754  0.50451914  1.0
  H  H11  1  0.36961529  0.26148886  0.49866579  1.0
  H  H12  1  0.59685880  0.39711067  0.77577497  1.0
  H  H13  1  0.67717740  0.30400194  0.73247041  1.0
  H  H14  1  0.59696910  0.39636516  0.60321614  1.0
  H  H15  1  0.67723314  0.30363359  0.64608639  1.0
  H  H16  1  0.37030945  0.50518720  0.02774739  1.0
  H  H17  1  0.63200730  0.49685522  0.02732786  1.0
  H  H18  1  0.37073946  0.50279155  0.35209793  1.0
  H  H19  1  0.63244551  0.49485794  0.35168924  1.0
  H  H20  1  0.71172325  0.58084371  0.82610244  1.0
  H  H21  1  0.71262128  0.42387473  0.93221257  1.0
  H  H22  1  0.28812556  0.58145282  0.82661576  1.0
  H  H23  1  0.28623991  0.42088452  0.93070377  1.0
  H  H24  1  0.36664808  0.74162969  0.87602553  1.0
  H  H25  1  0.62823344  0.73899140  0.88208562  1.0
  H  H26  1  0.36955504  0.26371614  0.88032484  1.0
  H  H27  1  0.63124967  0.26496083  0.87460912  1.0
  C  C28  1  0.49647989  0.64596875  0.49841675  1.0
  C  C29  1  0.50238943  0.50578130  0.58893055  1.0
  C  C30  1  0.49919600  0.35477355  0.50112117  1.0
  C  C31  1  0.50140374  0.49670613  0.40904746  1.0
  C  C32  1  0.49679559  0.64807460  0.88071584  1.0
  C  C33  1  0.50236024  0.50658773  0.79055837  1.0
  C  C34  1  0.49934223  0.35676075  0.87822571  1.0
  C  C35  1  0.50099778  0.49957352  0.97037648  1.0
  C  C36  1  0.25166621  0.54449396  0.53019543  1.0
  C  C37  1  0.16761691  0.54562187  0.53079370  1.0
  C  C38  1  0.12164094  0.49984616  0.50095546  1.0
  C  C39  1  0.16725096  0.45364576  0.47105464  1.0
  C  C40  1  0.25124834  0.45421303  0.47148622  1.0
  C  C41  1  0.03650623  0.50002282  0.50101757  1.0
  C  C42  1  0.96275359  0.49986440  0.50096203  1.0
  C  C43  1  0.87763295  0.49978054  0.50075014  1.0
  C  C44  1  0.83134539  0.54519266  0.53077501  1.0
  C  C45  1  0.74731898  0.54443184  0.52993687  1.0
  C  C46  1  0.74828652  0.45552379  0.47044558  1.0
  C  C47  1  0.83229239  0.45428503  0.47043015  1.0
  C  C48  1  0.49718639  0.72965934  0.49951342  1.0
  C  C49  1  0.57139501  0.76760534  0.49832682  1.0
  C  C50  1  0.57120872  0.84479693  0.49939019  1.0
  C  C51  1  0.49943322  0.88777831  0.50103265  1.0
  C  C52  1  0.42644140  0.84658720  0.50204837  1.0
  C  C53  1  0.42405163  0.76937640  0.50160100  1.0
  C  C54  1  0.50066091  0.96625566  0.50138214  1.0
  C  C55  1  0.50183350  0.03436119  0.50143845  1.0
  C  C56  1  0.50169635  0.11285399  0.50147149  1.0
  C  C57  1  0.57370467  0.15544214  0.50282644  1.0
  C  C58  1  0.57432965  0.23270427  0.50316997  1.0
  C  C59  1  0.50034666  0.27107882  0.50153462  1.0
  C  C60  1  0.42704816  0.23167799  0.49992714  1.0
  C  C61  1  0.42898006  0.15449945  0.50015376  1.0
  C  C62  1  0.50302691  0.50674544  0.73855501  1.0
  C  C63  1  0.55037490  0.45232800  0.71441672  1.0
  C  C64  1  0.45818972  0.55903988  0.71448637  1.0
  C  C65  1  0.59685127  0.39758393  0.73809012  1.0
  C  C66  1  0.64179221  0.34552696  0.71380858  1.0
  C  C67  1  0.50308095  0.50634212  0.64094887  1.0
  C  C68  1  0.45820817  0.55883547  0.66527243  1.0
  C  C69  1  0.55041692  0.45211778  0.66482022  1.0
  C  C70  1  0.59692782  0.39717973  0.64089725  1.0
  C  C71  1  0.64182831  0.34532722  0.66493875  1.0
  C  C72  1  0.50111557  0.50044069  0.02218297  1.0
  C  C73  1  0.42749893  0.50328859  0.04636630  1.0
  C  C74  1  0.42887689  0.50373579  0.09415775  1.0
  C  C75  1  0.50132484  0.50218621  0.12007738  1.0
  C  C76  1  0.57366976  0.49999420  0.09390336  1.0
  C  C77  1  0.57485709  0.49872906  0.04611633  1.0
  C  C78  1  0.50145766  0.50252547  0.16865447  1.0
  C  C79  1  0.50160899  0.50224978  0.21080681  1.0
  C  C80  1  0.50162035  0.50127772  0.25937222  1.0
  C  C81  1  0.42921203  0.50231094  0.28551523  1.0
  C  C82  1  0.42789613  0.50121159  0.33329786  1.0
  C  C83  1  0.50156046  0.49813950  0.35724736  1.0
  C  C84  1  0.57525957  0.49689792  0.33309185  1.0
  C  C85  1  0.57400348  0.49886941  0.28531430  1.0
  C  C86  1  0.74762100  0.54666908  0.84948899  1.0
  C  C87  1  0.83166105  0.54736243  0.84863222  1.0
  C  C88  1  0.87771000  0.50208991  0.87847306  1.0
  C  C89  1  0.83214536  0.45693609  0.90868930  1.0
  C  C90  1  0.74814128  0.45819214  0.90866051  1.0
  C  C91  1  0.96282214  0.50205057  0.87819799  1.0
  C  C92  1  0.03657001  0.50205865  0.87814726  1.0
  C  C93  1  0.12169025  0.50186089  0.87832270  1.0
  C  C94  1  0.16800371  0.54750452  0.84875581  1.0
  C  C95  1  0.25205565  0.54645562  0.84951491  1.0
  C  C96  1  0.25094482  0.45649648  0.90784814  1.0
  C  C97  1  0.16695732  0.45589052  0.90813652  1.0
  C  C98  1  0.49739309  0.73171502  0.87910271  1.0
  C  C99  1  0.42420545  0.77124238  0.87681783  1.0
  C  C100  1  0.42644227  0.84843239  0.87609114  1.0
  C  C101  1  0.49933925  0.88976375  0.87702209  1.0
  C  C102  1  0.57121408  0.84697874  0.87874216  1.0
  C  C103  1  0.57152266  0.76982207  0.88009904  1.0
  C  C104  1  0.50037832  0.96824126  0.87670085  1.0
  C  C105  1  0.50140791  0.03634239  0.87686040  1.0
  C  C106  1  0.50135140  0.11483418  0.87707699  1.0
  C  C107  1  0.42870710  0.15659685  0.87847068  1.0
  C  C108  1  0.42692685  0.23378699  0.87898127  1.0
  C  C109  1  0.50032239  0.27306148  0.87755717  1.0
  C  C110  1  0.57423935  0.23452017  0.87583419  1.0
  C  C111  1  0.57346053  0.15727226  0.87592909  1.0
  N  N112  1  0.29149234  0.49928047  0.50072528  1.0
  N  N113  1  0.70774324  0.50022325  0.49990127  1.0
  N  N114  1  0.70782601  0.50265263  0.87934414  1.0
  N  N115  1  0.29153141  0.50142806  0.87886834  1.0
  Cl  Cl116  1  0.40415754  0.62643961  0.63609819  1.0
  Cl  Cl117  1  0.40414980  0.62693491  0.74398063  1.0
  O  O118  1  0.56354527  0.61358033  0.48955500  1.0
  O  O119  1  0.42908810  0.61370268  0.50635619  1.0
  O  O120  1  0.43610886  0.48850931  0.56949925  1.0
  O  O121  1  0.56890499  0.52118057  0.56886095  1.0
  O  O122  1  0.43168903  0.38604946  0.49237470  1.0
  O  O123  1  0.56587695  0.38829887  0.50947618  1.0
  O  O124  1  0.56892730  0.48410167  0.42895725  1.0
  O  O125  1  0.43384731  0.50841688  0.42919528  1.0
  O  O126  1  0.42939777  0.61552358  0.87316388  1.0
  O  O127  1  0.56386563  0.61599087  0.88959674  1.0
  O  O128  1  0.56890093  0.52215482  0.81049619  1.0
  O  O129  1  0.43610704  0.48944776  0.81011341  1.0
  O  O130  1  0.56605985  0.39010989  0.86980576  1.0
  O  O131  1  0.43186790  0.38819999  0.88722005  1.0
  O  O132  1  0.43350557  0.51156843  0.95046208  1.0
  O  O133  1  0.56852816  0.48702638  0.95022829  1.0
  F  F134  1  0.12798360  0.40802950  0.44151946  1.0
  F  F135  1  0.12860917  0.59137967  0.56045742  1.0
  F  F136  1  0.87184472  0.40885578  0.44080269  1.0
  F  F137  1  0.87000608  0.59020417  0.56089505  1.0
  F  F138  1  0.35586152  0.88544684  0.50350770  1.0
  F  F139  1  0.64286732  0.88186541  0.49860848  1.0
  F  F140  1  0.35820803  0.11608276  0.49894206  1.0
  F  F141  1  0.64518037  0.11797683  0.50388587  1.0
  F  F142  1  0.64479626  0.49900579  0.11730880  1.0
  F  F143  1  0.35785812  0.50580848  0.11782680  1.0
  F  F144  1  0.64509444  0.49838015  0.26169306  1.0
  F  F145  1  0.35815431  0.50453689  0.26208396  1.0
  F  F146  1  0.87144849  0.41183880  0.93823815  1.0
  F  F147  1  0.87057976  0.59215321  0.81868810  1.0
  F  F148  1  0.12734681  0.41054178  0.93746215  1.0
  F  F149  1  0.12930385  0.59304824  0.81922101  1.0
  F  F150  1  0.64276920  0.88423633  0.87938226  1.0
  F  F151  1  0.35581339  0.88713663  0.87451208  1.0
  F  F152  1  0.64486738  0.11968111  0.87481383  1.0
  F  F153  1  0.35784149  0.11832615  0.87948131  1.0
