# generated using pymatgen
data_ZnH17C25NO5
_symmetry_space_group_name_H-M   'P 1'
_cell_length_a   16.57617618
_cell_length_b   17.86439308
_cell_length_c   33.16724517
_cell_angle_alpha   89.73903393
_cell_angle_beta   89.39590848
_cell_angle_gamma   89.99391148
_symmetry_Int_Tables_number   1
_chemical_formula_structural   ZnH17C25NO5
_chemical_formula_sum   'Zn4 H68 C100 N4 O20'
_cell_volume   9820.94720720
_cell_formula_units_Z   4
loop_
 _symmetry_equiv_pos_site_id
 _symmetry_equiv_pos_as_xyz
  1  'x, y, z'
loop_
 _atom_site_type_symbol
 _atom_site_label
 _atom_site_symmetry_multiplicity
 _atom_site_fract_x
 _atom_site_fract_y
 _atom_site_fract_z
 _atom_site_occupancy
  Zn  Zn0  1  0.41710017  0.49640285  0.50181762  1.0
  Zn  Zn1  1  0.58708739  0.51058351  0.50028079  1.0
  Zn  Zn2  1  0.58268804  0.49403070  0.96050060  1.0
  Zn  Zn3  1  0.41267646  0.50826827  0.96206535  1.0
  H  H4  1  0.70819676  0.42876924  0.53897757  1.0
  H  H5  1  0.85858064  0.41480308  0.54274400  1.0
  H  H6  1  0.87730624  0.60009467  0.45887814  1.0
  H  H7  1  0.12899516  0.41427188  0.55112825  1.0
  H  H8  1  0.29431050  0.56341401  0.45717231  1.0
  H  H9  1  0.14366775  0.57325097  0.45266096  1.0
  H  H10  1  0.39276512  0.27439708  0.49755655  1.0
  H  H11  1  0.37848939  0.13534643  0.49606253  1.0
  H  H12  1  0.63746946  0.11635560  0.49402833  1.0
  H  H13  1  0.35836654  0.88542067  0.50241643  1.0
  H  H14  1  0.61001541  0.73706563  0.50069862  1.0
  H  H15  1  0.61784626  0.87647694  0.49688614  1.0
  H  H16  1  0.63423018  0.49814095  0.62886783  1.0
  H  H17  1  0.37889148  0.50370494  0.62630190  1.0
  H  H18  1  0.36536525  0.49749510  0.83348551  1.0
  H  H19  1  0.62068899  0.50317759  0.83607857  1.0
  H  H20  1  0.62885790  0.51362412  0.08910970  1.0
  H  H21  1  0.63085887  0.51243316  0.16444507  1.0
  H  H22  1  0.37685374  0.46171453  0.16556381  1.0
  H  H23  1  0.62394980  0.46340377  0.29735830  1.0
  H  H24  1  0.37132614  0.51598371  0.37289862  1.0
  H  H25  1  0.36977735  0.51339238  0.29757468  1.0
  H  H26  1  0.29163936  0.42728867  0.92304952  1.0
  H  H27  1  0.14124193  0.41361754  0.91912651  1.0
  H  H28  1  0.12244615  0.59642678  0.00366990  1.0
  H  H29  1  0.87069798  0.41278834  0.91095491  1.0
  H  H30  1  0.70560218  0.56065512  0.00487270  1.0
  H  H31  1  0.85624495  0.57043899  0.00927273  1.0
  H  H32  1  0.60723970  0.27212509  0.96534058  1.0
  H  H33  1  0.62178356  0.13306573  0.96593530  1.0
  H  H34  1  0.36288176  0.11363235  0.96559501  1.0
  H  H35  1  0.64201384  0.88273313  0.95784093  1.0
  H  H36  1  0.38996032  0.73500688  0.96083005  1.0
  H  H37  1  0.38253404  0.87445905  0.96368624  1.0
  H  H38  1  0.75599196  0.64769700  0.42912028  1.0
  H  H39  1  0.66033555  0.60383966  0.43921983  1.0
  H  H40  1  0.69805751  0.67161002  0.47261674  1.0
  H  H41  1  0.30475933  0.34090118  0.54486103  1.0
  H  H42  1  0.34849158  0.41898478  0.56849693  1.0
  H  H43  1  0.25290020  0.38336934  0.58596548  1.0
  H  H44  1  0.72114515  0.21554235  0.49174933  1.0
  H  H45  1  0.68559293  0.30191812  0.47081259  1.0
  H  H46  1  0.68929670  0.29060137  0.52335660  1.0
  H  H47  1  0.31045091  0.71018794  0.47786041  1.0
  H  H48  1  0.32287623  0.69691762  0.52986909  1.0
  H  H49  1  0.28025000  0.78254538  0.51176501  1.0
  H  H50  1  0.32226745  0.50966305  0.07473285  1.0
  H  H51  1  0.35881653  0.42125680  0.06042227  1.0
  H  H52  1  0.30894137  0.43218441  0.10810894  1.0
  H  H53  1  0.67759147  0.51355173  0.38786648  1.0
  H  H54  1  0.64184196  0.42499530  0.40283084  1.0
  H  H55  1  0.69190507  0.43583639  0.35512308  1.0
  H  H56  1  0.24374873  0.64411503  0.03313577  1.0
  H  H57  1  0.33925911  0.59987768  0.02333786  1.0
  H  H58  1  0.30226612  0.66813183  0.98971116  1.0
  H  H59  1  0.69471295  0.33951617  0.91728129  1.0
  H  H60  1  0.65126840  0.41805518  0.89358176  1.0
  H  H61  1  0.74680464  0.38246122  0.87618090  1.0
  H  H62  1  0.27909930  0.21306013  0.97063105  1.0
  H  H63  1  0.31485309  0.30241154  0.98713601  1.0
  H  H64  1  0.30965488  0.28305446  0.93532346  1.0
  H  H65  1  0.68945738  0.70743782  0.98355499  1.0
  H  H66  1  0.67707489  0.69408731  0.93161520  1.0
  H  H67  1  0.71987823  0.77965951  0.94926435  1.0
  H  H68  1  0.70785537  0.50520516  0.80238391  1.0
  H  H69  1  0.71738835  0.50241121  0.66471072  1.0
  H  H70  1  0.28234278  0.50229104  0.79766333  1.0
  H  H71  1  0.29182871  0.50578395  0.65996215  1.0
  C  C72  1  0.52118448  0.35789120  0.49917882  1.0
  C  C73  1  0.50833703  0.50167179  0.57975661  1.0
  C  C74  1  0.48512837  0.64849722  0.50214895  1.0
  C  C75  1  0.49415959  0.50047649  0.42231573  1.0
  C  C76  1  0.47888792  0.35551798  0.96292289  1.0
  C  C77  1  0.49119120  0.50055341  0.88257683  1.0
  C  C78  1  0.51461763  0.64614388  0.95982473  1.0
  C  C79  1  0.50565989  0.49731832  0.04004627  1.0
  C  C80  1  0.74863535  0.46547419  0.52191471  1.0
  C  C81  1  0.83165644  0.45792074  0.52390617  1.0
  C  C82  1  0.88025198  0.50686620  0.50075245  1.0
  C  C83  1  0.84158435  0.56123262  0.47707327  1.0
  C  C84  1  0.75749815  0.56605433  0.47674770  1.0
  C  C85  1  0.96540628  0.50185834  0.50120199  1.0
  C  C86  1  0.03882907  0.49813167  0.50145398  1.0
  C  C87  1  0.12405210  0.49419521  0.50196422  1.0
  C  C88  1  0.16385506  0.44798473  0.52977370  1.0
  C  C89  1  0.24806388  0.44511149  0.53039603  1.0
  C  C90  1  0.25470250  0.53136685  0.47722573  1.0
  C  C91  1  0.17155947  0.53670654  0.47484737  1.0
  C  C92  1  0.52178225  0.27389946  0.49699981  1.0
  C  C93  1  0.44590396  0.23860534  0.49690223  1.0
  C  C94  1  0.43783191  0.16156057  0.49603746  1.0
  C  C95  1  0.50749723  0.11627709  0.49540998  1.0
  C  C96  1  0.58360024  0.15147591  0.49478520  1.0
  C  C97  1  0.59255198  0.22937639  0.49542428  1.0
  C  C98  1  0.50046682  0.03739589  0.49589234  1.0
  C  C99  1  0.49248807  0.96944608  0.49713146  1.0
  C  C100  1  0.48812873  0.89043130  0.49881045  1.0
  C  C101  1  0.41373838  0.85240124  0.50136489  1.0
  C  C102  1  0.40843801  0.77422486  0.50277312  1.0
  C  C103  1  0.48118559  0.73249368  0.50182870  1.0
  C  C104  1  0.55529901  0.77067096  0.50025530  1.0
  C  C105  1  0.55980889  0.84791864  0.49842510  1.0
  C  C106  1  0.57841037  0.49923623  0.64664931  1.0
  C  C107  1  0.57738949  0.49950550  0.68898047  1.0
  C  C108  1  0.65028889  0.49991041  0.71201634  1.0
  C  C109  1  0.43235656  0.50176793  0.64521777  1.0
  C  C110  1  0.42794182  0.50064575  0.68744093  1.0
  C  C111  1  0.35213466  0.50087351  0.70877263  1.0
  C  C112  1  0.42119239  0.49877552  0.81570968  1.0
  C  C113  1  0.42225752  0.49934594  0.77337981  1.0
  C  C114  1  0.34935392  0.49994805  0.75035429  1.0
  C  C115  1  0.56725776  0.50132325  0.81714727  1.0
  C  C116  1  0.57169746  0.50040336  0.77492968  1.0
  C  C117  1  0.64750019  0.50061839  0.75359876  1.0
  C  C118  1  0.50664614  0.50079524  0.62496819  1.0
  C  C119  1  0.50126199  0.49986100  0.70988591  1.0
  C  C120  1  0.49293734  0.50018893  0.83738037  1.0
  C  C121  1  0.49839129  0.49975957  0.75247650  1.0
  C  C122  1  0.50201463  0.49179342  0.08511642  1.0
  C  C123  1  0.57368048  0.50342964  0.10644225  1.0
  C  C124  1  0.57503894  0.50241070  0.14825502  1.0
  C  C125  1  0.50312158  0.48839356  0.17013322  1.0
  C  C126  1  0.43192917  0.47439086  0.14857067  1.0
  C  C127  1  0.42956660  0.47583114  0.10648161  1.0
  C  C128  1  0.50172046  0.48807924  0.21282621  1.0
  C  C129  1  0.49920260  0.48837430  0.24964399  1.0
  C  C130  1  0.49760001  0.48950360  0.29233226  1.0
  C  C131  1  0.56871984  0.47617892  0.31414226  1.0
  C  C132  1  0.57085593  0.47848181  0.35621621  1.0
  C  C133  1  0.49819100  0.49453330  0.37730715  1.0
  C  C134  1  0.42662845  0.50559342  0.35575474  1.0
  C  C135  1  0.42551719  0.50379282  0.31395642  1.0
  C  C136  1  0.25118504  0.46356975  0.94019298  1.0
  C  C137  1  0.16816888  0.45612791  0.93814567  1.0
  C  C138  1  0.11956000  0.50437210  0.96149056  1.0
  C  C139  1  0.15819572  0.55807575  0.98535331  1.0
  C  C140  1  0.24227637  0.56296732  0.98563627  1.0
  C  C141  1  0.03440454  0.49937452  0.96100472  1.0
  C  C142  1  0.96097183  0.49573064  0.96065127  1.0
  C  C143  1  0.87574818  0.49195619  0.96007833  1.0
  C  C144  1  0.83588157  0.44620184  0.93230246  1.0
  C  C145  1  0.75166821  0.44338492  0.93171257  1.0
  C  C146  1  0.74515854  0.52887564  0.98482326  1.0
  C  C147  1  0.82830116  0.53417736  0.98714992  1.0
  C  C148  1  0.47819936  0.27143489  0.96469558  1.0
  C  C149  1  0.55415342  0.23625893  0.96525748  1.0
  C  C150  1  0.56238915  0.15920161  0.96561984  1.0
  C  C151  1  0.49282612  0.11380325  0.96529713  1.0
  C  C152  1  0.41665486  0.14887072  0.96553703  1.0
  C  C153  1  0.40750735  0.22676343  0.96535010  1.0
  C  C154  1  0.50001276  0.03497062  0.96440633  1.0
  C  C155  1  0.50809101  0.96705880  0.96301307  1.0
  C  C156  1  0.51228913  0.88806603  0.96155562  1.0
  C  C157  1  0.58655681  0.84985983  0.95914455  1.0
  C  C158  1  0.59164603  0.77165857  0.95826475  1.0
  C  C159  1  0.51879297  0.73012257  0.95957015  1.0
  C  C160  1  0.44477605  0.76847600  0.96096126  1.0
  C  C161  1  0.44047878  0.84573687  0.96226040  1.0
  C  C162  1  0.71583122  0.62526660  0.45269838  1.0
  C  C163  1  0.29083184  0.39474666  0.55934179  1.0
  C  C164  1  0.67685684  0.26085496  0.49514098  1.0
  C  C165  1  0.32588620  0.73929384  0.50585305  1.0
  C  C166  1  0.35067058  0.45848300  0.08637145  1.0
  C  C167  1  0.64978817  0.46200077  0.37659312  1.0
  C  C168  1  0.28399382  0.62171278  0.00969536  1.0
  C  C169  1  0.70884534  0.39353828  0.90277815  1.0
  C  C170  1  0.32305442  0.25791762  0.96486802  1.0
  C  C171  1  0.67412102  0.73652598  0.95539827  1.0
  N  N172  1  0.71214499  0.51771542  0.49896230  1.0
  N  N173  1  0.29232107  0.48729668  0.50429848  1.0
  N  N174  1  0.28763295  0.51518795  0.96330795  1.0
  N  N175  1  0.70747205  0.48515074  0.95783180  1.0
  O  O176  1  0.45305989  0.38767998  0.50760727  1.0
  O  O177  1  0.58626805  0.39422599  0.49269525  1.0
  O  O178  1  0.57611883  0.49227740  0.56206076  1.0
  O  O179  1  0.44085974  0.51184099  0.56241989  1.0
  O  O180  1  0.55394992  0.61968881  0.50956531  1.0
  O  O181  1  0.42131472  0.61152660  0.49454309  1.0
  O  O182  1  0.42689275  0.48618254  0.43962259  1.0
  O  O183  1  0.55842939  0.52040250  0.44025048  1.0
  O  O184  1  0.54709211  0.38540258  0.95465593  1.0
  O  O185  1  0.41390240  0.39184009  0.96951804  1.0
  O  O186  1  0.42338830  0.49095900  0.90026530  1.0
  O  O187  1  0.55863359  0.51048694  0.89992119  1.0
  O  O188  1  0.44569296  0.61746015  0.95264020  1.0
  O  O189  1  0.57834935  0.60905577  0.96761468  1.0
  O  O190  1  0.57279335  0.48297233  0.02269364  1.0
  O  O191  1  0.44120167  0.51710177  0.02212608  1.0
  O  O192  1  0.71935849  0.50144097  0.77360745  1.0
  O  O193  1  0.72474826  0.49997349  0.69377357  1.0
  O  O194  1  0.27490635  0.49996950  0.76861553  1.0
  O  O195  1  0.28029142  0.50190884  0.68874877  1.0
