# generated using pymatgen
data_ZnH2C6SO4
_symmetry_space_group_name_H-M   'P 1'
_cell_length_a   19.65682774
_cell_length_b   19.70611713
_cell_length_c   33.34763873
_cell_angle_alpha   79.08436222
_cell_angle_beta   79.22767448
_cell_angle_gamma   63.97701580
_symmetry_Int_Tables_number   1
_chemical_formula_structural   ZnH2C6SO4
_chemical_formula_sum   'Zn16 H32 C96 S16 O64'
_cell_volume   11318.72387948
_cell_formula_units_Z   16
loop_
 _symmetry_equiv_pos_site_id
 _symmetry_equiv_pos_as_xyz
  1  'x, y, z'
loop_
 _atom_site_type_symbol
 _atom_site_label
 _atom_site_symmetry_multiplicity
 _atom_site_fract_x
 _atom_site_fract_y
 _atom_site_fract_z
 _atom_site_occupancy
  Zn  Zn0  1  0.05715915  0.39992432  0.47878410  1.0
  Zn  Zn1  1  0.98386340  0.48273216  0.56070411  1.0
  Zn  Zn2  1  0.05822164  0.56094117  0.48209137  1.0
  Zn  Zn3  1  0.90076047  0.55540158  0.48006398  1.0
  Zn  Zn4  1  0.69492662  0.35034896  0.27137892  1.0
  Zn  Zn5  1  0.68976276  0.19054419  0.26706627  1.0
  Zn  Zn6  1  0.76970120  0.26648299  0.19066426  1.0
  Zn  Zn7  1  0.84896250  0.19553922  0.27295850  1.0
  Zn  Zn8  1  0.26636740  0.76637067  0.68928976  1.0
  Zn  Zn9  1  0.34856210  0.69490634  0.77159015  1.0
  Zn  Zn10  1  0.19257397  0.84665808  0.77133253  1.0
  Zn  Zn11  1  0.19070992  0.68702774  0.76654391  1.0
  Zn  Zn12  1  0.56067236  0.06009377  0.98349000  1.0
  Zn  Zn13  1  0.40106835  0.05486331  0.97799400  1.0
  Zn  Zn14  1  0.55401405  0.90187561  0.97790832  1.0
  Zn  Zn15  1  0.48424764  0.98360033  0.06039469  1.0
  H  H16  1  0.95363302  0.24906137  0.35136829  1.0
  H  H17  1  0.74676455  0.45578599  0.35116110  1.0
  H  H18  1  0.00103285  0.29781206  0.39950418  1.0
  H  H19  1  0.09769158  0.59740923  0.70003129  1.0
  H  H20  1  0.20141923  0.70125479  0.59662151  1.0
  H  H21  1  0.04997249  0.55020552  0.65118311  1.0
  H  H22  1  0.46255447  0.24073239  0.34124007  1.0
  H  H23  1  0.47961796  0.70249155  0.60124901  1.0
  H  H24  1  0.20243413  0.97960300  0.60169397  1.0
  H  H25  1  0.94874482  0.96959323  0.34825719  1.0
  H  H26  1  0.54986457  0.04998372  0.15273376  1.0
  H  H27  1  0.65327191  0.15342392  0.04895958  1.0
  H  H28  1  0.59859614  0.09847848  0.20029178  1.0
  H  H29  1  0.54793869  0.76964589  0.14848582  1.0
  H  H30  1  0.16264616  0.14125699  0.04071597  1.0
  H  H31  1  0.50119339  0.79612442  0.89881182  1.0
  H  H32  1  0.29458651  0.00316272  0.89877577  1.0
  H  H33  1  0.45170719  0.74958460  0.85061823  1.0
  H  H34  1  0.30098437  0.28022367  0.90193111  1.0
  H  H35  1  0.78746658  0.00907454  0.90884459  1.0
  H  H36  1  0.81049096  0.52725607  0.41898051  1.0
  H  H37  1  0.13571109  0.63597795  0.52653583  1.0
  H  H38  1  0.72334045  0.22313654  0.11454640  1.0
  H  H39  1  0.22198734  0.93995580  0.83113598  1.0
  H  H40  1  0.32578256  0.54264485  0.39853927  1.0
  H  H41  1  0.75650256  0.53972987  0.68446235  1.0
  H  H42  1  0.04025673  0.25620820  0.68420320  1.0
  H  H43  1  0.74293489  0.81525149  0.38796667  1.0
  H  H44  1  0.71025381  0.49314839  0.06555114  1.0
  H  H45  1  0.14857834  0.07574288  0.22083356  1.0
  H  H46  1  0.50689423  0.43404981  0.86215546  1.0
  H  H47  1  0.92414294  0.70693376  0.85182320  1.0
  C  C48  1  0.06165393  0.31595605  0.56225753  1.0
  C  C49  1  0.06944871  0.57023138  0.56939571  1.0
  C  C50  1  0.18408707  0.44058627  0.43863112  1.0
  C  C51  1  0.93602769  0.68439077  0.43872434  1.0
  C  C52  1  0.93086678  0.42995297  0.43084527  1.0
  C  C53  1  0.81637111  0.56081691  0.56257023  1.0
  C  C54  1  0.56585110  0.31135964  0.31120937  1.0
  C  C55  1  0.68088194  0.18008740  0.18070383  1.0
  C  C56  1  0.68945931  0.43329212  0.18755801  1.0
  C  C57  1  0.93573899  0.18714534  0.18986294  1.0
  C  C58  1  0.81847326  0.32104681  0.31991514  1.0
  C  C59  1  0.81134437  0.06627660  0.31166975  1.0
  C  C60  1  0.43354280  0.68964371  0.68827522  1.0
  C  C61  1  0.31906446  0.82001189  0.81935453  1.0
  C  C62  1  0.18889007  0.93341812  0.68861867  1.0
  C  C63  1  0.06563003  0.80900729  0.81129970  1.0
  C  C64  1  0.18128032  0.68029074  0.67975652  1.0
  C  C65  1  0.31371492  0.56534682  0.81139018  1.0
  C  C66  1  0.43830532  0.18374698  0.93867945  1.0
  C  C67  1  0.42952605  0.93106107  0.93024409  1.0
  C  C68  1  0.68373966  0.93890952  0.93861474  1.0
  C  C69  1  0.56121870  0.81643107  0.06142199  1.0
  C  C70  1  0.57021269  0.07006255  0.06932774  1.0
  C  C71  1  0.31625435  0.06150904  0.06121536  1.0
  C  C72  1  0.90119470  0.40331066  0.40233279  1.0
  C  C73  1  0.84737421  0.34966727  0.34853201  1.0
  C  C74  1  0.82848382  0.44865247  0.38850853  1.0
  C  C75  1  0.91950993  0.30447789  0.36202760  1.0
  C  C76  1  0.80247882  0.42088426  0.36159648  1.0
  C  C77  1  0.94548266  0.33153933  0.38857725  1.0
  C  C78  1  0.09864419  0.59895740  0.59703062  1.0
  C  C79  1  0.15232915  0.65200497  0.65104024  1.0
  C  C80  1  0.14197074  0.64204096  0.58125991  1.0
  C  C81  1  0.10946052  0.60931315  0.66688756  1.0
  C  C82  1  0.16832445  0.66820979  0.60876649  1.0
  C  C83  1  0.08324279  0.58339850  0.63991044  1.0
  C  C84  1  0.30446375  0.45597122  0.40103639  1.0
  C  C85  1  0.44581546  0.29746431  0.34906458  1.0
  C  C86  1  0.25852225  0.41644445  0.41393733  1.0
  C  C87  1  0.49113811  0.33677983  0.33629316  1.0
  C  C88  1  0.37776856  0.34061209  0.37266140  1.0
  C  C89  1  0.37273883  0.41223107  0.37737690  1.0
  C  C90  1  0.72644018  0.57555353  0.63036590  1.0
  C  C91  1  0.52428612  0.67360182  0.62135683  1.0
  C  C92  1  0.74241029  0.58521842  0.58760905  1.0
  C  C93  1  0.50861392  0.66404851  0.66370585  1.0
  C  C94  1  0.60357217  0.64142009  0.60905990  1.0
  C  C95  1  0.64671232  0.60790182  0.64250623  1.0
  C  C96  1  0.07583542  0.22604317  0.63019076  1.0
  C  C97  1  0.17363107  0.02419919  0.62169062  1.0
  C  C98  1  0.08565872  0.24197917  0.58740457  1.0
  C  C99  1  0.16387483  0.00852801  0.66405357  1.0
  C  C100  1  0.14166161  0.10333360  0.60921912  1.0
  C  C101  1  0.10808327  0.14643857  0.64252838  1.0
  C  C102  1  0.84189217  0.80067924  0.39713813  1.0
  C  C103  1  0.90420245  0.94941019  0.35264230  1.0
  C  C104  1  0.91084090  0.75841509  0.41370443  1.0
  C  C105  1  0.83577691  0.99122795  0.33636525  1.0
  C  C106  1  0.90676028  0.87988463  0.37474539  1.0
  C  C107  1  0.83986701  0.87026273  0.37482028  1.0
  C  C108  1  0.65289054  0.15271210  0.15169727  1.0
  C  C109  1  0.59877869  0.09890919  0.09803804  1.0
  C  C110  1  0.66848875  0.16859354  0.10841766  1.0
  C  C111  1  0.58296753  0.08308424  0.14087932  1.0
  C  C112  1  0.64100559  0.14118789  0.08204874  1.0
  C  C113  1  0.60995174  0.10993048  0.16704439  1.0
  C  C114  1  0.67453996  0.52341412  0.11957321  1.0
  C  C115  1  0.57674229  0.72523050  0.12837795  1.0
  C  C116  1  0.66477852  0.50723404  0.16234513  1.0
  C  C117  1  0.58637561  0.74123939  0.08602838  1.0
  C  C118  1  0.60868550  0.64600964  0.14070908  1.0
  C  C119  1  0.64223764  0.60308404  0.10732583  1.0
  C  C120  1  0.08251328  0.12315464  0.17869489  1.0
  C  C121  1  0.17040625  0.12466521  0.07312086  1.0
  C  C122  1  0.01035007  0.16214708  0.16534749  1.0
  C  C123  1  0.24176285  0.08603176  0.08649416  1.0
  C  C124  1  0.11216647  0.13834340  0.10658163  1.0
  C  C125  1  0.14064333  0.10966089  0.14490082  1.0
  C  C126  1  0.34623733  0.84951729  0.84768875  1.0
  C  C127  1  0.40069423  0.90248271  0.90154319  1.0
  C  C128  1  0.30116864  0.92200831  0.86143887  1.0
  C  C129  1  0.44563606  0.83051592  0.88810291  1.0
  C  C130  1  0.32932333  0.94762251  0.88835175  1.0
  C  C131  1  0.41820952  0.80499017  0.86151039  1.0
  C  C132  1  0.40794940  0.44893157  0.85289225  1.0
  C  C133  1  0.34555135  0.30036823  0.89752474  1.0
  C  C134  1  0.33900297  0.49118238  0.83632445  1.0
  C  C135  1  0.41395229  0.25859520  0.91381666  1.0
  C  C136  1  0.34308638  0.36974828  0.87529042  1.0
  C  C137  1  0.41000483  0.37934291  0.87518339  1.0
  C  C138  1  0.94529265  0.79372519  0.84905474  1.0
  C  C139  1  0.80409637  0.95237603  0.90100694  1.0
  C  C140  1  0.99129537  0.83315560  0.83610550  1.0
  C  C141  1  0.75860621  0.91323369  0.91371343  1.0
  C  C142  1  0.87214560  0.90908446  0.87744624  1.0
  C  C143  1  0.87706988  0.83750582  0.87273534  1.0
  S  S144  1  0.29888500  0.32663820  0.39722534  1.0
  S  S145  1  0.45159248  0.42646739  0.35280559  1.0
  S  S146  1  0.66052103  0.63333122  0.56266401  1.0
  S  S147  1  0.58983504  0.61585601  0.68902210  1.0
  S  S148  1  0.13379392  0.16016735  0.56271287  1.0
  S  S149  1  0.11576427  0.08965798  0.68914648  1.0
  S  S150  1  0.97237021  0.80366328  0.40195833  1.0
  S  S151  1  0.77395190  0.94658272  0.34770037  1.0
  S  S152  1  0.61652573  0.58894473  0.18714993  1.0
  S  S153  1  0.63438904  0.66022238  0.06079782  1.0
  S  S154  1  0.01402549  0.18194301  0.11188209  1.0
  S  S155  1  0.23886371  0.06588560  0.13978575  1.0
  S  S156  1  0.27749878  0.44593420  0.84805224  1.0
  S  S157  1  0.47591466  0.30308062  0.90233537  1.0
  S  S158  1  0.95108175  0.92293222  0.85286937  1.0
  S  S159  1  0.79805549  0.82349816  0.89724694  1.0
  O  O160  1  0.00048374  0.49889800  0.50025001  1.0
  O  O161  1  0.07827832  0.31481812  0.52316586  1.0
  O  O162  1  0.03155611  0.53160938  0.58530800  1.0
  O  O163  1  0.15538688  0.50686560  0.45008738  1.0
  O  O164  1  0.02664811  0.37474414  0.58117388  1.0
  O  O165  1  0.15416026  0.39247106  0.44655864  1.0
  O  O166  1  0.08463926  0.58668053  0.53016911  1.0
  O  O167  1  0.00279693  0.65832763  0.45015663  1.0
  O  O168  1  0.88699467  0.49615983  0.44276600  1.0
  O  O169  1  0.89034605  0.65206661  0.44714110  1.0
  O  O170  1  0.99640694  0.38748917  0.44201309  1.0
  O  O171  1  0.87560492  0.52643033  0.58134897  1.0
  O  O172  1  0.81473543  0.57659615  0.52343525  1.0
  O  O173  1  0.75011382  0.25043520  0.25069967  1.0
  O  O174  1  0.59672663  0.35836528  0.30289297  1.0
  O  O175  1  0.66470374  0.16468647  0.21908123  1.0
  O  O176  1  0.72544977  0.37414784  0.16889998  1.0
  O  O177  1  0.59282428  0.24494242  0.30007872  1.0
  O  O178  1  0.67251796  0.43472689  0.22660031  1.0
  O  O179  1  0.72072009  0.21857322  0.16484012  1.0
  O  O180  1  0.87786578  0.22212439  0.16948199  1.0
  O  O181  1  0.86173298  0.25491129  0.30946616  1.0
  O  O182  1  0.93412018  0.17246347  0.22888656  1.0
  O  O183  1  0.75314912  0.36471609  0.30824952  1.0
  O  O184  1  0.74487693  0.09360253  0.29998259  1.0
  O  O185  1  0.85821613  0.09706489  0.30421591  1.0
  O  O186  1  0.24988997  0.74907294  0.74963252  1.0
  O  O187  1  0.37550472  0.72504668  0.66856071  1.0
  O  O188  1  0.36216763  0.75518679  0.80779667  1.0
  O  O189  1  0.17232953  0.93313312  0.72767139  1.0
  O  O190  1  0.43374994  0.67387678  0.72731353  1.0
  O  O191  1  0.22457380  0.87569323  0.66892808  1.0
  O  O192  1  0.25195426  0.86293720  0.80798770  1.0
  O  O193  1  0.09537403  0.85741712  0.80361713  1.0
  O  O194  1  0.16597634  0.66301134  0.71818625  1.0
  O  O195  1  0.09452451  0.74313423  0.79949357  1.0
  O  O196  1  0.21903888  0.71943052  0.66351202  1.0
  O  O197  1  0.35955818  0.59750225  0.80328500  1.0
  O  O198  1  0.24709282  0.59145217  0.79988127  1.0
  O  O199  1  0.49990567  0.00019037  0.99996526  1.0
  O  O200  1  0.50512164  0.15604593  0.94986838  1.0
  O  O201  1  0.38622779  0.99663390  0.94140749  1.0
  O  O202  1  0.65266072  0.89201080  0.94670727  1.0
  O  O203  1  0.39089615  0.15348061  0.94675316  1.0
  O  O204  1  0.65678968  0.00521071  0.94979032  1.0
  O  O205  1  0.49537261  0.88744901  0.94131621  1.0
  O  O206  1  0.57702628  0.81653079  0.02238301  1.0
  O  O207  1  0.53185840  0.03154644  0.08565505  1.0
  O  O208  1  0.52615016  0.87432297  0.08108063  1.0
  O  O209  1  0.58640707  0.08609651  0.03082413  1.0
  O  O210  1  0.31561236  0.07798366  0.02233765  1.0
  O  O211  1  0.37482544  0.02581311  0.08073563  1.0
  O  O212  1  0.78241776  0.51797515  0.40000483  1.0
  O  O213  1  0.15939198  0.65923256  0.54070182  1.0
  O  O214  1  0.70886436  0.20922790  0.09108525  1.0
  O  O215  1  0.23172552  0.96816720  0.84978025  1.0
  O  O216  1  0.28506813  0.52673131  0.41033341  1.0
  O  O217  1  0.78095257  0.53977367  0.65621323  1.0
  O  O218  1  0.04006337  0.28048018  0.65587970  1.0
  O  O219  1  0.78528019  0.77702903  0.40224326  1.0
  O  O220  1  0.71038493  0.46898491  0.09388454  1.0
  O  O221  1  0.09399239  0.10159861  0.21886844  1.0
  O  O222  1  0.46466207  0.47249468  0.84786729  1.0
  O  O223  1  0.96467176  0.72296583  0.83975463  1.0
