# generated using pymatgen
data_ZnH44C36NO18
_symmetry_space_group_name_H-M   'P 1'
_cell_length_a   10.75516863
_cell_length_b   18.53357033
_cell_length_c   19.00324149
_cell_angle_alpha   90.89231925
_cell_angle_beta   90.77269740
_cell_angle_gamma   90.95059090
_symmetry_Int_Tables_number   1
_chemical_formula_structural   ZnH44C36NO18
_chemical_formula_sum   'Zn2 H88 C72 N2 O36'
_cell_volume   3786.60943503
_cell_formula_units_Z   2
loop_
 _symmetry_equiv_pos_site_id
 _symmetry_equiv_pos_as_xyz
  1  'x, y, z'
loop_
 _atom_site_type_symbol
 _atom_site_label
 _atom_site_symmetry_multiplicity
 _atom_site_fract_x
 _atom_site_fract_y
 _atom_site_fract_z
 _atom_site_occupancy
  Zn  Zn0  1  0.48694269  0.57466046  0.50661405  1.0
  Zn  Zn1  1  0.49411115  0.41262630  0.50450726  1.0
  H  H2  1  0.02614225  0.33315767  0.51503058  1.0
  H  H3  1  0.73460591  0.78711077  0.20966377  1.0
  H  H4  1  0.80894754  0.79739208  0.29302886  1.0
  H  H5  1  0.31624146  0.86582446  0.59407969  1.0
  H  H6  1  0.30273308  0.94344982  0.65045875  1.0
  H  H7  1  0.41636670  0.79905009  0.69268503  1.0
  H  H8  1  0.40359405  0.87601953  0.74838389  1.0
  H  H9  1  0.16722972  0.86835883  0.73378618  1.0
  H  H10  1  0.22856576  0.78968797  0.77172231  1.0
  H  H11  1  0.18338247  0.78856128  0.68168348  1.0
  H  H12  1  0.44565566  0.12980526  0.30322742  1.0
  H  H13  1  0.77807448  0.37835924  0.53339895  1.0
  H  H14  1  0.36678197  0.12504634  0.38510867  1.0
  H  H15  1  0.37792303  0.00317152  0.27378497  1.0
  H  H16  1  0.30463237  0.99564041  0.35579807  1.0
  H  H17  1  0.15753290  0.09566425  0.32373835  1.0
  H  H18  1  0.14775945  0.02345248  0.26143803  1.0
  H  H19  1  0.23028678  0.10391624  0.24086805  1.0
  H  H20  1  0.56671786  0.12935781  0.70302382  1.0
  H  H21  1  0.64440255  0.12735694  0.62063860  1.0
  H  H22  1  0.63567925  0.00410114  0.72708572  1.0
  H  H23  1  0.70646799  0.99855732  0.64407774  1.0
  H  H24  1  0.75980763  0.79533649  0.57665186  1.0
  H  H25  1  0.85515630  0.10063403  0.67829922  1.0
  H  H26  1  0.86610374  0.02848108  0.73821277  1.0
  H  H27  1  0.78497110  0.10756027  0.76209865  1.0
  H  H28  1  0.36694231  0.11794618  0.61086706  1.0
  H  H29  1  0.64470846  0.12202138  0.39516757  1.0
  H  H30  1  0.28728859  0.26412177  0.60546828  1.0
  H  H31  1  0.71856627  0.26952316  0.40446889  1.0
  H  H32  1  0.14719208  0.58685815  0.46230646  1.0
  H  H33  1  0.98136540  0.57135330  0.52879211  1.0
  H  H34  1  0.54528977  0.40942996  0.66073991  1.0
  H  H35  1  0.25434964  0.79387145  0.41783183  1.0
  H  H36  1  0.67061040  0.39688671  0.35285579  1.0
  H  H37  1  0.80661668  0.51999140  0.83403498  1.0
  H  H38  1  0.82273562  0.45055652  0.76821146  1.0
  H  H39  1  0.86677918  0.43100206  0.92659204  1.0
  H  H40  1  0.89869183  0.36675890  0.85956998  1.0
  H  H41  1  0.05743519  0.45557348  0.80830486  1.0
  H  H42  1  0.09651245  0.43305682  0.89631300  1.0
  H  H43  1  0.02636743  0.51683459  0.87829370  1.0
  H  H44  1  0.74570149  0.31120004  0.09138648  1.0
  H  H45  1  0.59377261  0.34802990  0.09570201  1.0
  H  H46  1  0.69441736  0.87061624  0.39242090  1.0
  H  H47  1  0.71951709  0.26079195  0.21193881  1.0
  H  H48  1  0.56891492  0.29684304  0.21619712  1.0
  H  H49  1  0.49992891  0.21993277  0.11107928  1.0
  H  H50  1  0.55755689  0.16511782  0.17963831  1.0
  H  H51  1  0.65118043  0.18353005  0.10573192  1.0
  H  H52  1  0.47313417  0.72630549  0.91530550  1.0
  H  H53  1  0.39475577  0.74562718  0.83507760  1.0
  H  H54  1  0.64959675  0.67439095  0.84579761  1.0
  H  H55  1  0.57256134  0.69674721  0.76664217  1.0
  H  H56  1  0.58193616  0.82887667  0.80094305  1.0
  H  H57  1  0.69628585  0.94642351  0.33508312  1.0
  H  H58  1  0.73238164  0.79150337  0.80127498  1.0
  H  H59  1  0.65572253  0.80750082  0.88197782  1.0
  H  H60  1  0.54293902  0.67409607  0.14055490  1.0
  H  H61  1  0.39977387  0.68532802  0.18575930  1.0
  H  H62  1  0.42960645  0.65443502  0.02730281  1.0
  H  H63  1  0.28588313  0.65474418  0.07065228  1.0
  H  H64  1  0.31791430  0.78558902  0.10561128  1.0
  H  H65  1  0.32529771  0.77408884  0.01288592  1.0
  H  H66  1  0.46425343  0.78699904  0.06338462  1.0
  H  H67  1  0.30411149  0.64679388  0.76986889  1.0
  H  H68  1  0.57321049  0.79832844  0.30287611  1.0
  H  H69  1  0.47220149  0.60584842  0.34013690  1.0
  H  H70  1  0.84089378  0.69477642  0.92285388  1.0
  H  H71  1  0.87873558  0.64921616  0.00196115  1.0
  H  H72  1  0.63494535  0.72793997  0.97394487  1.0
  H  H73  1  0.67526116  0.68345818  0.05236199  1.0
  H  H74  1  0.85860542  0.76861376  0.07116492  1.0
  H  H75  1  0.71718014  0.81620305  0.06580232  1.0
  H  H76  1  0.81834590  0.81428555  0.99277866  1.0
  H  H77  1  0.93392211  0.53918151  0.02972473  1.0
  H  H78  1  0.86368486  0.47186590  0.08415200  1.0
  H  H79  1  0.56783668  0.87330911  0.24670455  1.0
  H  H80  1  0.92315577  0.54006519  0.19120114  1.0
  H  H81  1  0.05492764  0.52082892  0.14011979  1.0
  H  H82  1  0.05381638  0.64859536  0.09333830  1.0
  H  H83  1  0.07020804  0.64747469  0.18632996  1.0
  H  H84  1  0.92391306  0.66760434  0.14719563  1.0
  H  H85  1  0.34237269  0.40873074  0.03166965  1.0
  H  H86  1  0.38132933  0.46040796  0.88063437  1.0
  H  H87  1  0.69469454  0.63501567  0.55721054  1.0
  H  H88  1  0.31137719  0.63396740  0.44094494  1.0
  H  H89  1  0.80186703  0.87174376  0.23524656  1.0
  C  C90  1  0.56815275  0.50327101  0.37661299  1.0
  C  C91  1  0.47828734  0.48159050  0.96462167  1.0
  C  C92  1  0.59771279  0.72186708  0.53041594  1.0
  C  C93  1  0.40857708  0.72155893  0.46920838  1.0
  C  C94  1  0.60411050  0.79760136  0.52973033  1.0
  C  C95  1  0.40815380  0.79682591  0.46744393  1.0
  C  C96  1  0.50748260  0.83586329  0.49853953  1.0
  C  C97  1  0.51816605  0.95362302  0.43638977  1.0
  C  C98  1  0.49557357  0.95305725  0.56332859  1.0
  C  C99  1  0.51625610  0.02927078  0.43802582  1.0
  C  C100  1  0.49626731  0.02865968  0.56447024  1.0
  C  C101  1  0.43410744  0.50890937  0.63530573  1.0
  C  C102  1  0.50592198  0.06846930  0.50197162  1.0
  C  C103  1  0.72299691  0.49178501  0.54837303  1.0
  C  C104  1  0.26027145  0.48620795  0.46817899  1.0
  C  C105  1  0.50825515  0.91542798  0.49928651  1.0
  C  C106  1  0.41760980  0.18725267  0.54325373  1.0
  C  C107  1  0.58960289  0.18965781  0.46431820  1.0
  C  C108  1  0.41963941  0.26291184  0.54260035  1.0
  C  C109  1  0.58415259  0.26503215  0.46649432  1.0
  C  C110  1  0.50425539  0.14831055  0.50327178  1.0
  C  C111  1  0.05312608  0.43165317  0.50156244  1.0
  C  C112  1  0.46096605  0.51578437  0.71158643  1.0
  C  C113  1  0.92368212  0.43668310  0.52293749  1.0
  C  C114  1  0.12626572  0.48756633  0.47844064  1.0
  C  C115  1  0.85845267  0.49709690  0.54424673  1.0
  C  C116  1  0.54752642  0.46761343  0.74225526  1.0
  C  C117  1  0.64499979  0.44423703  0.26639342  1.0
  C  C118  1  0.59016841  0.47916879  0.81191384  1.0
  C  C119  1  0.65398746  0.44299153  0.19264669  1.0
  C  C120  1  0.54058654  0.53428410  0.85426809  1.0
  C  C121  1  0.58673368  0.49286852  0.15323791  1.0
  C  C122  1  0.45562913  0.58195763  0.82395049  1.0
  C  C123  1  0.57918161  0.50069883  0.30009422  1.0
  C  C124  1  0.51111167  0.54411739  0.18622220  1.0
  C  C125  1  0.41634786  0.57295278  0.75349732  1.0
  C  C126  1  0.51419536  0.55205035  0.25949023  1.0
  C  C127  1  0.64380219  0.89712310  0.34928075  1.0
  C  C128  1  0.62586784  0.84645474  0.28631523  1.0
  C  C129  1  0.74965792  0.82459340  0.25439653  1.0
  C  C130  1  0.35740598  0.89450444  0.64033628  1.0
  C  C131  1  0.35870843  0.84625266  0.70405567  1.0
  C  C132  1  0.22729653  0.82194955  0.72370186  1.0
  C  C133  1  0.41367172  0.09301551  0.34427795  1.0
  C  C134  1  0.66179013  0.55927021  0.97075055  1.0
  C  C135  1  0.32815541  0.03396733  0.31416958  1.0
  C  C136  1  0.20951976  0.06612337  0.28336190  1.0
  C  C137  1  0.59820796  0.09382232  0.66028324  1.0
  C  C138  1  0.68435270  0.03611336  0.68739669  1.0
  C  C139  1  0.80409759  0.07015149  0.71820637  1.0
  C  C140  1  0.80342702  0.46116803  0.82433462  1.0
  C  C141  1  0.89728029  0.42500190  0.87176926  1.0
  C  C142  1  0.02655346  0.45926565  0.86322018  1.0
  C  C143  1  0.67493278  0.33193677  0.12742818  1.0
  C  C144  1  0.63750887  0.27433507  0.17982310  1.0
  C  C145  1  0.67694070  0.54120970  0.04199464  1.0
  C  C146  1  0.58357972  0.20712794  0.14208260  1.0
  C  C147  1  0.46178479  0.70910582  0.85989581  1.0
  C  C148  1  0.58543726  0.71304751  0.82224980  1.0
  C  C149  1  0.64156211  0.78945527  0.82698602  1.0
  C  C150  1  0.44318036  0.65890442  0.14007238  1.0
  C  C151  1  0.37980277  0.67937322  0.07144348  1.0
  C  C152  1  0.37152726  0.76091134  0.06288187  1.0
  C  C153  1  0.80149753  0.66546091  0.96753920  1.0
  C  C154  1  0.71364799  0.71361123  0.00817424  1.0
  C  C155  1  0.78067717  0.78188363  0.03588112  1.0
  C  C156  1  0.58868302  0.49665679  0.07522414  1.0
  C  C157  1  0.88755340  0.52965042  0.08051651  1.0
  C  C158  1  0.97054175  0.55368683  0.14202869  1.0
  C  C159  1  0.00645938  0.63385515  0.14223294  1.0
  C  C160  1  0.56114691  0.52882887  0.93165572  1.0
  C  C161  1  0.49015103  0.46630714  0.03611090  1.0
  N  N162  1  0.50026743  0.68512289  0.50121540  1.0
  N  N163  1  0.50074694  0.30144133  0.50454082  1.0
  O  O164  1  0.54437104  0.56457891  0.40604568  1.0
  O  O165  1  0.86896801  0.36980479  0.52076627  1.0
  O  O166  1  0.70568469  0.83289617  0.55832227  1.0
  O  O167  1  0.30997200  0.83151484  0.43758438  1.0
  O  O168  1  0.52159311  0.91721476  0.37324705  1.0
  O  O169  1  0.48443077  0.91601403  0.62499681  1.0
  O  O170  1  0.52884495  0.06476082  0.37455750  1.0
  O  O171  1  0.48280227  0.06355399  0.62914672  1.0
  O  O172  1  0.32618233  0.15714325  0.58373924  1.0
  O  O173  1  0.68333215  0.16223452  0.42404439  1.0
  O  O174  1  0.33855632  0.30023390  0.58147705  1.0
  O  O175  1  0.40721891  0.56480228  0.60049869  1.0
  O  O176  1  0.66648684  0.30422896  0.42963354  1.0
  O  O177  1  0.07412921  0.55444531  0.46666047  1.0
  O  O178  1  0.90674316  0.56376039  0.55892148  1.0
  O  O179  1  0.59314285  0.41076293  0.70657417  1.0
  O  O180  1  0.70216781  0.39244195  0.30396596  1.0
  O  O181  1  0.67888204  0.43455323  0.83957415  1.0
  O  O182  1  0.73306965  0.39486214  0.16055274  1.0
  O  O183  1  0.40107491  0.63745240  0.86186807  1.0
  O  O184  1  0.42964163  0.58179417  0.14503304  1.0
  O  O185  1  0.33046018  0.61949043  0.72801042  1.0
  O  O186  1  0.58048957  0.44532436  0.41185326  1.0
  O  O187  1  0.44935333  0.60661309  0.28910664  1.0
  O  O188  1  0.74334527  0.60248156  0.93403335  1.0
  O  O189  1  0.77369084  0.57057787  0.08253403  1.0
  O  O190  1  0.40425968  0.42236177  0.06780544  1.0
  O  O191  1  0.37916172  0.44775057  0.93038700  1.0
  O  O192  1  0.69436127  0.68955091  0.56185063  1.0
  O  O193  1  0.31055025  0.68772493  0.43662313  1.0
  O  O194  1  0.44808655  0.44595404  0.60684211  1.0
  O  O195  1  0.65962314  0.54984852  0.55029521  1.0
  O  O196  1  0.31095284  0.54963859  0.45913657  1.0
  O  O197  1  0.67196483  0.42824409  0.54745418  1.0
  O  O198  1  0.31956377  0.42801181  0.47044546  1.0
  O  O199  1  0.09810104  0.36371470  0.50242066  1.0
