# generated using pymatgen
data_LaH17C27O7
_symmetry_space_group_name_H-M   'P 1'
_cell_length_a   12.51506201
_cell_length_b   17.22734075
_cell_length_c   17.22735663
_cell_angle_alpha   114.34451582
_cell_angle_beta   104.00616354
_cell_angle_gamma   104.00645612
_symmetry_Int_Tables_number   1
_chemical_formula_structural   LaH17C27O7
_chemical_formula_sum   'La3 H51 C81 O21'
_cell_volume   3028.01110721
_cell_formula_units_Z   3
loop_
 _symmetry_equiv_pos_site_id
 _symmetry_equiv_pos_as_xyz
  1  'x, y, z'
loop_
 _atom_site_type_symbol
 _atom_site_label
 _atom_site_symmetry_multiplicity
 _atom_site_fract_x
 _atom_site_fract_y
 _atom_site_fract_z
 _atom_site_occupancy
  La  La0  1  0.32590018  0.65174185  0.32587483  1.0
  La  La1  1  0.00000052  0.67412262  0.32587828  1.0
  La  La2  1  0.67410123  0.67412708  0.34825914  1.0
  H  H3  1  0.47749388  0.94439746  0.60745280  1.0
  H  H4  1  0.87002981  0.39265330  0.33690028  1.0
  H  H5  1  0.53314675  0.66306085  0.05577152  1.0
  H  H6  1  0.12997403  0.66309532  0.60734501  1.0
  H  H7  1  0.46685196  0.94422972  0.33694007  1.0
  H  H8  1  0.52250204  0.39254553  0.05559903  1.0
  H  H9  1  0.55052768  0.11600927  0.68860653  1.0
  H  H10  1  0.86207752  0.31142910  0.42725945  1.0
  H  H11  1  0.43474212  0.57272619  0.88413440  1.0
  H  H12  1  0.13792593  0.57273833  0.68857087  1.0
  H  H13  1  0.56526109  0.11586684  0.42727335  1.0
  H  H14  1  0.44947187  0.31138984  0.88398929  1.0
  H  H15  1  0.27287052  0.09728257  0.46881312  1.0
  H  H16  1  0.80417402  0.53121942  0.62852075  1.0
  H  H17  1  0.17560647  0.37156534  0.90266068  1.0
  H  H18  1  0.19582943  0.37147569  0.46878326  1.0
  H  H19  1  0.82439535  0.09734334  0.62843527  1.0
  H  H20  1  0.72712845  0.53118617  0.90271585  1.0
  H  H21  1  0.20116199  0.92591188  0.38917923  1.0
  H  H22  1  0.81214511  0.61093466  0.53689478  1.0
  H  H23  1  0.27510287  0.46317242  0.07400265  1.0
  H  H24  1  0.18785585  0.46309779  0.38906473  1.0
  H  H25  1  0.72489723  0.92600189  0.53683094  1.0
  H  H26  1  0.79883286  0.61081932  0.07408450  1.0
  H  H27  1  0.50000074  0.23236125  0.76763504  1.0
  H  H28  1  0.73223736  0.23234114  0.46462012  1.0
  H  H29  1  0.26776335  0.53537981  0.76766190  1.0
  H  H30  1  0.42892750  0.23254900  0.51089193  1.0
  H  H31  1  0.91804485  0.48905960  0.72159576  1.0
  H  H32  1  0.19633919  0.27847830  0.76751356  1.0
  H  H33  1  0.08196189  0.27840092  0.51094709  1.0
  H  H34  1  0.80366699  0.23249535  0.72152130  1.0
  H  H35  1  0.57106799  0.48910248  0.76744280  1.0
  H  H36  1  0.45038020  0.52101048  0.67239008  1.0
  H  H37  1  0.77810791  0.32770096  0.84869477  1.0
  H  H38  1  0.92924841  0.15130012  0.47901755  1.0
  H  H39  1  0.22190485  0.15130638  0.67231047  1.0
  H  H40  1  0.07076570  0.52099372  0.84869460  1.0
  H  H41  1  0.54961476  0.32760820  0.47898586  1.0
  H  H42  1  0.44667545  0.60452695  0.58453735  1.0
  H  H43  1  0.86226228  0.41560380  0.02005355  1.0
  H  H44  1  0.84208667  0.97993957  0.39548500  1.0
  H  H45  1  0.13775263  0.97994650  0.58441226  1.0
  H  H46  1  0.15792969  0.60452937  0.02005656  1.0
  H  H47  1  0.55332338  0.41546293  0.39547140  1.0
  H  H48  1  0.27002607  0.42802249  0.20060318  1.0
  H  H49  1  0.06939501  0.79935302  0.22755727  1.0
  H  H50  1  0.84181958  0.77242815  0.57192931  1.0
  H  H51  1  0.93060399  0.77242057  0.20062691  1.0
  H  H52  1  0.15818055  0.42807345  0.22757410  1.0
  H  H53  1  0.72997006  0.79939573  0.57197708  1.0
  C  C54  1  0.29980284  0.82320950  0.44358906  1.0
  C  C55  1  0.85618258  0.55651870  0.37967318  1.0
  C  C56  1  0.47652500  0.62034718  0.17681866  1.0
  C  C57  1  0.14381996  0.62032195  0.44348023  1.0
  C  C58  1  0.52347628  0.82318264  0.37965480  1.0
  C  C59  1  0.70019434  0.55641049  0.17678736  1.0
  C  C60  1  0.33531943  0.92499383  0.49336549  1.0
  C  C61  1  0.84199825  0.50674130  0.43167930  1.0
  C  C62  1  0.41026812  0.56833572  0.07504318  1.0
  C  C63  1  0.15800606  0.56831559  0.49325733  1.0
  C  C64  1  0.58973497  0.92495930  0.43166453  1.0
  C  C65  1  0.66467603  0.50663367  0.07500260  1.0
  C  C66  1  0.43276722  0.97899651  0.57858175  1.0
  C  C67  1  0.85421759  0.42150622  0.40040379  1.0
  C  C68  1  0.45380470  0.59960545  0.02111257  1.0
  C  C69  1  0.14578762  0.59959237  0.57849306  1.0
  C  C70  1  0.54619925  0.97889022  0.40039397  1.0
  C  C71  1  0.56722889  0.42141626  0.02100076  1.0
  C  C72  1  0.47280296  0.07463816  0.62343838  1.0
  C  C73  1  0.84944084  0.37658103  0.45112293  1.0
  C  C74  1  0.39828975  0.54891027  0.92545792  1.0
  C  C75  1  0.15057011  0.54887630  0.62342169  1.0
  C  C76  1  0.60171359  0.07454334  0.45108925  1.0
  C  C77  1  0.52719574  0.37655866  0.92535849  1.0
  C  C78  1  0.41728884  0.11906265  0.58423391  1.0
  C  C79  1  0.83311042  0.41574418  0.53476682  1.0
  C  C80  1  0.29831099  0.46529888  0.88097900  1.0
  C  C81  1  0.16689709  0.46523111  0.58426049  1.0
  C  C82  1  0.70169401  0.11902630  0.53470220  1.0
  C  C83  1  0.58270998  0.41576260  0.88093418  1.0
  C  C84  1  0.31965642  0.06425650  0.49876296  1.0
  C  C85  1  0.82099229  0.50125624  0.56553163  1.0
  C  C86  1  0.25540047  0.43454523  0.93570844  1.0
  C  C87  1  0.17901170  0.43446485  0.49874668  1.0
  C  C88  1  0.74460294  0.06429400  0.56545292  1.0
  C  C89  1  0.68034152  0.50123499  0.93573944  1.0
  C  C90  1  0.27870182  0.96841461  0.45417859  1.0
  C  C91  1  0.82466247  0.54591551  0.51434002  1.0
  C  C92  1  0.31019544  0.48573999  0.03156202  1.0
  C  C93  1  0.17534378  0.48565683  0.45408633  1.0
  C  C94  1  0.68980911  0.96844249  0.51425951  1.0
  C  C95  1  0.72129426  0.54581963  0.03158252  1.0
  C  C96  1  0.45965420  0.22079444  0.63348907  1.0
  C  C97  1  0.82614259  0.36647181  0.58722660  1.0
  C  C98  1  0.23892726  0.41281765  0.77924464  1.0
  C  C99  1  0.17386120  0.41277083  0.63353258  1.0
  C  C100  1  0.76107661  0.22076293  0.58718273  1.0
  C  C101  1  0.54034549  0.36650667  0.77920145  1.0
  C  C102  1  0.50000038  0.27000309  0.72999234  1.0
  C  C103  1  0.76991323  0.26997965  0.53990442  1.0
  C  C104  1  0.23009233  0.46009532  0.73002462  1.0
  C  C105  1  0.46007524  0.27008243  0.58598493  1.0
  C  C106  1  0.87409343  0.41397194  0.68403865  1.0
  C  C107  1  0.18994923  0.31601232  0.72996074  1.0
  C  C108  1  0.12591206  0.31595935  0.58603387  1.0
  C  C109  1  0.81005364  0.27004744  0.68398910  1.0
  C  C110  1  0.53992141  0.41400872  0.72991241  1.0
  C  C111  1  0.49999658  0.36676066  0.63323384  1.0
  C  C112  1  0.86687623  0.36673388  0.73348987  1.0
  C  C113  1  0.13313250  0.26650891  0.63327542  1.0
  C  C114  1  0.49999774  0.41786047  0.58213497  1.0
  C  C115  1  0.91802511  0.41781699  0.83572585  1.0
  C  C116  1  0.08198325  0.16427211  0.58219407  1.0
  C  C117  1  0.47415714  0.49786493  0.61215719  1.0
  C  C118  1  0.86216199  0.38786695  0.88573536  1.0
  C  C119  1  0.97618205  0.11423671  0.50218321  1.0
  C  C120  1  0.13785127  0.11426390  0.61214875  1.0
  C  C121  1  0.02383149  0.49782922  0.88575737  1.0
  C  C122  1  0.52583760  0.38784296  0.50213300  1.0
  C  C123  1  0.47191601  0.54500587  0.56315331  1.0
  C  C124  1  0.90891751  0.43688909  0.98188259  1.0
  C  C125  1  0.92682635  0.01808310  0.45501236  1.0
  C  C126  1  0.09109614  0.01811676  0.56312919  1.0
  C  C127  1  0.07318781  0.54500375  0.98191365  1.0
  C  C128  1  0.52808181  0.43684687  0.45499251  1.0
  C  C129  1  0.50000016  0.51547532  0.48452799  1.0
  C  C130  1  0.01559967  0.51548973  0.03101327  1.0
  C  C131  1  0.98441670  0.96898458  0.48452720  1.0
  C  C132  1  0.49999677  0.56725279  0.43274866  1.0
  C  C133  1  0.06726218  0.56724305  0.13457562  1.0
  C  C134  1  0.93275427  0.86542271  0.43276853  1.0
  O  O135  1  0.36437369  0.78834350  0.47566591  1.0
  O  O136  1  0.88852817  0.52437671  0.31262741  1.0
  O  O137  1  0.57589082  0.68735644  0.21169109  1.0
  O  O138  1  0.11147135  0.68736680  0.47562404  1.0
  O  O139  1  0.42411117  0.78831238  0.31264573  1.0
  O  O140  1  0.63562343  0.52433272  0.21165378  1.0
  O  O141  1  0.20885986  0.77258445  0.36544535  1.0
  O  O142  1  0.84352505  0.63472401  0.40726108  1.0
  O  O143  1  0.43627944  0.59280397  0.22746211  1.0
  O  O144  1  0.15647602  0.59273497  0.36527529  1.0
  O  O145  1  0.56371576  0.77253670  0.40719586  1.0
  O  O146  1  0.79114075  0.63455247  0.22741269  1.0
  O  O147  1  0.42939754  0.60969711  0.43399573  1.0
  O  O148  1  0.99536878  0.56590668  0.17572555  1.0
  O  O149  1  0.81974033  0.82417539  0.39021437  1.0
  O  O150  1  0.00464582  0.82427342  0.43410966  1.0
  O  O151  1  0.18027444  0.60978698  0.17582439  1.0
  O  O152  1  0.57059749  0.56600651  0.39030069  1.0
  O  O153  1  0.23352679  0.46713306  0.23345534  1.0
  O  O154  1  0.00000847  0.76636589  0.23365800  1.0
  O  O155  1  0.76647169  0.76654510  0.53286799  1.0
