# generated using pymatgen
data_Ni4H27C36(N4O)3
_symmetry_space_group_name_H-M   'P 1'
_cell_length_a   17.87361407
_cell_length_b   17.87267473
_cell_length_c   17.87320613
_cell_angle_alpha   60.00485807
_cell_angle_beta   60.00550454
_cell_angle_gamma   60.00537986
_symmetry_Int_Tables_number   1
_chemical_formula_structural   Ni4H27C36(N4O)3
_chemical_formula_sum   'Ni8 H54 C72 N24 O6'
_cell_volume   4037.76518295
_cell_formula_units_Z   2
loop_
 _symmetry_equiv_pos_site_id
 _symmetry_equiv_pos_as_xyz
  1  'x, y, z'
loop_
 _atom_site_type_symbol
 _atom_site_label
 _atom_site_symmetry_multiplicity
 _atom_site_fract_x
 _atom_site_fract_y
 _atom_site_fract_z
 _atom_site_occupancy
  Ni  Ni0  1  0.94088705  0.94094237  0.94095226  1.0
  Ni  Ni1  1  0.94085320  0.94091710  0.17725202  1.0
  Ni  Ni2  1  0.17731013  0.94087829  0.94087709  1.0
  Ni  Ni3  1  0.94085233  0.17727298  0.94091074  1.0
  Ni  Ni4  1  0.05914682  0.05908253  0.82274847  1.0
  Ni  Ni5  1  0.05911434  0.05905551  0.05904954  1.0
  Ni  Ni6  1  0.82269399  0.05911997  0.05912315  1.0
  Ni  Ni7  1  0.05914837  0.82272642  0.05909009  1.0
  H  H8  1  0.88172499  0.11824857  0.88169077  1.0
  H  H9  1  0.11827296  0.88175175  0.11831097  1.0
  H  H10  1  0.11818689  0.88163544  0.88175757  1.0
  H  H11  1  0.88181175  0.11836465  0.11824170  1.0
  H  H12  1  0.88177314  0.88161980  0.11820360  1.0
  H  H13  1  0.11822550  0.11838158  0.88179671  1.0
  H  H14  1  0.08534845  0.08536226  0.34643451  1.0
  H  H15  1  0.08565130  0.08574081  0.21665539  1.0
  H  H16  1  0.08531305  0.08531814  0.48301944  1.0
  H  H17  1  0.08560356  0.08565660  0.61205838  1.0
  H  H18  1  0.48299670  0.34636744  0.08531498  1.0
  H  H19  1  0.61209752  0.21664700  0.08559236  1.0
  H  H20  1  0.34643023  0.48286863  0.08534315  1.0
  H  H21  1  0.21661818  0.61201793  0.08562745  1.0
  H  H22  1  0.08533820  0.34640222  0.08533905  1.0
  H  H23  1  0.08566434  0.21672019  0.08567252  1.0
  H  H24  1  0.08532334  0.48298119  0.08532610  1.0
  H  H25  1  0.08564471  0.61198293  0.08566195  1.0
  H  H26  1  0.34640898  0.08533908  0.48291088  1.0
  H  H27  1  0.21660719  0.08564215  0.61208164  1.0
  H  H28  1  0.48294117  0.08533067  0.34639417  1.0
  H  H29  1  0.61209203  0.08563409  0.21660725  1.0
  H  H30  1  0.34644089  0.08536448  0.08535086  1.0
  H  H31  1  0.21665693  0.08573478  0.08565218  1.0
  H  H32  1  0.48303429  0.08531398  0.08531046  1.0
  H  H33  1  0.61208171  0.08564016  0.08560322  1.0
  H  H34  1  0.08534054  0.48288035  0.34642069  1.0
  H  H35  1  0.08562078  0.61200636  0.21662751  1.0
  H  H36  1  0.08532069  0.34637073  0.48298219  1.0
  H  H37  1  0.08560021  0.21665497  0.61206637  1.0
  H  H38  1  0.91469313  0.91469042  0.51697239  1.0
  H  H39  1  0.91439712  0.91434927  0.38793922  1.0
  H  H40  1  0.91465773  0.91464630  0.65355732  1.0
  H  H41  1  0.91435144  0.91426373  0.78333681  1.0
  H  H42  1  0.51699715  0.65362198  0.91469258  1.0
  H  H43  1  0.38790043  0.78333975  0.91441560  1.0
  H  H44  1  0.65356293  0.51712166  0.91466432  1.0
  H  H45  1  0.78337361  0.38797540  0.91437975  1.0
  H  H46  1  0.91468686  0.65362122  0.51700942  1.0
  H  H47  1  0.91440460  0.78333596  0.38793160  1.0
  H  H48  1  0.91466632  0.51711312  0.65356939  1.0
  H  H49  1  0.91438404  0.38799425  0.78336058  1.0
  H  H50  1  0.65355364  0.91464603  0.91465756  1.0
  H  H51  1  0.78333623  0.91427166  0.91435393  1.0
  H  H52  1  0.51696093  0.91469759  0.91469877  1.0
  H  H53  1  0.38791968  0.91436677  0.91440189  1.0
  H  H54  1  0.65358350  0.91467146  0.51707562  1.0
  H  H55  1  0.78338391  0.91436433  0.38791485  1.0
  H  H56  1  0.51705200  0.91468029  0.65359065  1.0
  H  H57  1  0.38790935  0.91437348  0.78337740  1.0
  H  H58  1  0.91468490  0.51701053  0.91468263  1.0
  H  H59  1  0.91436147  0.38801142  0.91434817  1.0
  H  H60  1  0.91467072  0.65358734  0.91466986  1.0
  H  H61  1  0.91434116  0.78326921  0.91433538  1.0
  C  C62  1  0.00001833  0.00002960  0.42003817  1.0
  C  C63  1  0.00002601  0.00004549  0.33838407  1.0
  C  C64  1  0.99998581  0.99998093  0.57995313  1.0
  C  C65  1  0.99997743  0.99996075  0.66161029  1.0
  C  C66  1  0.57998183  0.42004347  0.99999040  1.0
  C  C67  1  0.66164477  0.33839645  0.99998848  1.0
  C  C68  1  0.42001202  0.57994723  0.00001596  1.0
  C  C69  1  0.33834841  0.66159448  0.00001978  1.0
  C  C70  1  0.00001001  0.42006406  0.00000970  1.0
  C  C71  1  0.00001467  0.33842859  0.00001293  1.0
  C  C72  1  0.99999618  0.57992770  0.99999891  1.0
  C  C73  1  0.99999082  0.66156405  0.99999671  1.0
  C  C74  1  0.42001637  0.00000936  0.57996497  1.0
  C  C75  1  0.33836208  0.00000565  0.66162646  1.0
  C  C76  1  0.57997654  0.00000241  0.42001852  1.0
  C  C77  1  0.66163152  0.00000330  0.33836200  1.0
  C  C78  1  0.42002398  0.00003406  0.00002208  1.0
  C  C79  1  0.33836230  0.00004933  0.00002819  1.0
  C  C80  1  0.57996987  0.99997732  0.99998625  1.0
  C  C81  1  0.66163428  0.99995920  0.99997852  1.0
  C  C82  1  0.00001253  0.57993749  0.42002826  1.0
  C  C83  1  0.00001485  0.66157746  0.33837361  1.0
  C  C84  1  0.99999365  0.42005750  0.57996252  1.0
  C  C85  1  0.99999270  0.33841837  0.66161774  1.0
  C  C86  1  0.04752502  0.04753520  0.41364485  1.0
  C  C87  1  0.04376406  0.04381326  0.24581242  1.0
  C  C88  1  0.04750830  0.04751240  0.49137814  1.0
  C  C89  1  0.04374216  0.04372713  0.66666667  1.0
  C  C90  1  0.49138127  0.41360907  0.04750291  1.0
  C  C91  1  0.66672789  0.24581594  0.04371610  1.0
  C  C92  1  0.41364232  0.49131359  0.04751741  1.0
  C  C93  1  0.24577916  0.66666667  0.04374843  1.0
  C  C94  1  0.04752519  0.41363064  0.04752630  1.0
  C  C95  1  0.04376713  0.24585749  0.04376433  1.0
  C  C96  1  0.04751903  0.49134698  0.04751994  1.0
  C  C97  1  0.04371398  0.66666667  0.04375216  1.0
  C  C98  1  0.41362884  0.04751610  0.49133830  1.0
  C  C99  1  0.24577568  0.04375229  0.66671602  1.0
  C  C100  1  0.49135781  0.04750912  0.41362137  1.0
  C  C101  1  0.66671728  0.04375033  0.24577361  1.0
  C  C102  1  0.41364901  0.04753559  0.04752680  1.0
  C  C103  1  0.24579563  0.04381364  0.04376027  1.0
  C  C104  1  0.49139003  0.04750849  0.04750562  1.0
  C  C105  1  0.66671429  0.04372586  0.04371391  1.0
  C  C106  1  0.04751764  0.49131860  0.41363590  1.0
  C  C107  1  0.04373000  0.66666667  0.24579687  1.0
  C  C108  1  0.04750983  0.41361149  0.49136712  1.0
  C  C109  1  0.04372182  0.24583755  0.66670031  1.0
  C  C110  1  0.95249582  0.95249685  0.50861381  1.0
  C  C111  1  0.95625760  0.95627828  0.33333333  1.0
  C  C112  1  0.95247980  0.95247511  0.58634622  1.0
  C  C113  1  0.95629408  0.95619169  0.75418090  1.0
  C  C114  1  0.50861188  0.58638057  0.95250489  1.0
  C  C115  1  0.33326938  0.75417168  0.95629233  1.0
  C  C116  1  0.58635152  0.50867712  0.95248895  1.0
  C  C117  1  0.75420779  0.33333333  0.95625785  1.0
  C  C118  1  0.95249842  0.58638217  0.50862273  1.0
  C  C119  1  0.95624658  0.75415444  0.33333333  1.0
  C  C120  1  0.95248991  0.50867594  0.58635330  1.0
  C  C121  1  0.95627220  0.33333333  0.75419339  1.0
  C  C122  1  0.58634415  0.95247602  0.95248288  1.0
  C  C123  1  0.75422863  0.95619166  0.95624638  1.0
  C  C124  1  0.50860450  0.95250331  0.95250272  1.0
  C  C125  1  0.33328572  0.95628088  0.95629254  1.0
  C  C126  1  0.58636363  0.95249509  0.50864676  1.0
  C  C127  1  0.75416113  0.95625483  0.33333333  1.0
  C  C128  1  0.50863467  0.95250078  0.58636377  1.0
  C  C129  1  0.33328342  0.95625683  0.75421159  1.0
  C  C130  1  0.95248920  0.50864346  0.95248943  1.0
  C  C131  1  0.95628434  0.33333333  0.95625851  1.0
  C  C132  1  0.95248236  0.58636002  0.95248330  1.0
  C  C133  1  0.95628651  0.75413431  0.95624585  1.0
  N  N134  1  0.02672804  0.02675735  0.19152007  1.0
  N  N135  1  0.02668290  0.02668798  0.75506212  1.0
  N  N136  1  0.75508190  0.19153043  0.02668878  1.0
  N  N137  1  0.19149419  0.75504492  0.02671493  1.0
  N  N138  1  0.02672376  0.19156228  0.02671875  1.0
  N  N139  1  0.02670794  0.75500937  0.02671500  1.0
  N  N140  1  0.19149930  0.02670508  0.75509313  1.0
  N  N141  1  0.75507658  0.02671255  0.19149298  1.0
  N  N142  1  0.19151042  0.02675605  0.02671990  1.0
  N  N143  1  0.75506860  0.02669129  0.02668994  1.0
  N  N144  1  0.02671591  0.75502158  0.19150970  1.0
  N  N145  1  0.02668935  0.19154814  0.75506954  1.0
  N  N146  1  0.97331780  0.97331530  0.24493676  1.0
  N  N147  1  0.97327334  0.97324506  0.80847723  1.0
  N  N148  1  0.24491605  0.80846149  0.97331828  1.0
  N  N149  1  0.80850172  0.24494898  0.97329216  1.0
  N  N150  1  0.97331340  0.80844800  0.24492797  1.0
  N  N151  1  0.97328616  0.24497736  0.80848563  1.0
  N  N152  1  0.80848891  0.97324639  0.97328568  1.0
  N  N153  1  0.24493211  0.97331134  0.97331542  1.0
  N  N154  1  0.80849661  0.97329915  0.24490376  1.0
  N  N155  1  0.24492413  0.97329138  0.80849942  1.0
  N  N156  1  0.97329413  0.24498441  0.97329466  1.0
  N  N157  1  0.97327899  0.80843192  0.97329036  1.0
  O  O158  1  0.92029046  0.07970956  0.92040726  1.0
  O  O159  1  0.07970613  0.92028863  0.07959678  1.0
  O  O160  1  0.07975888  0.92031860  0.92035757  1.0
  O  O161  1  0.92023702  0.07967982  0.07964447  1.0
  O  O162  1  0.92029846  0.92037623  0.07970457  1.0
  O  O163  1  0.07969950  0.07962667  0.92029643  1.0
