# generated using pymatgen
data_Zn4H8C40Br4Cl8O13
_symmetry_space_group_name_H-M   'P 1'
_cell_length_a   23.98814519
_cell_length_b   23.98842730
_cell_length_c   23.98670465
_cell_angle_alpha   66.58634765
_cell_angle_beta   72.46029640
_cell_angle_gamma   107.53595669
_symmetry_Int_Tables_number   1
_chemical_formula_structural   Zn4H8C40Br4Cl8O13
_chemical_formula_sum   'Zn8 H16 C80 Br8 Cl16 O26'
_cell_volume   10587.15715417
_cell_formula_units_Z   2
loop_
 _symmetry_equiv_pos_site_id
 _symmetry_equiv_pos_as_xyz
  1  'x, y, z'
loop_
 _atom_site_type_symbol
 _atom_site_label
 _atom_site_symmetry_multiplicity
 _atom_site_fract_x
 _atom_site_fract_y
 _atom_site_fract_z
 _atom_site_occupancy
  Zn  Zn0  1  0.05693509  0.09923087  0.45769319  1.0
  Zn  Zn1  1  0.05693373  0.95770252  0.48535932  1.0
  Zn  Zn2  1  0.94305999  0.95769134  0.59924393  1.0
  Zn  Zn3  1  0.94307814  0.98537707  0.45768774  1.0
  Zn  Zn4  1  0.94306639  0.40076906  0.04230403  1.0
  Zn  Zn5  1  0.05694163  0.54230702  0.90075597  1.0
  Zn  Zn6  1  0.94306593  0.54229650  0.01463588  1.0
  Zn  Zn7  1  0.05692214  0.51462584  0.04231120  1.0
  H  H8  1  0.92382520  0.20910510  0.90092142  1.0
  H  H9  1  0.07616108  0.40092054  0.70907295  1.0
  H  H10  1  0.92383135  0.09908251  0.79092327  1.0
  H  H11  1  0.07611713  0.29091252  0.59906164  1.0
  H  H12  1  0.07617905  0.67528340  0.21470620  1.0
  H  H13  1  0.92383990  0.71476188  0.17523046  1.0
  H  H14  1  0.07611963  0.78520802  0.32479845  1.0
  H  H15  1  0.92383285  0.82475232  0.28525537  1.0
  H  H16  1  0.61001149  0.20909758  0.21476979  1.0
  H  H17  1  0.61000567  0.40092369  0.17522830  1.0
  H  H18  1  0.38999645  0.09907686  0.32478056  1.0
  H  H19  1  0.38998693  0.29088736  0.28530474  1.0
  H  H20  1  0.39000234  0.71480120  0.70908533  1.0
  H  H21  1  0.38997962  0.67522762  0.90094400  1.0
  H  H22  1  0.61002057  0.82478359  0.59905335  1.0
  H  H23  1  0.61000029  0.78527842  0.79089751  1.0
  C  C24  1  0.18111535  0.09054857  0.40944329  1.0
  C  C25  1  0.99999470  0.86317041  0.63683221  1.0
  C  C26  1  0.99998864  0.09054592  0.59056601  1.0
  C  C27  1  0.81888851  0.90945137  0.59054218  1.0
  C  C28  1  0.00000700  0.13683522  0.36316666  1.0
  C  C29  1  0.99999534  0.90944073  0.40944189  1.0
  C  C30  1  0.00000204  0.40945713  0.90942990  1.0
  C  C31  1  0.00000942  0.63683068  0.86316541  1.0
  C  C32  1  0.81888510  0.40944837  0.09056793  1.0
  C  C33  1  0.99999124  0.59056148  0.09055386  1.0
  C  C34  1  0.99999721  0.36316769  0.13682902  1.0
  C  C35  1  0.18111328  0.59056139  0.90945282  1.0
  C  C36  1  0.00000225  0.19494105  0.30506019  1.0
  C  C37  1  0.00000118  0.30506170  0.19493630  1.0
  C  C38  1  0.95716995  0.18027007  0.27690186  1.0
  C  C39  1  0.04283271  0.31973232  0.22309532  1.0
  C  C40  1  0.95716931  0.23407107  0.22309917  1.0
  C  C41  1  0.04283335  0.26593133  0.27689801  1.0
  C  C42  1  0.99999956  0.80506200  0.69493884  1.0
  C  C43  1  0.00000344  0.69493857  0.80505975  1.0
  C  C44  1  0.95716691  0.77689536  0.76593925  1.0
  C  C45  1  0.04283541  0.72310468  0.73405975  1.0
  C  C46  1  0.95716814  0.72309282  0.81974030  1.0
  C  C47  1  0.04283418  0.77690723  0.68025870  1.0
  C  C48  1  0.99999726  0.37194499  0.87192248  1.0
  C  C49  1  0.95729931  0.29925296  0.90669195  1.0
  C  C50  1  0.95734174  0.26455677  0.87194917  1.0
  C  C51  1  0.99999275  0.30044556  0.80043298  1.0
  C  C52  1  0.04264557  0.37195475  0.76453273  1.0
  C  C53  1  0.04269118  0.40670220  0.79922403  1.0
  C  C54  1  0.99998767  0.26520748  0.76519771  1.0
  C  C55  1  0.99998299  0.23479992  0.73479492  1.0
  C  C56  1  0.99997918  0.19956079  0.69956176  1.0
  C  C57  1  0.95733748  0.12804882  0.73546319  1.0
  C  C58  1  0.95729080  0.09330190  0.70077118  1.0
  C  C59  1  0.99997758  0.12806292  0.62806994  1.0
  C  C60  1  0.04265581  0.20076206  0.59329620  1.0
  C  C61  1  0.04261393  0.23545565  0.62804067  1.0
  C  C62  1  0.00000614  0.62809073  0.12804311  1.0
  C  C63  1  0.04270915  0.63603345  0.15802996  1.0
  C  C64  1  0.04266012  0.67072861  0.19277389  1.0
  C  C65  1  0.00000221  0.69957668  0.19954425  1.0
  C  C66  1  0.95735643  0.69282405  0.17068040  1.0
  C  C67  1  0.95731541  0.65809216  0.13597446  1.0
  C  C68  1  0.99999425  0.73480303  0.23479010  1.0
  C  C69  1  0.99998942  0.76519762  0.26520590  1.0
  C  C70  1  0.99998039  0.80042224  0.30045368  1.0
  C  C71  1  0.04261527  0.80715984  0.32933262  1.0
  C  C72  1  0.04265489  0.84188965  0.36404064  1.0
  C  C73  1  0.99997762  0.87190974  0.37195386  1.0
  C  C74  1  0.95729006  0.86398620  0.34194765  1.0
  C  C75  1  0.95733837  0.82928950  0.30720455  1.0
  C  C76  1  0.74386562  0.37194049  0.12807114  1.0
  C  C77  1  0.70593402  0.29924581  0.15808178  1.0
  C  C78  1  0.63649568  0.26455193  0.19282049  1.0
  C  C79  1  0.60087643  0.30044416  0.19956964  1.0
  C  C80  1  0.63649377  0.37195621  0.17069143  1.0
  C  C81  1  0.70593258  0.40670290  0.13598710  1.0
  C  C82  1  0.53040423  0.26520371  0.23481377  1.0
  C  C83  1  0.46959462  0.23479163  0.26522441  1.0
  C  C84  1  0.39912091  0.19955170  0.30046712  1.0
  C  C85  1  0.36350715  0.12804174  0.32932841  1.0
  C  C86  1  0.29406941  0.09329453  0.36403263  1.0
  C  C87  1  0.25613377  0.12805227  0.37196040  1.0
  C  C88  1  0.29405987  0.20074071  0.34197682  1.0
  C  C89  1  0.36349937  0.23543615  0.30723548  1.0
  C  C90  1  0.25613391  0.62808119  0.87194370  1.0
  C  C91  1  0.29407359  0.65810749  0.79923893  1.0
  C  C92  1  0.36351173  0.69284329  0.76454745  1.0
  C  C93  1  0.39912334  0.69957803  0.80044868  1.0
  C  C94  1  0.36349829  0.67069658  0.87196919  1.0
  C  C95  1  0.29405941  0.63599493  0.90671447  1.0
  C  C96  1  0.46959739  0.73481587  0.76520669  1.0
  C  C97  1  0.53040572  0.76522331  0.73478703  1.0
  C  C98  1  0.60087930  0.80046013  0.69954433  1.0
  C  C99  1  0.63650098  0.82932395  0.62802808  1.0
  C  C100  1  0.70594078  0.86402664  0.59328169  1.0
  C  C101  1  0.74386855  0.87195282  0.62804726  1.0
  C  C102  1  0.70593116  0.84195502  0.70074630  1.0
  C  C103  1  0.63649298  0.80721819  0.73543986  1.0
  Br  Br104  1  0.89691269  0.08806871  0.30885173  1.0
  Br  Br105  1  0.10308711  0.41193316  0.19114861  1.0
  Br  Br106  1  0.89691276  0.20576250  0.19115454  1.0
  Br  Br107  1  0.10309097  0.29423937  0.30884169  1.0
  Br  Br108  1  0.89691019  0.80883826  0.79425942  1.0
  Br  Br109  1  0.10309257  0.69116179  0.70574028  1.0
  Br  Br110  1  0.89690767  0.69113826  0.91195439  1.0
  Br  Br111  1  0.10309354  0.80886128  0.58804431  1.0
  Cl  Cl112  1  0.90117181  0.24572654  0.99443361  1.0
  Cl  Cl113  1  0.09882113  0.49443413  0.74568656  1.0
  Cl  Cl114  1  0.90117451  0.00556736  0.75431140  1.0
  Cl  Cl115  1  0.09875143  0.25429422  0.50554605  1.0
  Cl  Cl116  1  0.09885369  0.60445106  0.15540776  1.0
  Cl  Cl117  1  0.90119758  0.65550272  0.10435823  1.0
  Cl  Cl118  1  0.09875085  0.84445266  0.39568395  1.0
  Cl  Cl119  1  0.90117086  0.89559969  0.34453945  1.0
  Cl  Cl120  1  0.74014241  0.24571892  0.15549649  1.0
  Cl  Cl121  1  0.74013610  0.49443925  0.10435432  1.0
  Cl  Cl122  1  0.25986559  0.00556131  0.39564967  1.0
  Cl  Cl123  1  0.25985448  0.25426081  0.34460433  1.0
  Cl  Cl124  1  0.25987553  0.65554735  0.74569706  1.0
  Cl  Cl125  1  0.25984551  0.60435963  0.99446010  1.0
  Cl  Cl126  1  0.74015486  0.89564536  0.50553883  1.0
  Cl  Cl127  1  0.74012826  0.84455456  0.75428075  1.0
  O  O128  1  0.99999955  0.99999934  0.49999969  1.0
  O  O129  1  0.15180880  0.12610874  0.41375843  1.0
  O  O130  1  0.03951340  0.88566354  0.57481373  1.0
  O  O131  1  0.96009294  0.02568088  0.62612944  1.0
  O  O132  1  0.15180814  0.02568187  0.43441137  1.0
  O  O133  1  0.03989938  0.12610254  0.52569658  1.0
  O  O134  1  0.96048108  0.88565626  0.65386233  1.0
  O  O135  1  0.84818869  0.91376677  0.62610601  1.0
  O  O136  1  0.96049648  0.07482626  0.38565038  1.0
  O  O137  1  0.84820154  0.93443477  0.52566376  1.0
  O  O138  1  0.03951247  0.15385588  0.38566374  1.0
  O  O139  1  0.03989796  0.91378795  0.43440090  1.0
  O  O140  1  0.96010848  0.93442332  0.41376796  1.0
  O  O141  1  0.00000058  0.50000060  0.99999963  1.0
  O  O142  1  0.96010677  0.37389427  0.97430548  1.0
  O  O143  1  0.03951958  0.61434586  0.84613927  1.0
  O  O144  1  0.84819303  0.47431662  0.06559901  1.0
  O  O145  1  0.03989498  0.47431906  0.87386854  1.0
  O  O146  1  0.84819210  0.37389391  0.08623163  1.0
  O  O147  1  0.96048634  0.61433755  0.92518689  1.0
  O  O148  1  0.96009777  0.58622703  0.06558045  1.0
  O  O149  1  0.03951453  0.42517718  0.11433803  1.0
  O  O150  1  0.03986842  0.56556990  0.08623854  1.0
  O  O151  1  0.96048451  0.34614651  0.11433849  1.0
  O  O152  1  0.15181395  0.58621956  0.87389588  1.0
  O  O153  1  0.15179848  0.56558266  0.97433243  1.0
