# generated using pymatgen
data_Zn2H18C23N8O
_symmetry_space_group_name_H-M   'P 1'
_cell_length_a   14.83081725
_cell_length_b   15.96359150
_cell_length_c   17.70531879
_cell_angle_alpha   90.01289383
_cell_angle_beta   78.54599542
_cell_angle_gamma   90.23789376
_symmetry_Int_Tables_number   1
_chemical_formula_structural   Zn2H18C23N8O
_chemical_formula_sum   'Zn8 H72 C92 N32 O4'
_cell_volume   4108.27122607
_cell_formula_units_Z   4
loop_
 _symmetry_equiv_pos_site_id
 _symmetry_equiv_pos_as_xyz
  1  'x, y, z'
loop_
 _atom_site_type_symbol
 _atom_site_label
 _atom_site_symmetry_multiplicity
 _atom_site_fract_x
 _atom_site_fract_y
 _atom_site_fract_z
 _atom_site_occupancy
  Zn  Zn0  1  0.99882292  0.64564962  0.00909384  1.0
  Zn  Zn1  1  0.50637555  0.14381506  0.49341490  1.0
  Zn  Zn2  1  0.99161267  0.35499381  0.98882884  1.0
  Zn  Zn3  1  0.50699730  0.84824808  0.50995617  1.0
  Zn  Zn4  1  0.83773356  0.50315280  0.01569586  1.0
  Zn  Zn5  1  0.15104787  0.49515416  0.98420277  1.0
  Zn  Zn6  1  0.35426549  0.99164205  0.50920386  1.0
  Zn  Zn7  1  0.66169581  0.99734185  0.48243750  1.0
  H  H8  1  0.98072314  0.68183563  0.18744804  1.0
  H  H9  1  0.02020327  0.70438468  0.83366679  1.0
  H  H10  1  0.47839008  0.19878917  0.67017106  1.0
  H  H11  1  0.51937317  0.18315216  0.31723565  1.0
  H  H12  1  0.73465109  0.43468680  0.75154617  1.0
  H  H13  1  0.13807959  0.44992511  0.32398588  1.0
  H  H14  1  0.33921988  0.95246469  0.19314974  1.0
  H  H15  1  0.76896280  0.93091588  0.73862203  1.0
  H  H16  1  0.54046687  0.67600868  0.21686628  1.0
  H  H17  1  0.43120346  0.85526665  0.89432275  1.0
  H  H18  1  0.07457476  0.34787156  0.61121306  1.0
  H  H19  1  0.04065167  0.15388852  0.21302569  1.0
  H  H20  1  0.44103059  0.66165146  0.29149459  1.0
  H  H21  1  0.45121137  0.76411902  0.83517049  1.0
  H  H22  1  0.05023964  0.26184002  0.67651880  1.0
  H  H23  1  0.14669782  0.18117971  0.15046365  1.0
  H  H24  1  0.46043915  0.60099126  0.12394987  1.0
  H  H25  1  0.50151463  0.78392210  0.99426780  1.0
  H  H26  1  0.00919467  0.26652422  0.51366067  1.0
  H  H27  1  0.12795160  0.07590183  0.29834301  1.0
  H  H28  1  0.36177127  0.58721761  0.19879772  1.0
  H  H29  1  0.52091000  0.69279174  0.93555600  1.0
  H  H30  1  0.98279306  0.18188641  0.58043403  1.0
  H  H31  1  0.23334696  0.10572331  0.23703765  1.0
  H  H32  1  0.75663822  0.11096090  0.17236275  1.0
  H  H33  1  0.24155950  0.11431858  0.80976124  1.0
  H  H34  1  0.24579113  0.61404656  0.68398182  1.0
  H  H35  1  0.74222332  0.60417490  0.32833050  1.0
  H  H36  1  0.11230464  0.76300982  0.71062663  1.0
  H  H37  1  0.88529459  0.74661317  0.29842388  1.0
  H  H38  1  0.61453418  0.25284310  0.20619178  1.0
  H  H39  1  0.38364779  0.25764577  0.78925671  1.0
  H  H40  1  0.96736278  0.29865574  0.16638969  1.0
  H  H41  1  0.01684273  0.32989570  0.80530216  1.0
  H  H42  1  0.48320861  0.82484138  0.69522411  1.0
  H  H43  1  0.54415154  0.79489717  0.32686004  1.0
  H  H44  1  0.66073886  0.39181598  0.11599033  1.0
  H  H45  1  0.33307617  0.38693492  0.89123351  1.0
  H  H46  1  0.16708182  0.89007521  0.60326031  1.0
  H  H47  1  0.83713183  0.88628622  0.38361344  1.0
  H  H48  1  0.86430640  0.19520557  0.07244142  1.0
  H  H49  1  0.11915690  0.20156138  0.89243180  1.0
  H  H50  1  0.37235077  0.69902059  0.60686813  1.0
  H  H51  1  0.63602078  0.68666539  0.43404562  1.0
  H  H52  1  0.12561952  0.78903833  0.08935196  1.0
  H  H53  1  0.89155779  0.80952315  0.94770742  1.0
  H  H54  1  0.61779819  0.30372104  0.55108901  1.0
  H  H55  1  0.37743619  0.29825209  0.42365401  1.0
  H  H56  1  0.17496599  0.49169783  0.16128086  1.0
  H  H57  1  0.80570793  0.52089942  0.83909380  1.0
  H  H58  1  0.69235583  0.01902801  0.65745863  1.0
  H  H59  1  0.33511089  0.98534754  0.33214430  1.0
  H  H60  1  0.76267252  0.49737764  0.20099238  1.0
  H  H61  1  0.21252981  0.49737708  0.79953246  1.0
  H  H62  1  0.27715859  0.99775635  0.69305732  1.0
  H  H63  1  0.73803490  0.00006377  0.29635701  1.0
  H  H64  1  0.67066286  0.35642785  0.65752948  1.0
  H  H65  1  0.21722955  0.37499621  0.41229334  1.0
  H  H66  1  0.26413310  0.88119348  0.10073781  1.0
  H  H67  1  0.83711570  0.85734397  0.83284895  1.0
  H  H68  1  0.32714854  0.53632372  0.91790406  1.0
  H  H69  1  0.43457205  0.51785238  0.94678386  1.0
  H  H70  1  0.40804223  0.62027262  0.91492054  1.0
  H  H71  1  0.64726351  0.54969970  0.06112716  1.0
  H  H72  1  0.68421736  0.49188790  0.97249363  1.0
  H  H73  1  0.56804444  0.52670612  0.99955625  1.0
  H  H74  1  0.85497674  0.03264386  0.44469199  1.0
  H  H75  1  0.80586708  0.98508692  0.53644466  1.0
  H  H76  1  0.92556529  0.00829962  0.51307065  1.0
  H  H77  1  0.07433726  0.13109588  0.43850116  1.0
  H  H78  1  0.09673404  0.08777339  0.52652626  1.0
  H  H79  1  0.06546956  0.01990019  0.45465826  1.0
  C  C80  1  0.93247017  0.63328931  0.17839757  1.0
  C  C81  1  0.06183731  0.64929168  0.83732761  1.0
  C  C82  1  0.43520903  0.14514241  0.66386645  1.0
  C  C83  1  0.56776924  0.13429147  0.32429217  1.0
  C  C84  1  0.07910292  0.38183306  0.19573568  1.0
  C  C85  1  0.90238575  0.41680470  0.78889852  1.0
  C  C86  1  0.59783893  0.91366368  0.70922679  1.0
  C  C87  1  0.43393386  0.87847704  0.29579191  1.0
  C  C88  1  0.73493545  0.26912375  0.11707867  1.0
  C  C89  1  0.25542298  0.27061459  0.87010874  1.0
  C  C90  1  0.23918560  0.77177866  0.62686773  1.0
  C  C91  1  0.76436438  0.76194269  0.38655923  1.0
  C  C92  1  0.25549507  0.71258289  0.07461987  1.0
  C  C93  1  0.75987919  0.74331826  0.93866673  1.0
  C  C94  1  0.74811198  0.23633864  0.56039662  1.0
  C  C95  1  0.26385439  0.20888743  0.40970179  1.0
  C  C96  1  0.37903300  0.71766231  0.15408933  1.0
  C  C97  1  0.61756643  0.79682931  0.89360515  1.0
  C  C98  1  0.88903412  0.29008408  0.60888195  1.0
  C  C99  1  0.16684663  0.21091822  0.30867449  1.0
  C  C100  1  0.31601655  0.75720967  0.11675492  1.0
  C  C101  1  0.71205758  0.79768648  0.89327207  1.0
  C  C102  1  0.79565963  0.29192976  0.60518871  1.0
  C  C103  1  0.20655083  0.25183323  0.36402604  1.0
  C  C104  1  0.74413898  0.35033107  0.65667598  1.0
  C  C105  1  0.19123927  0.33934495  0.36840921  1.0
  C  C106  1  0.30807581  0.84460528  0.13092203  1.0
  C  C107  1  0.76282484  0.85222994  0.83712814  1.0
  C  C108  1  0.78093503  0.39541457  0.71079911  1.0
  C  C109  1  0.14568288  0.38210886  0.31813019  1.0
  C  C110  1  0.35154229  0.88554956  0.18366205  1.0
  C  C111  1  0.72364182  0.89441387  0.78281296  1.0
  C  C112  1  0.87332561  0.38649769  0.71952015  1.0
  C  C113  1  0.11044028  0.34063796  0.25950951  1.0
  C  C114  1  0.40772178  0.84299271  0.22724650  1.0
  C  C115  1  0.62968972  0.88575479  0.77821212  1.0
  C  C116  1  0.42302472  0.75904598  0.20633553  1.0
  C  C117  1  0.57849202  0.83833774  0.83831589  1.0
  C  C118  1  0.92585582  0.33524850  0.66354534  1.0
  C  C119  1  0.12022542  0.25364574  0.25953262  1.0
  C  C120  1  0.46486739  0.67926338  0.23067311  1.0
  C  C121  1  0.48192279  0.80672789  0.87206453  1.0
  C  C122  1  0.02228852  0.30101195  0.63555362  1.0
  C  C123  1  0.11113563  0.17674218  0.21109112  1.0
  C  C124  1  0.01580278  0.35032264  0.15315117  1.0
  C  C125  1  0.96781352  0.37919415  0.82567960  1.0
  C  C126  1  0.53158648  0.87470696  0.67381841  1.0
  C  C127  1  0.49472557  0.84540032  0.34003671  1.0
  C  C128  1  0.41490380  0.63227862  0.17205732  1.0
  C  C129  1  0.52587376  0.76130228  0.93509015  1.0
  C  C130  1  0.98071028  0.25013738  0.57406431  1.0
  C  C131  1  0.16520977  0.12833563  0.26586822  1.0
  C  C132  1  0.69490147  0.14374072  0.20179956  1.0
  C  C133  1  0.30461490  0.14833111  0.78455074  1.0
  C  C134  1  0.18573807  0.65016433  0.71185051  1.0
  C  C135  1  0.80443329  0.63772157  0.30034298  1.0
  C  C136  1  0.17312014  0.72722593  0.68399829  1.0
  C  C137  1  0.82348093  0.71351765  0.32786865  1.0
  C  C138  1  0.67596545  0.22024801  0.17594489  1.0
  C  C139  1  0.32011648  0.22407758  0.81388729  1.0
  C  C140  1  0.72049624  0.35245496  0.09640366  1.0
  C  C141  1  0.27010437  0.35004335  0.89993696  1.0
  C  C142  1  0.22820803  0.85116776  0.59552338  1.0
  C  C143  1  0.77795825  0.84630827  0.40479221  1.0
  C  C144  1  0.26788963  0.63430992  0.03724193  1.0
  C  C145  1  0.73683959  0.66109234  0.96546526  1.0
  C  C146  1  0.76886265  0.15340926  0.53479910  1.0
  C  C147  1  0.25666539  0.12535108  0.43607879  1.0
  C  C148  1  0.82374093  0.25196753  0.07455793  1.0
  C  C149  1  0.16164138  0.25505219  0.90071382  1.0
  C  C150  1  0.33234990  0.75335604  0.59704996  1.0
  C  C151  1  0.67597930  0.74424572  0.42997752  1.0
  C  C152  1  0.16505304  0.73371578  0.06803168  1.0
  C  C153  1  0.84738638  0.75443998  0.95654257  1.0
  C  C154  1  0.66081817  0.24824010  0.54265233  1.0
  C  C155  1  0.34386885  0.23747250  0.43343326  1.0
  C  C156  1  0.12036606  0.44999864  0.15147373  1.0
  C  C157  1  0.85922432  0.47586107  0.84327686  1.0
  C  C158  1  0.63925414  0.97288783  0.65404718  1.0
  C  C159  1  0.38948448  0.94388248  0.34195028  1.0
  C  C160  1  0.82164703  0.53889198  0.18498788  1.0
  C  C161  1  0.15958242  0.54343251  0.82022090  1.0
  C  C162  1  0.33283091  0.04240913  0.67519520  1.0
  C  C163  1  0.67892223  0.04062367  0.31401770  1.0
  C  C164  1  0.85342850  0.60241033  0.22853678  1.0
  C  C165  1  0.13430990  0.61471832  0.78261366  1.0
  C  C166  1  0.35819440  0.11217535  0.71513610  1.0
  C  C167  1  0.64666763  0.10582376  0.27283832  1.0
  C  C168  1  0.37978715  0.56366011  0.94658181  1.0
  C  C169  1  0.63965200  0.54275294  0.00075646  1.0
  C  C170  1  0.85764316  0.02987204  0.50645983  1.0
  C  C171  1  0.10269034  0.07705524  0.46429464  1.0
  N  N172  1  0.94398784  0.59297418  0.11043097  1.0
  N  N173  1  0.04800204  0.60307125  0.90226036  1.0
  N  N174  1  0.45155804  0.09961770  0.59858148  1.0
  N  N175  1  0.55657912  0.09105895  0.39080682  1.0
  N  N176  1  0.02055748  0.39577483  0.08837992  1.0
  N  N177  1  0.96141704  0.41167605  0.89674389  1.0
  N  N178  1  0.53597824  0.90671009  0.60266302  1.0
  N  N179  1  0.48526181  0.88741727  0.40726383  1.0
  N  N180  1  0.79423511  0.38221593  0.04642164  1.0
  N  N181  1  0.19206853  0.37912895  0.94419994  1.0
  N  N182  1  0.30762728  0.87740465  0.55102988  1.0
  N  N183  1  0.70404101  0.87627039  0.45402671  1.0
  N  N184  1  0.19190835  0.61113626  0.01187342  1.0
  N  N185  1  0.80425438  0.62655731  0.99577840  1.0
  N  N186  1  0.70027494  0.11934243  0.50522147  1.0
  N  N187  1  0.32465780  0.10713859  0.47289347  1.0
  N  N188  1  0.85852514  0.31934691  0.03291016  1.0
  N  N189  1  0.12447286  0.31988103  0.94455993  1.0
  N  N190  1  0.37253439  0.81648121  0.55211027  1.0
  N  N191  1  0.64061466  0.81238377  0.46972672  1.0
  N  N192  1  0.12756746  0.67350464  0.03055738  1.0
  N  N193  1  0.87375470  0.68597741  0.99062893  1.0
  N  N194  1  0.63246716  0.17967408  0.50995550  1.0
  N  N195  1  0.38044810  0.17632788  0.47038476  1.0
  N  N196  1  0.08522354  0.45665260  0.08712256  1.0
  N  N197  1  0.89506937  0.47143408  0.90752470  1.0
  N  N198  1  0.60187385  0.96741336  0.59063106  1.0
  N  N199  1  0.42055902  0.94763160  0.40824039  1.0
  N  N200  1  0.87591659  0.53488771  0.11419193  1.0
  N  N201  1  0.10798499  0.53797208  0.89181788  1.0
  N  N202  1  0.38869657  0.03638545  0.60543389  1.0
  N  N203  1  0.62501814  0.03343087  0.38475353  1.0
  O  O204  1  0.34332417  0.58354911  0.02609723  1.0
  O  O205  1  0.65799910  0.62003003  0.95985970  1.0
  O  O206  1  0.84663041  0.11121064  0.54057944  1.0
  O  O207  1  0.19692212  0.06224035  0.42819019  1.0
