# generated using pymatgen
data_ZnH12C23Br2(NO)4
_symmetry_space_group_name_H-M   'P 1'
_cell_length_a   21.54929810
_cell_length_b   21.55034663
_cell_length_c   21.69101894
_cell_angle_alpha   116.84827895
_cell_angle_beta   119.75656419
_cell_angle_gamma   90.00635706
_symmetry_Int_Tables_number   1
_chemical_formula_structural   ZnH12C23Br2(NO)4
_chemical_formula_sum   'Zn4 H48 C92 Br8 N16 O16'
_cell_volume   7468.11597553
_cell_formula_units_Z   4
loop_
 _symmetry_equiv_pos_site_id
 _symmetry_equiv_pos_as_xyz
  1  'x, y, z'
loop_
 _atom_site_type_symbol
 _atom_site_label
 _atom_site_symmetry_multiplicity
 _atom_site_fract_x
 _atom_site_fract_y
 _atom_site_fract_z
 _atom_site_occupancy
  Zn  Zn0  1  0.04623136  0.54282274  0.09339515  1.0
  Zn  Zn1  1  0.95293376  0.45697707  0.90652355  1.0
  Zn  Zn2  1  0.45483636  0.95782193  0.90943074  1.0
  Zn  Zn3  1  0.54534326  0.04196092  0.09073956  1.0
  H  H4  1  0.38707336  0.80713931  0.77984377  1.0
  H  H5  1  0.31516403  0.72886166  0.62371708  1.0
  H  H6  1  0.19881937  0.57944914  0.38720115  1.0
  H  H7  1  0.19335178  0.77786646  0.38384828  1.0
  H  H8  1  0.60760910  0.19229588  0.22004085  1.0
  H  H9  1  0.69226742  0.27094923  0.37639775  1.0
  H  H10  1  0.81105030  0.42055901  0.61240700  1.0
  H  H11  1  0.81039392  0.22205942  0.61547189  1.0
  H  H12  1  0.07210978  0.57634944  0.86655906  1.0
  H  H13  1  0.10289429  0.61144315  0.78874258  1.0
  H  H14  1  0.20292667  0.69980513  0.13322847  1.0
  H  H15  1  0.42852877  0.91993546  0.13259475  1.0
  H  H16  1  0.39607166  0.88655915  0.21076879  1.0
  H  H17  1  0.29335479  0.80057036  0.86597762  1.0
  H  H18  1  0.79386175  0.30289388  0.86781057  1.0
  H  H19  1  0.68398959  0.19805363  0.79051412  1.0
  H  H20  1  0.93089245  0.42133223  0.13443753  1.0
  H  H21  1  0.70597277  0.20183323  0.13602297  1.0
  H  H22  1  0.81665408  0.30551795  0.21325218  1.0
  H  H23  1  0.57310890  0.07857950  0.86963959  1.0
  H  H24  1  0.07061718  0.29939055  0.86546958  1.0
  H  H25  1  0.10354290  0.19476043  0.78831840  1.0
  H  H26  1  0.20401513  0.42320012  0.13213383  1.0
  H  H27  1  0.42646898  0.19961238  0.13485967  1.0
  H  H28  1  0.39474311  0.30492654  0.21155258  1.0
  H  H29  1  0.29765162  0.07982188  0.86829416  1.0
  H  H30  1  0.79301232  0.57689876  0.86395921  1.0
  H  H31  1  0.68304175  0.61088983  0.78685994  1.0
  H  H32  1  0.92656009  0.69587880  0.13066423  1.0
  H  H33  1  0.70657172  0.92257618  0.13240217  1.0
  H  H34  1  0.81493242  0.88639866  0.20987390  1.0
  H  H35  1  0.56897215  0.79871017  0.86610024  1.0
  H  H36  1  0.40954368  0.03995779  0.84270979  1.0
  H  H37  1  0.40074220  0.03828997  0.75833369  1.0
  H  H38  1  0.27232949  0.90330474  0.54670257  1.0
  H  H39  1  0.29652814  0.98272790  0.63581837  1.0
  H  H40  1  0.06468424  0.46656565  0.16267085  1.0
  H  H41  1  0.12306860  0.46965093  0.25522235  1.0
  H  H42  1  0.09495160  0.68226550  0.15947200  1.0
  H  H43  1  0.13099958  0.76423837  0.25073830  1.0
  H  H44  1  0.56328539  0.96034893  0.15803015  1.0
  H  H45  1  0.63864206  0.96107699  0.24197808  1.0
  H  H46  1  0.72623351  0.09734305  0.45422799  1.0
  H  H47  1  0.66035619  0.01809060  0.36607707  1.0
  H  H48  1  0.90129673  0.53312358  0.83709590  1.0
  H  H49  1  0.86675984  0.53007196  0.74435202  1.0
  H  H50  1  0.93554963  0.31757645  0.84009887  1.0
  H  H51  1  0.88077975  0.23552893  0.74850339  1.0
  C  C52  1  0.91550490  0.41497011  0.00039095  1.0
  C  C53  1  0.08419950  0.41477437  0.99943974  1.0
  C  C54  1  0.08363860  0.58454293  0.99909817  1.0
  C  C55  1  0.91363004  0.58360404  0.99788258  1.0
  C  C56  1  0.41654145  0.08736201  0.00327117  1.0
  C  C57  1  0.58613040  0.08701979  0.00310638  1.0
  C  C58  1  0.58420943  0.91392667  0.99933999  1.0
  C  C59  1  0.41364455  0.91266217  0.99759667  1.0
  C  C60  1  0.36901964  0.83039429  0.74052487  1.0
  C  C61  1  0.33005684  0.78781758  0.65547369  1.0
  C  C62  1  0.30777298  0.82203968  0.60856188  1.0
  C  C63  1  0.32714117  0.89844437  0.65029024  1.0
  C  C64  1  0.36910054  0.93866129  0.73942235  1.0
  C  C65  1  0.18023038  0.60738061  0.35293219  1.0
  C  C66  1  0.20113686  0.68307760  0.39555645  1.0
  C  C67  1  0.17696235  0.71891071  0.35157147  1.0
  C  C68  1  0.13263683  0.67712956  0.26452422  1.0
  C  C69  1  0.13360411  0.56819870  0.26547412  1.0
  C  C70  1  0.62848032  0.16930315  0.25964777  1.0
  C  C71  1  0.67486913  0.21200610  0.34464387  1.0
  C  C72  1  0.69920951  0.17785984  0.39159951  1.0
  C  C73  1  0.67628805  0.10153490  0.35021006  1.0
  C  C74  1  0.62821568  0.06127560  0.26120340  1.0
  C  C75  1  0.82712512  0.39265762  0.64672358  1.0
  C  C76  1  0.80594199  0.31699732  0.60409397  1.0
  C  C77  1  0.82605420  0.28101967  0.64791203  1.0
  C  C78  1  0.86847877  0.32270540  0.73492455  1.0
  C  C79  1  0.86790284  0.43167700  0.73416972  1.0
  C  C80  1  0.11890335  0.62196626  0.92452894  1.0
  C  C81  1  0.16414945  0.66775794  0.92357191  1.0
  C  C82  1  0.14999305  0.65651313  0.84689929  1.0
  C  C83  1  0.19282338  0.69176468  0.07537146  1.0
  C  C84  1  0.24020250  0.73821197  0.07737933  1.0
  C  C85  1  0.30337326  0.79786659  0.15278289  1.0
  C  C86  1  0.38066627  0.87542624  0.07452810  1.0
  C  C87  1  0.33468192  0.83061749  0.07583345  1.0
  C  C88  1  0.34861747  0.84187567  0.15249580  1.0
  C  C89  1  0.30413012  0.80763253  0.92370526  1.0
  C  C90  1  0.25748834  0.76083429  0.92200556  1.0
  C  C91  1  0.19454714  0.70105148  0.84649582  1.0
  C  C92  1  0.13301258  0.63408532  0.99978496  1.0
  C  C93  1  0.22594084  0.72657187  0.00037187  1.0
  C  C94  1  0.36519821  0.86411075  0.99900105  1.0
  C  C95  1  0.27230682  0.77228203  0.99913855  1.0
  C  C96  1  0.80522985  0.30999720  0.92587899  1.0
  C  C97  1  0.75893579  0.26369540  0.92526311  1.0
  C  C98  1  0.69569650  0.20568810  0.84886122  1.0
  C  C99  1  0.88288772  0.37699555  0.07668369  1.0
  C  C100  1  0.83764683  0.33263956  0.07905397  1.0
  C  C101  1  0.85063328  0.34153312  0.15474656  1.0
  C  C102  1  0.69545069  0.19355225  0.07783962  1.0
  C  C103  1  0.74231316  0.23927947  0.07846437  1.0
  C  C104  1  0.80542645  0.29737197  0.15487550  1.0
  C  C105  1  0.61997674  0.12426534  0.92709813  1.0
  C  C106  1  0.66424746  0.16955521  0.92468031  1.0
  C  C107  1  0.65088566  0.16117925  0.84904911  1.0
  C  C108  1  0.86676675  0.36604836  0.00103205  1.0
  C  C109  1  0.77444290  0.27461408  0.00223055  1.0
  C  C110  1  0.63509389  0.13629312  0.00280308  1.0
  C  C111  1  0.72708876  0.22798582  0.00147882  1.0
  C  C112  1  0.11804097  0.30777554  0.92385306  1.0
  C  C113  1  0.16412274  0.26187213  0.92319269  1.0
  C  C114  1  0.15072509  0.20331986  0.84688715  1.0
  C  C115  1  0.19369607  0.37764039  0.07469852  1.0
  C  C116  1  0.24035521  0.33236002  0.07705031  1.0
  C  C117  1  0.30294090  0.34148434  0.15292060  1.0
  C  C118  1  0.37988090  0.19211880  0.07656870  1.0
  C  C119  1  0.33416734  0.23830066  0.07684355  1.0
  C  C120  1  0.34774061  0.29680725  0.15316609  1.0
  C  C121  1  0.30693038  0.12425634  0.92577373  1.0
  C  C122  1  0.25910055  0.16846003  0.92305789  1.0
  C  C123  1  0.19613170  0.15919477  0.84729677  1.0
  C  C124  1  0.13300136  0.36532457  0.99899685  1.0
  C  C125  1  0.22607261  0.27350764  0.00024844  1.0
  C  C126  1  0.36657064  0.13582810  0.00175358  1.0
  C  C127  1  0.27266367  0.22686658  0.99967909  1.0
  C  C128  1  0.80401242  0.62159851  0.92239410  1.0
  C  C129  1  0.75716313  0.66677171  0.92172104  1.0
  C  C130  1  0.69433009  0.65571068  0.84533795  1.0
  C  C131  1  0.87928791  0.68908459  0.07326842  1.0
  C  C132  1  0.83476312  0.73631988  0.07556988  1.0
  C  C133  1  0.84776358  0.79624409  0.15128035  1.0
  C  C134  1  0.69470410  0.87654344  0.07429837  1.0
  C  C135  1  0.74068725  0.83049938  0.07505352  1.0
  C  C136  1  0.80334462  0.84131191  0.15140849  1.0
  C  C137  1  0.61717523  0.80668093  0.92359982  1.0
  C  C138  1  0.66224901  0.75998562  0.92126316  1.0
  C  C139  1  0.64929883  0.70018916  0.84548347  1.0
  C  C140  1  0.86429111  0.63252832  0.99750829  1.0
  C  C141  1  0.77221652  0.72523916  0.99877746  1.0
  C  C142  1  0.63328970  0.86450719  0.99922468  1.0
  C  C143  1  0.72510174  0.77143369  0.99806096  1.0
  Br  Br144  1  0.17235687  0.68261219  0.74199980  1.0
  Br  Br145  1  0.32546329  0.81665244  0.25755869  1.0
  Br  Br146  1  0.56717942  0.08548012  0.74457192  1.0
  Br  Br147  1  0.93374889  0.41772067  0.25917169  1.0
  Br  Br148  1  0.17446436  0.08231032  0.74292605  1.0
  Br  Br149  1  0.32459963  0.41842377  0.25702920  1.0
  Br  Br150  1  0.56671838  0.68200001  0.74123635  1.0
  Br  Br151  1  0.92986668  0.81377518  0.25554305  1.0
  N  N152  1  0.38891875  0.90455927  0.78201534  1.0
  N  N153  1  0.26348437  0.78664525  0.52171078  1.0
  N  N154  1  0.24736230  0.71778402  0.48342865  1.0
  N  N155  1  0.11085301  0.60262511  0.22181907  1.0
  N  N156  1  0.60604533  0.09523308  0.21847796  1.0
  N  N157  1  0.74206767  0.21342811  0.47837601  1.0
  N  N158  1  0.76420674  0.28224699  0.51630133  1.0
  N  N159  1  0.88903331  0.39716224  0.77767858  1.0
  N  N160  1  0.38479326  0.01269560  0.77979916  1.0
  N  N161  1  0.30822375  0.93580793  0.60944538  1.0
  N  N162  1  0.11116560  0.49429771  0.22220308  1.0
  N  N163  1  0.10817320  0.70989583  0.21907175  1.0
  N  N164  1  0.60194209  0.98734756  0.22095804  1.0
  N  N165  1  0.69856342  0.06446978  0.39141874  1.0
  N  N166  1  0.88834961  0.50560929  0.77750824  1.0
  N  N167  1  0.88939458  0.28981292  0.78028619  1.0
  O  O168  1  0.97920452  0.45462123  0.06818618  1.0
  O  O169  1  0.89032453  0.41360446  0.93297883  1.0
  O  O170  1  0.02052087  0.39229853  0.93137099  1.0
  O  O171  1  0.10896619  0.47484353  0.06643821  1.0
  O  O172  1  0.04150284  0.52448469  0.93182678  1.0
  O  O173  1  0.08763773  0.60677332  0.06686398  1.0
  O  O174  1  0.95586862  0.58464210  0.06498657  1.0
  O  O175  1  0.90943207  0.54410402  0.92986786  1.0
  O  O176  1  0.40977152  0.04450398  0.93472243  1.0
  O  O177  1  0.46171315  0.09225469  0.07234409  1.0
  O  O178  1  0.59502777  0.10697943  0.07267495  1.0
  O  O179  1  0.53970787  0.02955228  0.93391109  1.0
  O  O180  1  0.60720197  0.97137896  0.06879046  1.0
  O  O181  1  0.52350866  0.89417932  0.93005366  1.0
  O  O182  1  0.38999324  0.90809372  0.92881446  1.0
  O  O183  1  0.47542399  0.95552733  0.06634640  1.0
