# generated using pymatgen
data_Zn2H19C29N9
_symmetry_space_group_name_H-M   'P 1'
_cell_length_a   14.91544094
_cell_length_b   14.95126012
_cell_length_c   14.96460198
_cell_angle_alpha   111.56504922
_cell_angle_beta   104.93821060
_cell_angle_gamma   111.69745493
_symmetry_Int_Tables_number   1
_chemical_formula_structural   Zn2H19C29N9
_chemical_formula_sum   'Zn4 H38 C58 N18'
_cell_volume   2567.05117532
_cell_formula_units_Z   2
loop_
 _symmetry_equiv_pos_site_id
 _symmetry_equiv_pos_as_xyz
  1  'x, y, z'
loop_
 _atom_site_type_symbol
 _atom_site_label
 _atom_site_symmetry_multiplicity
 _atom_site_fract_x
 _atom_site_fract_y
 _atom_site_fract_z
 _atom_site_occupancy
  Zn  Zn114  1  0.50068705  0.86089365  0.35896019  1.0
  Zn  Zn115  1  0.62768689  0.13170494  0.48888653  1.0
  Zn  Zn116  1  0.49593089  0.13667193  0.63353107  1.0
  Zn  Zn117  1  0.36206842  0.86166132  0.49532654  1.0
  H  H58  1  0.31641580  0.80305805  0.14395127  1.0
  H  H59  1  0.84620209  0.18168765  0.44150167  1.0
  H  H60  1  0.95821979  0.46227693  0.14146624  1.0
  H  H61  1  0.89879579  0.23411333  0.02571240  1.0
  H  H62  1  0.04825139  0.30095172  0.85159385  1.0
  H  H63  1  0.10884481  0.53022579  0.96798803  1.0
  H  H64  1  0.98649302  0.82353411  0.24908861  1.0
  H  H65  1  0.36771926  0.15150372  0.97781225  1.0
  H  H66  1  0.82135436  0.82327082  0.23478855  1.0
  H  H67  1  0.37924827  0.14831905  0.14137148  1.0
  H  H68  1  0.04962592  0.25492087  0.54171719  1.0
  H  H69  1  0.21985348  0.70042026  0.92685139  1.0
  H  H70  1  0.03787500  0.27501387  0.42947278  1.0
  H  H71  1  0.36323625  0.75922429  0.97905077  1.0
  H  H72  1  0.21963527  0.25530388  0.55725566  1.0
  H  H73  1  0.21120776  0.70450601  0.75925075  1.0
  H  H74  1  0.20957272  0.27551216  0.44519277  1.0
  H  H75  1  0.35468575  0.76399666  0.81251910  1.0
  H  H76  1  0.64244811  0.78326494  0.78488879  1.0
  H  H77  1  0.64955455  0.62610078  0.79286753  1.0
  H  H78  1  0.33218754  0.18260419  0.49833233  1.0
  H  H79  1  0.27185754  0.81000250  0.66177365  1.0
  H  H80  1  0.73721226  0.52690370  0.45056470  1.0
  H  H81  1  0.57302735  0.59700868  0.38607859  1.0
  H  H82  1  0.71309786  0.38783886  0.52485476  1.0
  H  H83  1  0.69137954  0.84949848  0.50062357  1.0
  H  H84  1  0.13965227  0.61054908  0.31635243  1.0
  H  H85  1  0.67322413  0.19130936  0.85079781  1.0
  H  H86  1  0.54491819  0.40603545  0.72155376  1.0
  H  H87  1  0.49789607  0.82374709  0.67287567  1.0
  H  H88  1  0.33088479  0.60454438  0.14302521  1.0
  H  H89  1  0.85441410  0.19560336  0.66620488  1.0
  H  H90  1  0.14664520  0.81839883  0.32051767  1.0
  H  H91  1  0.44750047  0.17312064  0.85054241  1.0
  H  H92  1  0.48752667  0.16685714  0.31164272  1.0
  H  H93  1  0.67722746  0.81881364  0.27567088  1.0
  H  H94  1  0.89426643  0.45947837  0.94376794  1.0
  H  H95  1  0.11136958  0.30345691  0.04818100  1.0
  C  C0  1  0.36759282  0.89303453  0.20035591  1.0
  C  C1  1  0.79013763  0.09232753  0.40360092  1.0
  C  C2  1  0.19592497  0.00117860  0.38807098  1.0
  C  C3  1  0.34888881  0.98934288  0.79451034  1.0
  C  C4  1  0.64064690  0.44674287  0.63281424  1.0
  C  C5  1  0.61736589  0.81490004  0.60748811  1.0
  C  C6  1  0.19415521  0.56218021  0.18833910  1.0
  C  C7  1  0.80800710  0.22044806  0.80190657  1.0
  C  C8  1  0.97808494  0.42636168  0.07661122  1.0
  C  C9  1  0.94515947  0.30029921  0.01276651  1.0
  C  C10  1  0.94430972  0.42668100  0.96881709  1.0
  C  C11  1  0.06269316  0.33804671  0.02454153  1.0
  C  C12  1  0.90965650  0.29889184  0.90289254  1.0
  C  C13  1  0.09643396  0.46584727  0.08971520  1.0
  C  C14  1  0.02806439  0.33739676  0.91595149  1.0
  C  C15  1  0.06087207  0.46334066  0.97944142  1.0
  C  C16  1  0.09268437  0.10165453  0.39880508  1.0
  C  C17  1  0.30794424  0.88545403  0.89046151  1.0
  C  C18  1  0.09627673  0.00349202  0.35479834  1.0
  C  C19  1  0.33294047  0.98200997  0.88411056  1.0
  C  C20  1  0.99242379  0.90434715  0.28973078  1.0
  C  C21  1  0.35267210  0.07405451  0.97737430  1.0
  C  C22  1  0.30138854  0.09326083  0.46322927  1.0
  C  C23  1  0.31873638  0.89978769  0.69424920  1.0
  C  C24  1  0.89706962  0.90418891  0.28120999  1.0
  C  C25  1  0.35855421  0.07212956  0.07126125  1.0
  C  C26  1  0.89592335  0.00326632  0.33666642  1.0
  C  C27  1  0.34504728  0.97744011  0.08042908  1.0
  C  C28  1  0.99720946  0.10146638  0.39019816  1.0
  C  C29  1  0.31323285  0.88310166  0.98389553  1.0
  C  C30  1  0.05591765  0.22775456  0.46566350  1.0
  C  C31  1  0.29500288  0.76523361  0.93755907  1.0
  C  C32  1  0.16398310  0.22804981  0.47549069  1.0
  C  C33  1  0.28936409  0.76801295  0.83187263  1.0
  C  C34  1  0.66635695  0.66869646  0.56027558  1.0
  C  C35  1  0.66936211  0.57860070  0.56430983  1.0
  C  C36  1  0.65056896  0.74390063  0.63380107  1.0
  C  C37  1  0.65748359  0.55290223  0.64283493  1.0
  C  C38  1  0.64978328  0.72608230  0.72040120  1.0
  C  C39  1  0.65325435  0.63535091  0.72465348  1.0
  C  C40  1  0.66331639  0.52515225  0.45233182  1.0
  C  C41  1  0.65414904  0.62634552  0.44557282  1.0
  C  C42  1  0.66746406  0.37467999  0.56948909  1.0
  C  C43  1  0.63423321  0.84806571  0.53356649  1.0
  C  C44  1  0.20185983  0.62531013  0.28932053  1.0
  C  C45  1  0.70206019  0.18401020  0.79021140  1.0
  C  C46  1  0.58331952  0.38450735  0.67116987  1.0
  C  C47  1  0.53702574  0.83738316  0.62324559  1.0
  C  C48  1  0.29913306  0.62194350  0.20103052  1.0
  C  C49  1  0.79430965  0.18634834  0.69598917  1.0
  C  C50  1  0.20685796  0.90749384  0.37202101  1.0
  C  C51  1  0.40732149  0.08476266  0.79000064  1.0
  C  C52  1  0.45481538  0.07884639  0.28666216  1.0
  C  C53  1  0.70351130  0.90732499  0.31790451  1.0
  C  C54  1  0.38010211  0.98269303  0.18358667  1.0
  C  C55  1  0.80120669  0.00105826  0.34805787  1.0
  C  C56  1  0.56846964  0.41559395  0.37095790  1.0
  C  C57  1  0.73544311  0.69278799  0.42418582  1.0
  N  N96  1  0.43173375  0.93350824  0.30437315  1.0
  N  N97  1  0.69418988  0.05570508  0.40623467  1.0
  N  N98  1  0.36777537  0.05634934  0.49100799  1.0
  N  N99  1  0.35584745  0.93871695  0.63550002  1.0
  N  N100  1  0.62954235  0.27867014  0.57040646  1.0
  N  N101  1  0.56708115  0.88409306  0.50625723  1.0
  N  N102  1  0.30302541  0.71536319  0.35652610  1.0
  N  N103  1  0.63183112  0.13424850  0.68551014  1.0
  N  N104  1  0.57682125  0.28437359  0.63346249  1.0
  N  N105  1  0.50722206  0.87717509  0.56087281  1.0
  N  N106  1  0.36371848  0.71309322  0.30139316  1.0
  N  N107  1  0.68842706  0.13560881  0.62750800  1.0
  N  N108  1  0.30964211  0.94218766  0.43481168  1.0
  N  N109  1  0.41140005  0.05406609  0.69503758  1.0
  N  N110  1  0.48565931  0.04767218  0.35729100  1.0
  N  N111  1  0.64030258  0.94035600  0.35256413  1.0
  N  N112  1  0.48960146  0.32955382  0.30557998  1.0
  N  N113  1  0.80016373  0.74444926  0.40516794  1.0
