# generated using pymatgen
data_AlH8C13N2O7
_symmetry_space_group_name_H-M   'P 1'
_cell_length_a   6.63172354
_cell_length_b   11.10919907
_cell_length_c   15.19900815
_cell_angle_alpha   87.87227954
_cell_angle_beta   77.83188669
_cell_angle_gamma   72.96682861
_symmetry_Int_Tables_number   1
_chemical_formula_structural   AlH8C13N2O7
_chemical_formula_sum   'Al2 H16 C26 N4 O14'
_cell_volume   1046.22401969
_cell_formula_units_Z   2
loop_
 _symmetry_equiv_pos_site_id
 _symmetry_equiv_pos_as_xyz
  1  'x, y, z'
loop_
 _atom_site_type_symbol
 _atom_site_label
 _atom_site_symmetry_multiplicity
 _atom_site_fract_x
 _atom_site_fract_y
 _atom_site_fract_z
 _atom_site_occupancy
  Al  Al0  1  0.00924624  0.47339449  0.50224364  1.0
  Al  Al1  1  0.50517718  0.47850189  0.50288191  1.0
  H  H2  1  0.15142332  0.61134158  0.57503219  1.0
  H  H3  1  0.84603639  0.32350239  0.45840475  1.0
  H  H4  1  0.28871505  0.61011202  0.76853217  1.0
  H  H5  1  0.64053628  0.57201136  0.23880016  1.0
  H  H6  1  0.11325033  0.42753027  0.22489819  1.0
  H  H7  1  0.19524889  0.44442825  0.05694056  1.0
  H  H8  1  0.93693122  0.39124537  0.77849590  1.0
  H  H9  1  0.83663159  0.40286401  0.94638526  1.0
  H  H10  1  0.45456567  0.74362528  0.36197649  1.0
  H  H11  1  0.23544870  0.86288871  0.25831008  1.0
  H  H12  1  0.21252915  0.21330713  0.37744764  1.0
  H  H13  1  0.11574285  0.09869243  0.26552176  1.0
  H  H14  1  0.14821089  0.69614896  0.00497234  1.0
  H  H15  1  0.08029428  0.72558558  0.90400806  1.0
  H  H16  1  0.80092991  0.60565602  0.99883234  1.0
  H  H17  1  0.85126001  0.61826778  0.10207175  1.0
  C  C18  1  0.66351633  0.70083402  0.48898534  1.0
  C  C19  1  0.66698920  0.48758684  0.66463188  1.0
  C  C20  1  0.35779895  0.24957787  0.51350772  1.0
  C  C21  1  0.34000239  0.48154139  0.34022516  1.0
  C  C22  1  0.61629411  0.49894091  0.76447035  1.0
  C  C23  1  0.37315736  0.49916953  0.24125360  1.0
  C  C24  1  0.40940369  0.56715900  0.80827577  1.0
  C  C25  1  0.35735083  0.58396527  0.90213046  1.0
  C  C26  1  0.54008357  0.54708067  0.19842643  1.0
  C  C27  1  0.58259874  0.56230263  0.10476977  1.0
  C  C28  1  0.24248650  0.46528977  0.19084835  1.0
  C  C29  1  0.28821251  0.47605774  0.09770517  1.0
  C  C30  1  0.77525096  0.44337634  0.81350049  1.0
  C  C31  1  0.71890395  0.45220493  0.90693375  1.0
  C  C32  1  0.51178215  0.52092087  0.95295302  1.0
  C  C33  1  0.45761294  0.52224913  0.05280596  1.0
  C  C34  1  0.59490722  0.84232811  0.49063009  1.0
  C  C35  1  0.46016702  0.90935976  0.43208676  1.0
  C  C36  1  0.65052414  0.90786890  0.55258842  1.0
  C  C37  1  0.40240316  0.84605539  0.36612399  1.0
  C  C38  1  0.27876081  0.91327000  0.30825163  1.0
  C  C39  1  0.43452768  0.10796496  0.50731160  1.0
  C  C40  1  0.56289989  0.03979413  0.56361496  1.0
  C  C41  1  0.38517250  0.04457256  0.43843614  1.0
  C  C42  1  0.26344324  0.11083179  0.37574552  1.0
  C  C43  1  0.21033876  0.04633143  0.31263648  1.0
  N  N44  1  0.15254623  0.65890144  0.94423142  1.0
  N  N45  1  0.73883926  0.61852402  0.06597679  1.0
  N  N46  1  0.60285310  0.10547345  0.63777256  1.0
  N  N47  1  0.78473710  0.83643042  0.61515972  1.0
  O  O48  1  0.86354086  0.64472325  0.47614123  1.0
  O  O49  1  0.52040090  0.47400380  0.62685519  1.0
  O  O50  1  0.50514203  0.30390534  0.50001819  1.0
  O  O51  1  0.17269464  0.45056208  0.37962505  1.0
  O  O52  1  0.15670609  0.30109639  0.52534534  1.0
  O  O53  1  0.48402225  0.49665155  0.37904742  1.0
  O  O54  1  0.51194338  0.65044904  0.50231587  1.0
  O  O55  1  0.85225333  0.49473002  0.62422937  1.0
  O  O56  1  0.20958890  0.53393647  0.53859699  1.0
  O  O57  1  0.80427079  0.41449495  0.46561842  1.0
  O  O58  1  0.45048351  0.19179325  0.67780653  1.0
  O  O59  1  0.78562993  0.06855517  0.65474000  1.0
  O  O60  1  0.98222084  0.80436322  0.58793043  1.0
  O  O61  1  0.68578033  0.81217795  0.68877358  1.0
