# generated using pymatgen
data_Mg2H30C38N4O11
_symmetry_space_group_name_H-M   'P 1'
_cell_length_a   11.85008523
_cell_length_b   17.30951213
_cell_length_c   18.40309282
_cell_angle_alpha   106.90871098
_cell_angle_beta   108.26822262
_cell_angle_gamma   103.97606751
_symmetry_Int_Tables_number   1
_chemical_formula_structural   Mg2H30C38N4O11
_chemical_formula_sum   'Mg4 H60 C76 N8 O22'
_cell_volume   3191.41082925
_cell_formula_units_Z   2
loop_
 _symmetry_equiv_pos_site_id
 _symmetry_equiv_pos_as_xyz
  1  'x, y, z'
loop_
 _atom_site_type_symbol
 _atom_site_label
 _atom_site_symmetry_multiplicity
 _atom_site_fract_x
 _atom_site_fract_y
 _atom_site_fract_z
 _atom_site_occupancy
  Mg  Mg0  1  0.91174894  0.65255758  0.81225518  1.0
  Mg  Mg1  1  0.08826418  0.34745614  0.18774429  1.0
  Mg  Mg2  1  0.23186981  0.69157906  0.84417841  1.0
  Mg  Mg3  1  0.76815060  0.30842769  0.15583819  1.0
  H  H4  1  0.99936528  0.88607764  0.02069319  1.0
  H  H5  1  0.00063445  0.11390455  0.97929481  1.0
  H  H6  1  0.06686523  0.03652204  0.12379796  1.0
  H  H7  1  0.93310926  0.96344945  0.87619829  1.0
  H  H8  1  0.44401594  0.09192974  0.12734591  1.0
  H  H9  1  0.55598067  0.90807036  0.87267300  1.0
  H  H10  1  0.37322644  0.94147914  0.02243187  1.0
  H  H11  1  0.62678283  0.05852115  0.97758550  1.0
  H  H12  1  0.14256669  0.18329017  0.10403170  1.0
  H  H13  1  0.85743599  0.81670272  0.89596467  1.0
  H  H14  1  0.36189029  0.40077714  0.32198799  1.0
  H  H15  1  0.63812987  0.59922973  0.67801392  1.0
  H  H16  1  0.40308961  0.39606510  0.45083465  1.0
  H  H17  1  0.59692168  0.60396433  0.54917719  1.0
  H  H18  1  0.56255489  0.47393402  0.59724685  1.0
  H  H19  1  0.43745387  0.52607138  0.40276016  1.0
  H  H20  1  0.82818608  0.37203020  0.53164675  1.0
  H  H21  1  0.17180210  0.62795222  0.46837983  1.0
  H  H22  1  0.67270171  0.29676840  0.38398528  1.0
  H  H23  1  0.32729054  0.70323366  0.61604089  1.0
  H  H24  1  0.88205033  0.37559797  0.41969288  1.0
  H  H25  1  0.11793875  0.62439522  0.58030348  1.0
  H  H26  1  0.00877881  0.44475133  0.57391151  1.0
  H  H27  1  0.99121998  0.55522558  0.42608610  1.0
  H  H28  1  0.32652937  0.38715969  0.53936675  1.0
  H  H29  1  0.67347074  0.61282743  0.46061698  1.0
  H  H30  1  0.19783847  0.31808042  0.38558566  1.0
  H  H31  1  0.80213493  0.68191598  0.61439329  1.0
  H  H32  1  0.17401353  0.56668601  0.66720222  1.0
  H  H33  1  0.82591818  0.43328665  0.33276971  1.0
  H  H34  1  0.42181126  0.59261661  0.89601686  1.0
  H  H35  1  0.57820276  0.40742718  0.10397386  1.0
  H  H36  1  0.65548352  0.53590624  0.85177230  1.0
  H  H37  1  0.34452186  0.46410137  0.14821108  1.0
  H  H38  1  0.79984151  0.49228873  0.94828148  1.0
  H  H39  1  0.20018029  0.50773539  0.05169877  1.0
  H  H40  1  0.47733343  0.31582841  0.94985641  1.0
  H  H41  1  0.52270981  0.68416367  0.05012175  1.0
  H  H42  1  0.33063303  0.36086200  0.85486186  1.0
  H  H43  1  0.66940150  0.63911511  0.14512106  1.0
  H  H44  1  0.52414399  0.18207079  0.35977225  1.0
  H  H45  1  0.47583319  0.81790426  0.64024147  1.0
  H  H46  1  0.43179711  0.09335870  0.26534685  1.0
  H  H47  1  0.56816021  0.90662761  0.73466706  1.0
  H  H48  1  0.28996354  0.31721514  0.61124870  1.0
  H  H49  1  0.71000981  0.68278234  0.38875464  1.0
  H  H50  1  0.39734221  0.33383898  0.70903462  1.0
  H  H51  1  0.60263965  0.66616358  0.29095901  1.0
  H  H52  1  0.00911278  0.54410580  0.76221151  1.0
  H  H53  1  0.99088470  0.45588259  0.23777865  1.0
  H  H54  1  0.08337648  0.58194210  0.86791391  1.0
  H  H55  1  0.91663036  0.41805228  0.13209704  1.0
  H  H56  1  0.45432774  0.77006784  0.94591853  1.0
  H  H57  1  0.54577877  0.22997235  0.05410136  1.0
  H  H58  1  0.47591742  0.74175532  0.86460643  1.0
  H  H59  1  0.52398436  0.25823901  0.13534658  1.0
  H  H60  1  0.97446169  0.59229440  0.93380459  1.0
  H  H61  1  0.02554378  0.40771171  0.06619987  1.0
  H  H62  1  0.94536665  0.67571915  0.95476222  1.0
  H  H63  1  0.05464719  0.32429073  0.04524252  1.0
  C  C64  1  0.13824649  0.81630903  0.94679176  1.0
  C  C65  1  0.86175970  0.18368915  0.05321880  1.0
  C  C66  1  0.18171439  0.90460857  0.01436480  1.0
  C  C67  1  0.81829232  0.09536971  0.98564554  1.0
  C  C68  1  0.09661913  0.93154659  0.04422927  1.0
  C  C69  1  0.90338766  0.06843310  0.95576977  1.0
  C  C70  1  0.13467782  0.01562311  0.10224908  1.0
  C  C71  1  0.86531315  0.98435323  0.89776412  1.0
  C  C72  1  0.25996435  0.07463943  0.13275729  1.0
  C  C73  1  0.74001498  0.92534237  0.86726444  1.0
  C  C74  1  0.34690591  0.04647065  0.10521199  1.0
  C  C75  1  0.65308618  0.95352308  0.89480020  1.0
  C  C76  1  0.30766345  0.96269731  0.04621926  1.0
  C  C77  1  0.69234095  0.03729978  0.95379530  1.0
  C  C78  1  0.29651113  0.16590489  0.18914673  1.0
  C  C79  1  0.70347212  0.83408433  0.81086729  1.0
  C  C80  1  0.22451795  0.21357368  0.16424871  1.0
  C  C81  1  0.77546658  0.78641801  0.83575992  1.0
  C  C82  1  0.34637337  0.33396497  0.28588270  1.0
  C  C83  1  0.65364333  0.66603526  0.71412837  1.0
  C  C84  1  0.42500675  0.29325266  0.31930831  1.0
  C  C85  1  0.57498838  0.70673939  0.68071606  1.0
  C  C86  1  0.39868865  0.20521632  0.26988431  1.0
  C  C87  1  0.60130512  0.79477906  0.73012940  1.0
  C  C88  1  0.52393278  0.33930418  0.40602189  1.0
  C  C89  1  0.47606995  0.66069557  0.59399618  1.0
  C  C90  1  0.49659963  0.39072611  0.46802640  1.0
  C  C91  1  0.50340589  0.60928256  0.53199474  1.0
  C  C92  1  0.58652163  0.43515263  0.55032499  1.0
  C  C93  1  0.41349385  0.56485324  0.44969113  1.0
  C  C94  1  0.70801991  0.43019229  0.57410560  1.0
  C  C95  1  0.29199373  0.56980646  0.42591623  1.0
  C  C96  1  0.73495524  0.37750613  0.51315866  1.0
  C  C97  1  0.26504213  0.62249185  0.48685878  1.0
  C  C98  1  0.64571950  0.33353348  0.43047962  1.0
  C  C99  1  0.35427947  0.66648248  0.56953241  1.0
  C  C100  1  0.81090164  0.48432785  0.66087039  1.0
  C  C101  1  0.18910904  0.51567643  0.33913746  1.0
  C  C102  1  0.96243895  0.30848765  0.30016444  1.0
  C  C103  1  0.03754998  0.69151595  0.69982542  1.0
  C  C104  1  0.03189192  0.34183976  0.39311593  1.0
  C  C105  1  0.96809779  0.65815933  0.60686652  1.0
  C  C106  1  0.97915801  0.37764595  0.44649181  1.0
  C  C107  1  0.02082675  0.62234811  0.55348741  1.0
  C  C108  1  0.04993472  0.41657789  0.53240872  1.0
  C  C109  1  0.95003956  0.58340369  0.46756801  1.0
  C  C110  1  0.17581451  0.42015008  0.56764409  1.0
  C  C111  1  0.82418358  0.57985091  0.43234312  1.0
  C  C112  1  0.22788871  0.38297437  0.51381372  1.0
  C  C113  1  0.77210101  0.61701258  0.48617350  1.0
  C  C114  1  0.15706425  0.34481901  0.42787667  1.0
  C  C115  1  0.84291636  0.65517024  0.57210866  1.0
  C  C116  1  0.24979187  0.46468511  0.65877876  1.0
  C  C117  1  0.75021240  0.53531751  0.34121029  1.0
  C  C118  1  0.23652635  0.54058151  0.70152426  1.0
  C  C119  1  0.76346021  0.45941572  0.29845234  1.0
  C  C120  1  0.37521991  0.55604754  0.82857622  1.0
  C  C121  1  0.62478872  0.44396526  0.17140080  1.0
  C  C122  1  0.39646159  0.48137353  0.79369314  1.0
  C  C123  1  0.60354141  0.51863015  0.20628648  1.0
  C  C124  1  0.33137993  0.43258230  0.70631413  1.0
  C  C125  1  0.66861121  0.56743168  0.29367608  1.0
  C  C126  1  0.48313415  0.45193434  0.84757560  1.0
  C  C127  1  0.51686045  0.54806220  0.15242084  1.0
  C  C128  1  0.61559346  0.48778059  0.87313828  1.0
  C  C129  1  0.38440845  0.51222635  0.12684894  1.0
  C  C130  1  0.69699974  0.46290266  0.92670574  1.0
  C  C131  1  0.30302811  0.53712177  0.07328633  1.0
  C  C132  1  0.64805122  0.40134755  0.95505725  1.0
  C  C133  1  0.35197656  0.59866873  0.04493159  1.0
  C  C134  1  0.51548666  0.36378932  0.92782934  1.0
  C  C135  1  0.48454634  0.63621278  0.07216181  1.0
  C  C136  1  0.43364839  0.38871876  0.87454188  1.0
  C  C137  1  0.56636837  0.61126825  0.12544957  1.0
  C  C138  1  0.73778723  0.38094530  0.01830542  1.0
  C  C139  1  0.26223550  0.61906489  0.98169962  1.0
  N  N140  1  0.24644806  0.29628579  0.21070010  1.0
  N  N141  1  0.75356584  0.70371596  0.78930990  1.0
  N  N142  1  0.46438472  0.15813386  0.29872059  1.0
  N  N143  1  0.53559009  0.84185185  0.70129413  1.0
  N  N144  1  0.29573228  0.58637087  0.78450140  1.0
  N  N145  1  0.70424397  0.41364239  0.21547799  1.0
  N  N146  1  0.34809777  0.35772930  0.67119609  1.0
  N  N147  1  0.65187652  0.64228191  0.32880540  1.0
  O  O148  1  0.21710539  0.79881135  0.91814008  1.0
  O  O149  1  0.78290587  0.20119374  0.08187771  1.0
  O  O150  1  0.02311958  0.76519503  0.92183364  1.0
  O  O151  1  0.97687926  0.23481059  0.07816662  1.0
  O  O152  1  0.91897928  0.47620839  0.67673983  1.0
  O  O153  1  0.08102478  0.52379109  0.32325880  1.0
  O  O154  1  0.78517682  0.53737937  0.71209965  1.0
  O  O155  1  0.21486413  0.46264470  0.28790724  1.0
  O  O156  1  0.05778588  0.59896449  0.81822915  1.0
  O  O157  1  0.94221218  0.40102695  0.18177461  1.0
  O  O158  1  0.43321146  0.77418352  0.89159113  1.0
  O  O159  1  0.56677776  0.22584061  0.10842000  1.0
  O  O160  1  0.90533916  0.61419155  0.91668664  1.0
  O  O161  1  0.09467334  0.38581985  0.08331549  1.0
  O  O162  1  0.02688875  0.29207987  0.25802317  1.0
  O  O163  1  0.97310302  0.70794058  0.74196712  1.0
  O  O164  1  0.84632981  0.30252167  0.26956669  1.0
  O  O165  1  0.15365918  0.69747980  0.73042668  1.0
  O  O166  1  0.85748791  0.42142419  0.04443451  1.0
  O  O167  1  0.14253723  0.57859430  0.95558290  1.0
  O  O168  1  0.68872394  0.32737596  0.04533560  1.0
  O  O169  1  0.31129201  0.67261960  0.95465885  1.0
