# generated using pymatgen
data_Zn4H26C49O16
_symmetry_space_group_name_H-M   'P 1'
_cell_length_a   15.55487256
_cell_length_b   15.80937090
_cell_length_c   19.41997554
_cell_angle_alpha   83.14114732
_cell_angle_beta   79.25697093
_cell_angle_gamma   67.00316532
_symmetry_Int_Tables_number   1
_chemical_formula_structural   Zn4H26C49O16
_chemical_formula_sum   'Zn4 H26 C49 O16'
_cell_volume   4313.29722012
_cell_formula_units_Z   1
loop_
 _symmetry_equiv_pos_site_id
 _symmetry_equiv_pos_as_xyz
  1  'x, y, z'
loop_
 _atom_site_type_symbol
 _atom_site_label
 _atom_site_symmetry_multiplicity
 _atom_site_fract_x
 _atom_site_fract_y
 _atom_site_fract_z
 _atom_site_occupancy
  Zn  Zn0  1  0.42254244  0.60219019  0.43447708  1.0
  Zn  Zn1  1  0.42725100  0.44454000  0.56072018  1.0
  Zn  Zn2  1  0.55345508  0.56766865  0.54485669  1.0
  Zn  Zn3  1  0.60448341  0.40863705  0.44097650  1.0
  H  H4  1  0.42460381  0.61429463  0.22216111  1.0
  H  H5  1  0.61668346  0.76064845  0.51920999  1.0
  H  H6  1  0.81979716  0.73649358  0.47767236  1.0
  H  H7  1  0.94578833  0.78280872  0.49769989  1.0
  H  H8  1  0.16358831  0.45582076  0.51738405  1.0
  H  H9  1  0.88432104  0.28847385  0.47990992  1.0
  H  H10  1  0.11627913  0.35916386  0.50577654  1.0
  H  H11  1  0.05399592  0.24196414  0.49284234  1.0
  H  H12  1  0.75619550  0.61726363  0.47616170  1.0
  H  H13  1  0.48467794  0.63961319  0.75012811  1.0
  H  H14  1  0.47797907  0.57642888  0.98920267  1.0
  H  H15  1  0.48972595  0.63743215  0.87774810  1.0
  H  H16  1  0.59775622  0.31041005  0.11715442  1.0
  H  H17  1  0.60741790  0.32971282  0.24057062  1.0
  H  H18  1  0.51945338  0.36934916  0.01299433  1.0
  H  H19  1  0.41601689  0.59668918  0.09883117  1.0
  H  H20  1  0.18448554  0.74610056  0.53539856  1.0
  H  H21  1  0.44668494  0.37440737  0.72995530  1.0
  H  H22  1  0.45738797  0.31573396  0.88418143  1.0
  H  H23  1  0.71762377  0.13104679  0.54795020  1.0
  H  H24  1  0.71958732  0.82886467  0.55106432  1.0
  H  H25  1  0.75911507  0.96111471  0.55900625  1.0
  H  H26  1  0.44186722  0.17334589  0.50720991  1.0
  H  H27  1  0.31134665  0.88133292  0.44187751  1.0
  H  H28  1  0.35941028  0.11908233  0.48187862  1.0
  H  H29  1  0.25732660  0.05158666  0.44637469  1.0
  C  C30  1  0.55127857  0.26185828  0.52038215  1.0
  C  C31  1  0.50414846  0.43946809  0.02606654  1.0
  C  C32  1  0.48620753  0.50825784  0.97535954  1.0
  C  C33  1  0.46432247  0.75198574  0.47703430  1.0
  C  C34  1  0.47014471  0.50867569  0.75713541  1.0
  C  C35  1  0.69012016  0.00785356  0.54643361  1.0
  C  C36  1  0.57628687  0.16058101  0.52730063  1.0
  C  C37  1  0.35604024  0.91149281  0.45803592  1.0
  C  C38  1  0.32607461  0.00702014  0.46045393  1.0
  C  C39  1  0.38370332  0.04459200  0.48067471  1.0
  C  C40  1  0.47313894  0.98868478  0.49911093  1.0
  C  C41  1  0.50798457  0.45248079  0.09830076  1.0
  C  C42  1  0.50351994  0.89054240  0.49847152  1.0
  C  C43  1  0.53530907  0.02902920  0.51703151  1.0
  C  C44  1  0.62601301  0.97007676  0.53373912  1.0
  C  C45  1  0.25129900  0.56902311  0.51206937  1.0
  C  C46  1  0.65167442  0.87307218  0.53541073  1.0
  C  C47  1  0.59430655  0.83484589  0.51787639  1.0
  C  C48  1  0.51123145  0.12481785  0.51710480  1.0
  C  C49  1  0.66731040  0.10157865  0.54105135  1.0
  C  C50  1  0.44257961  0.85300527  0.47737232  1.0
  C  C51  1  0.99303628  0.71051148  0.50035850  1.0
  C  C52  1  0.56029433  0.37734436  0.14003959  1.0
  C  C53  1  0.14754948  0.59601823  0.51329878  1.0
  C  C54  1  0.91241729  0.34017988  0.48539642  1.0
  C  C55  1  0.00760037  0.31448875  0.49256433  1.0
  C  C56  1  0.04232890  0.38081557  0.49976905  1.0
  C  C57  1  0.74941719  0.45441857  0.48668294  1.0
  C  C58  1  0.98423389  0.47547699  0.49838756  1.0
  C  C59  1  0.88710457  0.50197500  0.49114571  1.0
  C  C60  1  0.02018475  0.54648591  0.50291507  1.0
  C  C61  1  0.95902687  0.64103941  0.49630522  1.0
  C  C62  1  0.86398912  0.66409661  0.48550604  1.0
  C  C63  1  0.56594313  0.38768548  0.20891025  1.0
  C  C64  1  0.82903644  0.59773192  0.48403829  1.0
  C  C65  1  0.11407183  0.52671428  0.51239703  1.0
  C  C66  1  0.08596071  0.69002350  0.50824562  1.0
  C  C67  1  0.85216572  0.43215137  0.48674267  1.0
  C  C68  1  0.47028741  0.50940561  0.68155298  1.0
  C  C69  1  0.51963841  0.48484392  0.31318809  1.0
  C  C70  1  0.51713781  0.47333683  0.23889442  1.0
  C  C71  1  0.46356121  0.54839712  0.19823269  1.0
  C  C72  1  0.45954933  0.53823676  0.12913604  1.0
  C  C73  1  0.11548255  0.76648521  0.51659927  1.0
  C  C74  1  0.47068284  0.43091431  0.87395587  1.0
  C  C75  1  0.46345521  0.43421841  0.80232936  1.0
  C  C76  1  0.48014358  0.58201261  0.78535791  1.0
  C  C77  1  0.48331497  0.58004284  0.85596635  1.0
  C  C78  1  0.48030705  0.50413751  0.90227750  1.0
  O  O79  1  0.49996431  0.50472609  0.49499183  1.0
  O  O80  1  0.45047855  0.44586973  0.65861715  1.0
  O  O81  1  0.57587385  0.41661508  0.34615230  1.0
  O  O82  1  0.49033240  0.57164052  0.64223539  1.0
  O  O83  1  0.46508412  0.56240460  0.33846143  1.0
  O  O84  1  0.06724870  0.84797788  0.50591737  1.0
  O  O85  1  0.45200269  0.36096190  0.78103730  1.0
  O  O86  1  0.46680061  0.35547799  0.91471447  1.0
  O  O87  1  0.28996921  0.61509629  0.46798946  1.0
  O  O88  1  0.72821881  0.41465476  0.44283167  1.0
  O  O89  1  0.46591380  0.31371610  0.54239966  1.0
  O  O90  1  0.52454990  0.69695336  0.51465156  1.0
  O  O91  1  0.61756165  0.28934844  0.49226405  1.0
  O  O92  1  0.41919094  0.72697334  0.44004633  1.0
  O  O93  1  0.29196887  0.50140589  0.55295607  1.0
  O  O94  1  0.69157662  0.50979249  0.53241963  1.0
