# generated using pymatgen
data_Zn3H18C28(N3O2)4
_symmetry_space_group_name_H-M   'P 1'
_cell_length_a   13.09653018
_cell_length_b   13.21633197
_cell_length_c   13.21633913
_cell_angle_alpha   73.47155083
_cell_angle_beta   84.61805727
_cell_angle_gamma   84.61810966
_symmetry_Int_Tables_number   1
_chemical_formula_structural   Zn3H18C28(N3O2)4
_chemical_formula_sum   'Zn6 H36 C56 N24 O16'
_cell_volume   2177.99259781
_cell_formula_units_Z   2
loop_
 _symmetry_equiv_pos_site_id
 _symmetry_equiv_pos_as_xyz
  1  'x, y, z'
loop_
 _atom_site_type_symbol
 _atom_site_label
 _atom_site_symmetry_multiplicity
 _atom_site_fract_x
 _atom_site_fract_y
 _atom_site_fract_z
 _atom_site_occupancy
  Zn  Zn0  1  0.25000125  0.36057966  0.63941764  1.0
  Zn  Zn1  1  0.74999917  0.63942106  0.36058304  1.0
  Zn  Zn2  1  0.00936702  0.61219367  0.72573827  1.0
  Zn  Zn3  1  0.49063584  0.27426459  0.38780318  1.0
  Zn  Zn4  1  0.99063187  0.38780705  0.27426240  1.0
  Zn  Zn5  1  0.50936701  0.72573460  0.61219751  1.0
  H  H6  1  0.19508230  0.65914681  0.55002766  1.0
  H  H7  1  0.30491327  0.44996896  0.34085375  1.0
  H  H8  1  0.80491534  0.34085810  0.44996587  1.0
  H  H9  1  0.69508453  0.55002621  0.65914779  1.0
  H  H10  1  0.01147826  0.86203567  0.69868997  1.0
  H  H11  1  0.48852445  0.30131330  0.13796376  1.0
  H  H12  1  0.98851628  0.13796492  0.30130835  1.0
  H  H13  1  0.51147749  0.69868742  0.86203691  1.0
  H  H14  1  0.25723474  0.86294104  0.46322331  1.0
  H  H15  1  0.24276028  0.53677509  0.13705703  1.0
  H  H16  1  0.74276405  0.13706239  0.53677576  1.0
  H  H17  1  0.75723809  0.46322140  0.86294528  1.0
  H  H18  1  0.06341916  0.01897888  0.70092019  1.0
  H  H19  1  0.43658951  0.29908055  0.98102027  1.0
  H  H20  1  0.93658360  0.98101891  0.29908289  1.0
  H  H21  1  0.56340960  0.70091691  0.01898124  1.0
  H  H22  1  0.05321793  0.21451390  0.65194323  1.0
  H  H23  1  0.44679172  0.34805577  0.78548595  1.0
  H  H24  1  0.94678352  0.78548492  0.34806457  1.0
  H  H25  1  0.55321115  0.65194148  0.21451635  1.0
  H  H26  1  0.19125347  0.22161044  0.34074645  1.0
  H  H27  1  0.30873737  0.65924577  0.77838670  1.0
  H  H28  1  0.80873968  0.77839291  0.65925578  1.0
  H  H29  1  0.69126725  0.34075232  0.22161243  1.0
  H  H30  1  0.19787705  0.02773380  0.38727049  1.0
  H  H31  1  0.30211574  0.61272404  0.97226349  1.0
  H  H32  1  0.80211703  0.97227018  0.61272936  1.0
  H  H33  1  0.69788645  0.38727557  0.02773563  1.0
  H  H34  1  0.05538408  0.46856031  0.93703275  1.0
  H  H35  1  0.44461892  0.06296218  0.53144104  1.0
  H  H36  1  0.94461699  0.53144312  0.06296631  1.0
  H  H37  1  0.55538391  0.93704111  0.46855566  1.0
  H  H38  1  0.18581835  0.25527734  0.98736924  1.0
  H  H39  1  0.31418405  0.01263283  0.74472192  1.0
  H  H40  1  0.81418119  0.74472296  0.01263302  1.0
  H  H41  1  0.68581889  0.98736776  0.25527640  1.0
  C  C42  1  0.16829056  0.73228771  0.56887893  1.0
  C  C43  1  0.33170667  0.43112072  0.26770862  1.0
  C  C44  1  0.83170561  0.26771330  0.43111780  1.0
  C  C45  1  0.66829321  0.56887674  0.73229289  1.0
  C  C46  1  0.07153149  0.83525815  0.64810846  1.0
  C  C47  1  0.42847078  0.35189166  0.16474109  1.0
  C  C48  1  0.92846621  0.16474286  0.35188827  1.0
  C  C49  1  0.57153061  0.64810678  0.83525962  1.0
  C  C50  1  0.19710787  0.83297039  0.52328465  1.0
  C  C51  1  0.30289046  0.47671070  0.16702748  1.0
  C  C52  1  0.80289045  0.16703214  0.47671206  1.0
  C  C53  1  0.69710651  0.52328524  0.83297405  1.0
  C  C54  1  0.13160788  0.01040972  0.54732628  1.0
  C  C55  1  0.36839189  0.45267432  0.98958754  1.0
  C  C56  1  0.86838936  0.98959156  0.45267519  1.0
  C  C57  1  0.63160784  0.54732466  0.01041395  1.0
  C  C58  1  0.09048252  0.06317301  0.62161402  1.0
  C  C59  1  0.40952193  0.37838360  0.93682605  1.0
  C  C60  1  0.90951812  0.93682445  0.37838749  1.0
  C  C61  1  0.59047872  0.62161386  0.06317545  1.0
  C  C62  1  0.08561566  0.17312302  0.59447452  1.0
  C  C63  1  0.41438896  0.40552328  0.82687469  1.0
  C  C64  1  0.91438305  0.82687394  0.40553172  1.0
  C  C65  1  0.58561246  0.59447320  0.17312761  1.0
  C  C66  1  0.12229060  0.23148846  0.49352743  1.0
  C  C67  1  0.37771124  0.50646594  0.76851165  1.0
  C  C68  1  0.87770565  0.76851197  0.50647720  1.0
  C  C69  1  0.62229354  0.49352965  0.23148830  1.0
  C  C70  1  0.16385904  0.17778805  0.42002772  1.0
  C  C71  1  0.33613521  0.57996671  0.82221058  1.0
  C  C72  1  0.83613473  0.82221683  0.57997449  1.0
  C  C73  1  0.66386797  0.42002965  0.17778936  1.0
  C  C74  1  0.16791685  0.06786329  0.44639715  1.0
  C  C75  1  0.33207831  0.55359686  0.93213360  1.0
  C  C76  1  0.83207824  0.93213959  0.55360114  1.0
  C  C77  1  0.66792326  0.44640123  0.06786554  1.0
  C  C78  1  0.11748536  0.34721258  0.46613206  1.0
  C  C79  1  0.38251420  0.53386475  0.65278464  1.0
  C  C80  1  0.88251272  0.65278696  0.53387021  1.0
  C  C81  1  0.61748958  0.46613410  0.34721448  1.0
  C  C82  1  0.14184708  0.41129073  0.81098861  1.0
  C  C83  1  0.35815772  0.18900944  0.58870503  1.0
  C  C84  1  0.85815277  0.58870868  0.18901129  1.0
  C  C85  1  0.64184357  0.81099170  0.41129406  1.0
  C  C86  1  0.10628797  0.40330173  0.92240199  1.0
  C  C87  1  0.39371506  0.07759444  0.59669761  1.0
  C  C88  1  0.89371325  0.59670018  0.07759710  1.0
  C  C89  1  0.60628715  0.92240734  0.40329911  1.0
  C  C90  1  0.13583459  0.32089157  0.00263480  1.0
  C  C91  1  0.36416836  0.99736388  0.67911065  1.0
  C  C92  1  0.86416580  0.67911012  0.99736508  1.0
  C  C93  1  0.63583395  0.00263519  0.32088768  1.0
  C  C94  1  0.09854546  0.31097000  0.11490305  1.0
  C  C95  1  0.40145280  0.88509508  0.68903336  1.0
  C  C96  1  0.90145334  0.68903246  0.88509681  1.0
  C  C97  1  0.59855401  0.11490572  0.31096416  1.0
  N  N98  1  0.09024046  0.73512875  0.64664474  1.0
  N  N99  1  0.40975872  0.35335485  0.26487101  1.0
  N  N100  1  0.90975434  0.26487387  0.35334882  1.0
  N  N101  1  0.59024116  0.64664261  0.73513050  1.0
  N  N102  1  0.13499804  0.89805243  0.57373620  1.0
  N  N103  1  0.36500217  0.42626396  0.10194505  1.0
  N  N104  1  0.86499943  0.10194871  0.42626290  1.0
  N  N105  1  0.63499758  0.57373405  0.89805724  1.0
  N  N106  1  0.07751114  0.41451298  0.38015250  1.0
  N  N107  1  0.42248681  0.61984553  0.58548471  1.0
  N  N108  1  0.92248541  0.58548656  0.61984977  1.0
  N  N109  1  0.57751774  0.38015332  0.41451441  1.0
  N  N110  1  0.08837400  0.51407699  0.38593112  1.0
  N  N111  1  0.41162450  0.61407049  0.48591999  1.0
  N  N112  1  0.91162579  0.48592220  0.61406958  1.0
  N  N113  1  0.58838001  0.38592718  0.51408073  1.0
  N  N114  1  0.13338525  0.50762987  0.47140795  1.0
  N  N115  1  0.36661422  0.52859405  0.49236408  1.0
  N  N116  1  0.86661447  0.49237009  0.52859273  1.0
  N  N117  1  0.63338963  0.47140501  0.50763425  1.0
  N  N118  1  0.15258994  0.40389401  0.52356606  1.0
  N  N119  1  0.34741109  0.47643271  0.59610197  1.0
  N  N120  1  0.84740882  0.59610726  0.47643540  1.0
  N  N121  1  0.65259188  0.52356593  0.40389794  1.0
  O  O122  1  0.11859031  0.49512293  0.73779155  1.0
  O  O123  1  0.38141088  0.26220403  0.50487392  1.0
  O  O124  1  0.88140591  0.50487517  0.26220759  1.0
  O  O125  1  0.61859252  0.73779745  0.49512674  1.0
  O  O126  1  0.19814214  0.33459378  0.79008720  1.0
  O  O127  1  0.30186400  0.20991078  0.66540378  1.0
  O  O128  1  0.80185842  0.66540542  0.20991349  1.0
  O  O129  1  0.69813518  0.79009002  0.33459374  1.0
  O  O130  1  0.10844616  0.22307557  0.18230225  1.0
  O  O131  1  0.39154883  0.81769866  0.77692650  1.0
  O  O132  1  0.89155258  0.77692668  0.81769840  1.0
  O  O133  1  0.60845117  0.18230235  0.22307023  1.0
  O  O134  1  0.05572139  0.39742790  0.13412331  1.0
  O  O135  1  0.44428143  0.86587369  0.60257711  1.0
  O  O136  1  0.94427734  0.60257532  0.86587654  1.0
  O  O137  1  0.55572316  0.13412634  0.39742041  1.0
