# generated using pymatgen
data_Zn2H39C44N7O12
_symmetry_space_group_name_H-M   'P 1'
_cell_length_a   9.58835400
_cell_length_b   10.84385358
_cell_length_c   23.74162806
_cell_angle_alpha   89.28768593
_cell_angle_beta   89.80751038
_cell_angle_gamma   89.76003372
_symmetry_Int_Tables_number   1
_chemical_formula_structural   Zn2H39C44N7O12
_chemical_formula_sum   'Zn2 H39 C44 N7 O12'
_cell_volume   2468.30289981
_cell_formula_units_Z   1
loop_
 _symmetry_equiv_pos_site_id
 _symmetry_equiv_pos_as_xyz
  1  'x, y, z'
loop_
 _atom_site_type_symbol
 _atom_site_label
 _atom_site_symmetry_multiplicity
 _atom_site_fract_x
 _atom_site_fract_y
 _atom_site_fract_z
 _atom_site_occupancy
  Zn  Zn0  1  0.65352410  0.50406509  0.50129060  1.0
  Zn  Zn1  1  0.35906143  0.50446450  0.50019358  1.0
  H  H2  1  0.54921345  0.19202634  0.05497998  1.0
  H  H3  1  0.30627657  0.40392114  0.32704174  1.0
  H  H4  1  0.67919384  0.59032468  0.20921597  1.0
  H  H5  1  0.71486127  0.10150817  0.53522226  1.0
  H  H6  1  0.32237970  0.12083640  0.44814986  1.0
  H  H7  1  0.71090159  0.11414411  0.46132066  1.0
  H  H8  1  0.48017611  0.12240299  0.40951777  1.0
  H  H9  1  0.70751743  0.89927967  0.45518023  1.0
  H  H10  1  0.47412799  0.90778403  0.40459375  1.0
  H  H11  1  0.71274550  0.88783766  0.52916161  1.0
  H  H12  1  0.31837005  0.90486919  0.44427719  1.0
  H  H13  1  0.48368039  0.09878981  0.59080916  1.0
  H  H14  1  0.32498421  0.10443471  0.55336943  1.0
  H  H15  1  0.48643982  0.88423600  0.58574414  1.0
  H  H16  1  0.32523239  0.88898543  0.54994705  1.0
  H  H17  1  0.54995609  0.19321295  0.94823919  1.0
  H  H18  1  0.13610312  0.30968955  0.49489177  1.0
  H  H19  1  0.89841051  0.31423290  0.48295799  1.0
  H  H20  1  0.13439729  0.58894030  0.58136736  1.0
  H  H21  1  0.89029323  0.56352668  0.58576714  1.0
  H  H22  1  0.13813625  0.60306005  0.42792598  1.0
  H  H23  1  0.89306204  0.62601114  0.43612299  1.0
  H  H24  1  0.12374796  0.44195588  0.41983719  1.0
  H  H25  1  0.87905027  0.47017076  0.41542686  1.0
  H  H26  1  0.12175676  0.68738825  0.52119216  1.0
  H  H27  1  0.87448860  0.68039921  0.53382463  1.0
  H  H28  1  0.41293780  0.80234638  0.94634958  1.0
  H  H29  1  0.40623895  0.79987277  0.05309305  1.0
  H  H30  1  0.26614318  0.50776449  0.78289379  1.0
  H  H31  1  0.27535126  0.51351050  0.67704144  1.0
  H  H32  1  0.72233684  0.49940669  0.68271099  1.0
  H  H33  1  0.71423935  0.49461414  0.78838721  1.0
  H  H34  1  0.28788497  0.39900805  0.22166074  1.0
  H  H35  1  0.72523072  0.60988175  0.36061244  1.0
  H  H36  1  0.78399293  0.66150801  0.29420525  1.0
  H  H37  1  0.23738975  0.33941299  0.58283468  1.0
  H  H38  1  0.08066984  0.28361891  0.59822668  1.0
  H  H39  1  0.76009952  0.30359230  0.56126929  1.0
  H  H40  1  0.87441937  0.37071090  0.60266213  1.0
  C  C41  1  0.50610040  0.26359105  0.50290620  1.0
  C  C42  1  0.52921772  0.27652867  0.03093073  1.0
  C  C43  1  0.53004747  0.27723910  0.97174733  1.0
  C  C44  1  0.50598933  0.38599184  0.94166690  1.0
  C  C45  1  0.47965662  0.49718582  0.97057538  1.0
  C  C46  1  0.45594313  0.60946754  0.94099108  1.0
  C  C47  1  0.43020648  0.71732627  0.97037330  1.0
  C  C48  1  0.42679369  0.71606374  0.02952564  1.0
  C  C49  1  0.50836910  0.38490254  0.87917251  1.0
  C  C50  1  0.45929010  0.61291898  0.87852942  1.0
  C  C51  1  0.36558798  0.50623131  0.76054819  1.0
  C  C52  1  0.50538341  0.51006584  0.61082003  1.0
  C  C53  1  0.37067485  0.50989828  0.70191952  1.0
  C  C54  1  0.49951286  0.50760250  0.67392839  1.0
  C  C55  1  0.62311490  0.50147989  0.70514373  1.0
  C  C56  1  0.61862727  0.49886657  0.76371323  1.0
  C  C57  1  0.48964755  0.50128731  0.79098679  1.0
  C  C58  1  0.37624481  0.44184612  0.24226306  1.0
  C  C59  1  0.38746570  0.44412028  0.30048083  1.0
  C  C60  1  0.50211689  0.49690833  0.32771743  1.0
  C  C61  1  0.61080706  0.55082129  0.29456214  1.0
  C  C62  1  0.59775939  0.54902509  0.23540571  1.0
  C  C63  1  0.50169378  0.74214469  0.49445619  1.0
  C  C64  1  0.48339244  0.49545591  0.21039122  1.0
  C  C65  1  0.65726042  0.07244545  0.49773119  1.0
  C  C66  1  0.42865876  0.08243286  0.44693769  1.0
  C  C67  1  0.65563405  0.93043900  0.49394070  1.0
  C  C68  1  0.42586825  0.93944653  0.44399996  1.0
  C  C69  1  0.43190862  0.06782406  0.55221172  1.0
  C  C70  1  0.50749327  0.12317942  0.50036570  1.0
  C  C71  1  0.50488454  0.88277731  0.49451348  1.0
  C  C72  1  0.43209875  0.92529229  0.54930447  1.0
  C  C73  1  0.08931370  0.37645207  0.52430159  1.0
  C  C74  1  0.92669614  0.37114759  0.51906821  1.0
  C  C75  1  0.08608430  0.60003447  0.53994360  1.0
  C  C76  1  0.92556126  0.59196613  0.54360505  1.0
  C  C77  1  0.08814524  0.51993589  0.44521194  1.0
  C  C78  1  0.92761571  0.53150860  0.44601302  1.0
  C  C79  1  0.50418226  0.49662337  0.39035254  1.0
  C  C80  1  0.44690939  0.60812987  0.12203553  1.0
  C  C81  1  0.50572336  0.38215417  0.12279707  1.0
  C  C82  1  0.50333923  0.38439738  0.06026508  1.0
  C  C83  1  0.47750769  0.49620870  0.03060756  1.0
  C  C84  1  0.45017754  0.60713036  0.05953467  1.0
  N  N85  1  0.47710892  0.49508032  0.14953487  1.0
  N  N86  1  0.48502531  0.49942504  0.85181152  1.0
  N  N87  1  0.14080954  0.49990014  0.50342193  1.0
  N  N88  1  0.87249346  0.49973113  0.50299257  1.0
  N  N89  1  0.72706327  0.60203855  0.31789086  1.0
  N  N90  1  0.13283160  0.35777031  0.58193835  1.0
  N  N91  1  0.86381113  0.31703140  0.56802095  1.0
  O  O92  1  0.61928717  0.31974351  0.49094142  1.0
  O  O93  1  0.39250356  0.31670416  0.51639715  1.0
  O  O94  1  0.62234215  0.48475187  0.58794914  1.0
  O  O95  1  0.39306644  0.53611753  0.58476155  1.0
  O  O96  1  0.61432456  0.68670135  0.50806398  1.0
  O  O97  1  0.38675719  0.68957998  0.48295332  1.0
  O  O98  1  0.61732664  0.52901305  0.41487770  1.0
  O  O99  1  0.39344698  0.46453117  0.41649230  1.0
  O  O100  1  0.42033255  0.70145770  0.14890750  1.0
  O  O101  1  0.53227953  0.28849884  0.15037262  1.0
  O  O102  1  0.52922190  0.29095450  0.85200030  1.0
  O  O103  1  0.44145885  0.70802200  0.85081237  1.0
