# generated using pymatgen
data_Al2H18C29O10
_symmetry_space_group_name_H-M   'P 1'
_cell_length_a   6.91193050
_cell_length_b   16.71680178
_cell_length_c   19.65145889
_cell_angle_alpha   71.09188978
_cell_angle_beta   89.76600393
_cell_angle_gamma   89.80457342
_symmetry_Int_Tables_number   1
_chemical_formula_structural   Al2H18C29O10
_chemical_formula_sum   'Al4 H36 C58 O20'
_cell_volume   2148.08737658
_cell_formula_units_Z   2
loop_
 _symmetry_equiv_pos_site_id
 _symmetry_equiv_pos_as_xyz
  1  'x, y, z'
loop_
 _atom_site_type_symbol
 _atom_site_label
 _atom_site_symmetry_multiplicity
 _atom_site_fract_x
 _atom_site_fract_y
 _atom_site_fract_z
 _atom_site_occupancy
  Al  Al0  1  0.09656770  0.50070187  0.50021731  1.0
  Al  Al1  1  0.59649890  0.49903830  0.50083895  1.0
  Al  Al2  1  0.62968654  0.99883168  0.00062870  1.0
  Al  Al3  1  0.12960331  0.00090704  0.00003741  1.0
  H  H4  1  0.55288267  0.30156847  0.69554902  1.0
  H  H5  1  0.04752864  0.69672012  0.30515050  1.0
  H  H6  1  0.57192459  0.18523201  0.81417987  1.0
  H  H7  1  0.06581902  0.81380152  0.18703593  1.0
  H  H8  1  0.32340618  0.15955910  0.77787247  1.0
  H  H9  1  0.81570913  0.83893853  0.22000883  1.0
  H  H10  1  0.32349249  0.23535941  0.82454787  1.0
  H  H11  1  0.81812878  0.76216418  0.17423501  1.0
  H  H12  1  0.30433411  0.27891160  0.65884001  1.0
  H  H13  1  0.79772448  0.72103485  0.33974614  1.0
  H  H14  1  0.30246141  0.35427467  0.70550711  1.0
  H  H15  1  0.79878438  0.64446992  0.29431232  1.0
  H  H16  1  0.11561127  0.41229343  0.33006489  1.0
  H  H17  1  0.08587075  0.59216057  0.67170201  1.0
  H  H18  1  0.42174628  0.19079167  0.36339466  1.0
  H  H19  1  0.79627345  0.80501144  0.63283766  1.0
  H  H20  1  0.42733017  0.11485842  0.27630027  1.0
  H  H21  1  0.80736938  0.87967069  0.72073477  1.0
  H  H22  1  0.59030223  0.08093493  0.17511118  1.0
  H  H23  1  0.65921911  0.91432693  0.82404557  1.0
  H  H24  1  0.14808832  0.18654715  0.09994361  1.0
  H  H25  1  0.09919674  0.81575638  0.90368854  1.0
  H  H26  1  0.29487796  0.29324327  0.14753717  1.0
  H  H27  1  0.93729125  0.71144808  0.85698238  1.0
  H  H28  1  0.28318253  0.37575456  0.23175874  1.0
  H  H29  1  0.93134886  0.63043453  0.77164138  1.0
  H  H30  1  0.49117459  0.21726394  0.45337600  1.0
  H  H31  1  0.58418797  0.29764173  0.48455355  1.0
  H  H32  1  0.40742445  0.32283377  0.41584054  1.0
  H  H33  1  0.71566188  0.77967265  0.54353158  1.0
  H  H34  1  0.79415092  0.67321317  0.58059549  1.0
  H  H35  1  0.61340295  0.70035825  0.51319972  1.0
  H  H36  1  0.34318750  0.39420796  0.50125319  1.0
  H  H37  1  0.84569518  0.60772832  0.49456055  1.0
  H  H38  1  0.38156512  0.10991570  0.98785653  1.0
  H  H39  1  0.88324973  0.88970704  0.01309658  1.0
  C  C40  1  0.34959675  0.58654096  0.57654115  1.0
  C  C41  1  0.84665390  0.41356314  0.42405506  1.0
  C  C42  1  0.34412911  0.61436455  0.38919552  1.0
  C  C43  1  0.85003944  0.38519163  0.61149071  1.0
  C  C44  1  0.03069361  0.28418838  0.71427331  1.0
  C  C45  1  0.52516183  0.71422438  0.28522444  1.0
  C  C46  1  0.85715240  0.31618656  0.68159844  1.0
  C  C47  1  0.35203093  0.68243815  0.31855533  1.0
  C  C48  1  0.69075995  0.27822829  0.71953904  1.0
  C  C49  1  0.18527019  0.72007164  0.28085932  1.0
  C  C50  1  0.70121583  0.21366421  0.78545112  1.0
  C  C51  1  0.19524096  0.78489143  0.21514757  1.0
  C  C52  1  0.87812621  0.18178616  0.81816596  1.0
  C  C53  1  0.37176419  0.81661312  0.18173488  1.0
  C  C54  1  0.04144729  0.21905836  0.77994444  1.0
  C  C55  1  0.53532400  0.77877584  0.21914012  1.0
  C  C56  1  0.25834442  0.21857485  0.78019550  1.0
  C  C57  1  0.75214644  0.77952482  0.21838591  1.0
  C  C58  1  0.24577909  0.29287232  0.70581138  1.0
  C  C59  1  0.74030410  0.70600831  0.29329548  1.0
  C  C60  1  0.00082784  0.36786868  0.32951556  1.0
  C  C61  1  0.20457991  0.63513791  0.67135132  1.0
  C  C62  1  0.84595617  0.35825837  0.37762156  1.0
  C  C63  1  0.35591325  0.64280756  0.62212702  1.0
  C  C64  1  0.69454987  0.30052981  0.38064345  1.0
  C  C65  1  0.51213855  0.69867382  0.61792192  1.0
  C  C66  1  0.69794246  0.25523512  0.33074245  1.0
  C  C67  1  0.51788877  0.74367069  0.66797322  1.0
  C  C68  1  0.85511664  0.26616397  0.28075854  1.0
  C  C69  1  0.36507637  0.73423647  0.71947512  1.0
  C  C70  1  0.00935132  0.32293124  0.28066886  1.0
  C  C71  1  0.20532072  0.67974888  0.72055101  1.0
  C  C72  1  0.54543121  0.19843006  0.32740452  1.0
  C  C73  1  0.67590019  0.79842938  0.67012516  1.0
  C  C74  1  0.54771744  0.15597654  0.27861430  1.0
  C  C75  1  0.68308390  0.84013072  0.71939353  1.0
  C  C76  1  0.70476114  0.16485684  0.22899913  1.0
  C  C77  1  0.53103816  0.83251829  0.77074719  1.0
  C  C78  1  0.86008664  0.22029665  0.23106755  1.0
  C  C79  1  0.37015013  0.77934698  0.76971371  1.0
  C  C80  1  0.02077369  0.22938480  0.18291346  1.0
  C  C81  1  0.21392327  0.77177069  0.81945636  1.0
  C  C82  1  0.17293009  0.28691039  0.18434725  1.0
  C  C83  1  0.05589189  0.71658476  0.81899731  1.0
  C  C84  1  0.16665703  0.33219023  0.23092254  1.0
  C  C85  1  0.05246739  0.67206908  0.77181799  1.0
  C  C86  1  0.71010372  0.12175026  0.17851122  1.0
  C  C87  1  0.53539186  0.87504789  0.82167563  1.0
  C  C88  1  0.86970692  0.12944898  0.13275880  1.0
  C  C89  1  0.37970442  0.86912903  0.86877991  1.0
  C  C90  1  0.02460773  0.18187489  0.13573238  1.0
  C  C91  1  0.21969626  0.81877899  0.86696678  1.0
  C  C92  1  0.37471178  0.88566672  0.11145424  1.0
  C  C93  1  0.88304201  0.11365658  0.88894782  1.0
  C  C94  1  0.38318559  0.91706113  0.92103290  1.0
  C  C95  1  0.87269872  0.08201294  0.08011500  1.0
  C  C96  1  0.53631207  0.28366851  0.43658559  1.0
  C  C97  1  0.66666667  0.71377579  0.56076144  1.0
  O  O98  1  0.50728838  0.59032778  0.41937420  1.0
  O  O99  1  0.01420698  0.41521451  0.58562504  1.0
  O  O100  1  0.18412168  0.56965023  0.55597671  1.0
  O  O101  1  0.68261518  0.43908286  0.43881644  1.0
  O  O102  1  0.17747175  0.58666508  0.41389347  1.0
  O  O103  1  0.68462552  0.40771328  0.58288972  1.0
  O  O104  1  0.01125011  0.43197590  0.44415182  1.0
  O  O105  1  0.51200696  0.55847699  0.56312803  1.0
  O  O106  1  0.34621496  0.44894960  0.50828080  1.0
  O  O107  1  0.84579249  0.55071228  0.49227856  1.0
  O  O108  1  0.22009696  0.93109266  0.94566564  1.0
  O  O109  1  0.70880439  0.05786359  0.06445998  1.0
  O  O110  1  0.53995998  0.90751776  0.08210636  1.0
  O  O111  1  0.04990921  0.08570565  0.91310479  1.0
  O  O112  1  0.54882840  0.93942438  0.93690655  1.0
  O  O113  1  0.03693457  0.07025135  0.05489800  1.0
  O  O114  1  0.72043505  0.08979716  0.91972248  1.0
  O  O115  1  0.21074154  0.91642742  0.08640476  1.0
  O  O116  1  0.37996814  0.05064589  0.99186573  1.0
  O  O117  1  0.88071992  0.94907273  0.00873540  1.0
