# generated using pymatgen
data_Zn4H18C33(NO7)2
_symmetry_space_group_name_H-M   'P 1'
_cell_length_a   18.04500684
_cell_length_b   18.23403997
_cell_length_c   18.25314771
_cell_angle_alpha   90.22938685
_cell_angle_beta   119.55589170
_cell_angle_gamma   119.44730885
_symmetry_Int_Tables_number   1
_chemical_formula_structural   Zn4H18C33(NO7)2
_chemical_formula_sum   'Zn8 H36 C66 N4 O28'
_cell_volume   4301.79521594
_cell_formula_units_Z   2
loop_
 _symmetry_equiv_pos_site_id
 _symmetry_equiv_pos_as_xyz
  1  'x, y, z'
loop_
 _atom_site_type_symbol
 _atom_site_label
 _atom_site_symmetry_multiplicity
 _atom_site_fract_x
 _atom_site_fract_y
 _atom_site_fract_z
 _atom_site_occupancy
  Zn  Zn0  1  0.41161915  0.61811780  0.20885629  1.0
  Zn  Zn1  1  0.58838250  0.38188389  0.79114494  1.0
  Zn  Zn2  1  0.58962420  0.79413884  0.20789496  1.0
  Zn  Zn3  1  0.41037811  0.20586218  0.79210715  1.0
  Zn  Zn4  1  0.58941390  0.79427661  0.38150744  1.0
  Zn  Zn5  1  0.41058557  0.20572442  0.61849312  1.0
  Zn  Zn6  1  0.41166986  0.79417805  0.20332886  1.0
  Zn  Zn7  1  0.58833059  0.20582299  0.79667075  1.0
  H  H8  1  0.93102769  0.52760776  0.07549538  1.0
  H  H9  1  0.93388455  0.07733725  0.53044307  1.0
  H  H10  1  0.94223263  0.97313123  0.34338604  1.0
  H  H11  1  0.05776844  0.02686913  0.65661124  1.0
  H  H12  1  0.07036755  0.14325799  0.47413928  1.0
  H  H13  1  0.92963309  0.85674305  0.52585798  1.0
  H  H14  1  0.60648966  0.65648310  0.01399579  1.0
  H  H15  1  0.39351385  0.34351524  0.98600903  1.0
  H  H16  1  0.67726100  0.54436044  0.06446866  1.0
  H  H17  1  0.32274263  0.45563857  0.93553669  1.0
  H  H18  1  0.05510037  0.65604608  0.02702748  1.0
  H  H19  1  0.06897548  0.47239192  0.92450675  1.0
  H  H20  1  0.94490204  0.34395427  0.97297495  1.0
  H  H21  1  0.93056170  0.52670055  0.85707217  1.0
  H  H22  1  0.06944093  0.47329846  0.14293092  1.0
  H  H23  1  0.32989422  0.47607618  0.40813160  1.0
  H  H24  1  0.67010482  0.52392419  0.59186874  1.0
  H  H25  1  0.36689076  0.34273765  0.40425125  1.0
  H  H26  1  0.63310773  0.65726272  0.59574855  1.0
  H  H27  1  0.54838090  0.14178468  0.47027862  1.0
  H  H28  1  0.45161421  0.85821571  0.52971909  1.0
  H  H29  1  0.37118899  0.97116960  0.34417565  1.0
  H  H30  1  0.45455053  0.92704676  0.85750344  1.0
  H  H31  1  0.62880732  0.02883079  0.65582197  1.0
  H  H32  1  0.37635560  0.58952971  0.54199530  1.0
  H  H33  1  0.51140588  0.66636485  0.62863607  1.0
  H  H34  1  0.41995739  0.60558335  0.65670837  1.0
  H  H35  1  0.48859459  0.33363618  0.37136675  1.0
  H  H36  1  0.62364377  0.41047132  0.45800643  1.0
  H  H37  1  0.58004143  0.39441568  0.34329411  1.0
  H  H38  1  0.54544892  0.07295161  0.14249670  1.0
  H  H39  1  0.32969226  0.85844562  0.92494264  1.0
  H  H40  1  0.67030717  0.14155208  0.07505579  1.0
  H  H41  1  0.37080438  0.02967249  0.97182168  1.0
  H  H42  1  0.62919406  0.97032454  0.02817599  1.0
  H  H43  1  0.06611675  0.92266445  0.46955527  1.0
  C  C44  1  0.50199562  0.88879190  0.10821145  1.0
  C  C45  1  0.50260447  0.55549335  0.45020336  1.0
  C  C46  1  0.42588523  0.41253915  0.44606568  1.0
  C  C47  1  0.57411458  0.58746254  0.55393627  1.0
  C  C48  1  0.42871831  0.98472907  0.41359239  1.0
  C  C49  1  0.57128060  0.01527198  0.58640442  1.0
  C  C50  1  0.52620463  0.07812757  0.48266741  1.0
  C  C51  1  0.47379276  0.92187348  0.51732980  1.0
  C  C52  1  0.50541581  0.05453958  0.55602469  1.0
  C  C53  1  0.49458013  0.94545881  0.44397132  1.0
  C  C54  1  0.40454432  0.95948179  0.48543422  1.0
  C  C55  1  0.49800491  0.11120780  0.89178678  1.0
  C  C56  1  0.59544935  0.04051660  0.51456399  1.0
  C  C57  1  0.40518086  0.92208243  0.95753143  1.0
  C  C58  1  0.59481956  0.07791593  0.04246777  1.0
  C  C59  1  0.50182766  0.61219180  0.39223398  1.0
  C  C60  1  0.49817281  0.38780990  0.60776734  1.0
  C  C61  1  0.47489954  0.95866050  0.92153470  1.0
  C  C62  1  0.52509847  0.04133720  0.07846296  1.0
  C  C63  1  0.49683361  0.05306560  0.94822712  1.0
  C  C64  1  0.50316418  0.94693211  0.05176968  1.0
  C  C65  1  0.42803098  0.01612131  0.98474329  1.0
  C  C66  1  0.96293684  0.51569100  0.92126848  1.0
  C  C67  1  0.57196858  0.98387907  0.01525438  1.0
  C  C68  1  0.96881361  0.98548656  0.41323238  1.0
  C  C69  1  0.03118539  0.01451248  0.58676455  1.0
  C  C70  1  0.03532858  0.95623715  0.48221825  1.0
  C  C71  1  0.96467117  0.04376255  0.51777858  1.0
  C  C72  1  0.10472971  0.04997791  0.55501727  1.0
  C  C73  1  0.89527094  0.95002313  0.44498000  1.0
  C  C74  1  0.03741430  0.07887884  0.48467474  1.0
  C  C75  1  0.96258405  0.92112087  0.51532132  1.0
  C  C76  1  0.55979746  0.58674399  0.00783891  1.0
  C  C77  1  0.03706809  0.48430934  0.07873582  1.0
  C  C78  1  0.44020604  0.41325502  0.99216441  1.0
  C  C79  1  0.46046285  0.50987137  0.91751129  1.0
  C  C80  1  0.53953869  0.49012698  0.08249220  1.0
  C  C81  1  0.49997374  0.44692824  0.94755406  1.0
  C  C82  1  0.50002781  0.55307145  0.05244964  1.0
  C  C83  1  0.50074957  0.61004893  0.11207349  1.0
  C  C84  1  0.49925110  0.38994942  0.88792978  1.0
  C  C85  1  0.59851237  0.52526537  0.03579688  1.0
  C  C86  1  0.40148926  0.47473365  0.96420394  1.0
  C  C87  1  0.49423290  0.88705225  0.38608580  1.0
  C  C88  1  0.40518227  0.48588852  0.44948259  1.0
  C  C89  1  0.50576328  0.11294546  0.61391258  1.0
  C  C90  1  0.78083592  0.89374998  0.38840680  1.0
  C  C91  1  0.21916435  0.10624972  0.61158737  1.0
  C  C92  1  0.21961099  0.61324933  0.10834910  1.0
  C  C93  1  0.78039208  0.38675236  0.89165291  1.0
  C  C94  1  0.02981911  0.58649729  0.01466011  1.0
  C  C95  1  0.97018418  0.41350239  0.98534405  1.0
  C  C96  1  0.96295690  0.51609802  0.04259102  1.0
  C  C97  1  0.03704683  0.48390300  0.95741186  1.0
  C  C98  1  0.89514041  0.44393928  0.94868518  1.0
  C  C99  1  0.59481775  0.51411318  0.55051702  1.0
  C  C100  1  0.10486320  0.55606039  0.05131867  1.0
  C  C101  1  0.41902270  0.52032869  0.83190626  1.0
  C  C102  1  0.58097768  0.47967032  0.16810223  1.0
  C  C103  1  0.43968176  0.60268324  0.60937061  1.0
  C  C104  1  0.56031893  0.39731645  0.39063287  1.0
  C  C105  1  0.30624005  0.91864481  0.47194621  1.0
  C  C106  1  0.69375390  0.08135091  0.52804807  1.0
  C  C107  1  0.47725097  0.51879324  0.55469168  1.0
  C  C108  1  0.52274796  0.48120780  0.44530833  1.0
  C  C109  1  0.49739478  0.44450768  0.54979634  1.0
  N  N110  1  0.38416261  0.53021701  0.76234363  1.0
  N  N111  1  0.61583393  0.46978336  0.23765805  1.0
  N  N112  1  0.22571371  0.88500067  0.46116912  1.0
  N  N113  1  0.77428211  0.11499772  0.53882487  1.0
  O  O114  1  0.49950510  0.74942300  0.25029246  1.0
  O  O115  1  0.43121338  0.30383278  0.56931272  1.0
  O  O116  1  0.44133665  0.87053959  0.13279513  1.0
  O  O117  1  0.55866444  0.12945944  0.86720515  1.0
  O  O118  1  0.43357644  0.57170125  0.30857773  1.0
  O  O119  1  0.56642233  0.42830379  0.69142526  1.0
  O  O120  1  0.56649231  0.69352299  0.13699962  1.0
  O  O121  1  0.43350475  0.30647338  0.86300198  1.0
  O  O122  1  0.55288146  0.86115148  0.42739705  1.0
  O  O123  1  0.44711202  0.13884557  0.57260331  1.0
  O  O124  1  0.73641492  0.86906269  0.30409562  1.0
  O  O125  1  0.50049699  0.25057802  0.74970879  1.0
  O  O126  1  0.26358702  0.13092700  0.69589905  1.0
  O  O127  1  0.26379180  0.69759645  0.13088825  1.0
  O  O128  1  0.73621019  0.30240524  0.86911268  1.0
  O  O129  1  0.73610370  0.87393949  0.42897792  1.0
  O  O130  1  0.26389281  0.12606691  0.57101348  1.0
  O  O131  1  0.26418718  0.57247194  0.13028776  1.0
  O  O132  1  0.73581620  0.42752974  0.86971393  1.0
  O  O133  1  0.45334097  0.53140905  0.61221899  1.0
  O  O134  1  0.54666037  0.46859265  0.38778256  1.0
  O  O135  1  0.43616270  0.56911658  0.13217024  1.0
  O  O136  1  0.56383653  0.43087911  0.86783184  1.0
  O  O137  1  0.43671983  0.86991896  0.30246564  1.0
  O  O138  1  0.56327832  0.13008075  0.69753276  1.0
  O  O139  1  0.56059203  0.86183875  0.12728999  1.0
  O  O140  1  0.43941116  0.13816360  0.87271256  1.0
  O  O141  1  0.56878807  0.69616958  0.43068936  1.0
