# generated using pymatgen
data_Co2H18C24N2O13
_symmetry_space_group_name_H-M   'P 1'
_cell_length_a   10.13608110
_cell_length_b   17.90547729
_cell_length_c   18.08035941
_cell_angle_alpha   89.99179207
_cell_angle_beta   86.18260809
_cell_angle_gamma   89.99783154
_symmetry_Int_Tables_number   1
_chemical_formula_structural   Co2H18C24N2O13
_chemical_formula_sum   'Co4 H36 C48 N4 O26'
_cell_volume   3274.14867342
_cell_formula_units_Z   2
loop_
 _symmetry_equiv_pos_site_id
 _symmetry_equiv_pos_as_xyz
  1  'x, y, z'
loop_
 _atom_site_type_symbol
 _atom_site_label
 _atom_site_symmetry_multiplicity
 _atom_site_fract_x
 _atom_site_fract_y
 _atom_site_fract_z
 _atom_site_occupancy
  Co  Co0  1  0.49704750  0.30468470  0.63717927  1.0
  Co  Co1  1  0.71624350  0.26035433  0.50211890  1.0
  Co  Co2  1  0.50290691  0.80470633  0.36295076  1.0
  Co  Co3  1  0.28381516  0.76032922  0.49779572  1.0
  H  H4  1  0.32593457  0.99047749  0.77235879  1.0
  H  H5  1  0.16060722  0.85856837  0.08680014  1.0
  H  H6  1  0.99816936  0.84041230  0.78692357  1.0
  H  H7  1  0.88859748  0.83234346  0.91566006  1.0
  H  H8  1  0.23692355  0.92683377  0.00277056  1.0
  H  H9  1  0.34248447  0.93679614  0.87757783  1.0
  H  H10  1  0.41149962  0.08766604  0.69808780  1.0
  H  H11  1  0.56003287  0.03764453  0.47548850  1.0
  H  H12  1  0.38084763  0.86352472  0.61039473  1.0
  H  H13  1  0.81274245  0.84543593  0.16874883  1.0
  H  H14  1  0.95158300  0.79217375  0.38219903  1.0
  H  H15  1  0.23316343  0.83980029  0.20003043  1.0
  H  H16  1  0.88289590  0.14536639  0.50339264  1.0
  H  H17  1  0.84317356  0.16387533  0.42377103  1.0
  H  H18  1  0.93360605  0.33278900  0.46421171  1.0
  H  H19  1  0.84332568  0.35531794  0.39969965  1.0
  H  H20  1  0.72081111  0.26567555  0.34080289  1.0
  H  H21  1  0.60627213  0.20999564  0.36961075  1.0
  H  H22  1  0.67409809  0.49054062  0.22762615  1.0
  H  H23  1  0.83936929  0.35856010  0.91317092  1.0
  H  H24  1  0.00177203  0.34038259  0.21309576  1.0
  H  H25  1  0.11134525  0.33226029  0.08435648  1.0
  H  H26  1  0.76308540  0.42684341  0.99720942  1.0
  H  H27  1  0.65753285  0.43687828  0.12239763  1.0
  H  H28  1  0.58848585  0.58773489  0.30187583  1.0
  H  H29  1  0.43999877  0.53765742  0.52449301  1.0
  H  H30  1  0.61924508  0.36357498  0.38963166  1.0
  H  H31  1  0.18729372  0.34540002  0.83127528  1.0
  H  H32  1  0.04848923  0.29213725  0.61781397  1.0
  H  H33  1  0.76688069  0.33978379  0.79997478  1.0
  H  H34  1  0.11685608  0.64550256  0.49663109  1.0
  H  H35  1  0.15676742  0.66389909  0.57624948  1.0
  H  H36  1  0.06651538  0.83286695  0.53577802  1.0
  H  H37  1  0.15676098  0.85536669  0.60028668  1.0
  H  H38  1  0.27925296  0.76565948  0.65916883  1.0
  H  H39  1  0.39376556  0.70995504  0.63040866  1.0
  C  C40  1  0.17581693  0.89029320  0.82341263  1.0
  C  C41  1  0.04870358  0.85947748  0.83478555  1.0
  C  C42  1  0.98852173  0.85429728  0.90581064  1.0
  C  C43  1  0.05541507  0.87713386  0.96741656  1.0
  C  C44  1  0.18294814  0.90728050  0.95621938  1.0
  C  C45  1  0.24229997  0.91438735  0.88477762  1.0
  C  C46  1  0.23421621  0.89509395  0.74583279  1.0
  C  C47  1  0.98226525  0.86758290  0.04202969  1.0
  C  C48  1  0.38641684  0.97243502  0.66266947  1.0
  C  C49  1  0.42899363  0.04647272  0.65399126  1.0
  C  C50  1  0.49454143  0.06953405  0.58733950  1.0
  C  C51  1  0.51271429  0.01950318  0.52823704  1.0
  C  C52  1  0.46847826  0.94590280  0.53689635  1.0
  C  C53  1  0.40940172  0.92156517  0.60467308  1.0
  C  C54  1  0.54124491  0.14880594  0.57966594  1.0
  C  C55  1  0.48004817  0.89344458  0.47323158  1.0
  C  C56  1  0.02601898  0.84383272  0.17502311  1.0
  C  C57  1  0.89447150  0.83702558  0.20373074  1.0
  C  C58  1  0.86967655  0.81864390  0.27864592  1.0
  C  C59  1  0.97350678  0.80705362  0.32435632  1.0
  C  C60  1  0.10424002  0.81498778  0.29580061  1.0
  C  C61  1  0.13032817  0.83368496  0.22129327  1.0
  C  C62  1  0.73125752  0.81109950  0.31149257  1.0
  C  C63  1  0.21555123  0.80355634  0.34486906  1.0
  C  C64  1  0.82417215  0.39032254  0.17657832  1.0
  C  C65  1  0.95125845  0.35945490  0.16521750  1.0
  C  C66  1  0.01142968  0.35424219  0.09419359  1.0
  C  C67  1  0.94454989  0.37709219  0.03257282  1.0
  C  C68  1  0.81705002  0.40728798  0.04377155  1.0
  C  C69  1  0.75769879  0.41443375  0.11521007  1.0
  C  C70  1  0.76580326  0.39514454  0.25415511  1.0
  C  C71  1  0.01771706  0.36752609  0.95796475  1.0
  C  C72  1  0.61362463  0.47249412  0.33731821  1.0
  C  C73  1  0.57101560  0.54652605  0.34597278  1.0
  C  C74  1  0.50547563  0.56955620  0.41262760  1.0
  C  C75  1  0.48733010  0.51952160  0.47174485  1.0
  C  C76  1  0.53161420  0.44593310  0.46311067  1.0
  C  C77  1  0.59068096  0.42161578  0.39532838  1.0
  C  C78  1  0.45872386  0.64881626  0.42030411  1.0
  C  C79  1  0.52002310  0.39344298  0.52677765  1.0
  C  C80  1  0.97397939  0.34380365  0.82497789  1.0
  C  C81  1  0.10553044  0.33701272  0.79629265  1.0
  C  C82  1  0.13023825  0.31862743  0.72137814  1.0
  C  C83  1  0.02645183  0.30701923  0.67564600  1.0
  C  C84  1  0.89571307  0.31493887  0.70418699  1.0
  C  C85  1  0.86969226  0.33365650  0.77869277  1.0
  C  C86  1  0.26863604  0.31107533  0.68854394  1.0
  C  C87  1  0.78441332  0.30351529  0.65512133  1.0
  N  N88  1  0.32023019  0.95225314  0.73113171  1.0
  N  N89  1  0.06175147  0.85979659  0.10004463  1.0
  N  N90  1  0.67980635  0.45231127  0.26885847  1.0
  N  N91  1  0.93822722  0.35976353  0.89994719  1.0
  O  O92  1  0.20188246  0.84901357  0.69779515  1.0
  O  O93  1  0.86015326  0.86541128  0.04790804  1.0
  O  O94  1  0.50105385  0.19319687  0.63104598  1.0
  O  O95  1  0.61754337  0.16444973  0.52259064  1.0
  O  O96  1  0.52509009  0.91438530  0.41004032  1.0
  O  O97  1  0.44417992  0.82413809  0.48308856  1.0
  O  O98  1  0.63257143  0.82027555  0.27121813  1.0
  O  O99  1  0.71089115  0.79599879  0.38016649  1.0
  O  O100  1  0.18511492  0.77640668  0.40906980  1.0
  O  O101  1  0.33148801  0.82103207  0.31909579  1.0
  O  O102  1  0.88826393  0.18416224  0.46554464  1.0
  O  O103  1  0.84473567  0.34838818  0.45374894  1.0
  O  O104  1  0.69473904  0.22731557  0.37828199  1.0
  O  O105  1  0.79814227  0.34905145  0.30219850  1.0
  O  O106  1  0.13981760  0.36532252  0.95211152  1.0
  O  O107  1  0.49885278  0.69325512  0.36895023  1.0
  O  O108  1  0.38239202  0.66441263  0.47738080  1.0
  O  O109  1  0.47490285  0.41437045  0.58995647  1.0
  O  O110  1  0.55594271  0.32415781  0.51688575  1.0
  O  O111  1  0.36726687  0.32023110  0.72886416  1.0
  O  O112  1  0.28904279  0.29598472  0.61987712  1.0
  O  O113  1  0.81481528  0.27639720  0.59091700  1.0
  O  O114  1  0.66849600  0.32099479  0.68093392  1.0
  O  O115  1  0.11180761  0.68429358  0.53447203  1.0
  O  O116  1  0.15541465  0.84841298  0.54623850  1.0
  O  O117  1  0.30529274  0.72726697  0.62172747  1.0
