# generated using pymatgen
data_AlH11C16NO5
_symmetry_space_group_name_H-M   'P 1'
_cell_length_a   6.63552216
_cell_length_b   17.01249453
_cell_length_c   17.70672943
_cell_angle_alpha   90.35822889
_cell_angle_beta   100.15136596
_cell_angle_gamma   98.06139794
_symmetry_Int_Tables_number   1
_chemical_formula_structural   AlH11C16NO5
_chemical_formula_sum   'Al2 H22 C32 N2 O10'
_cell_volume   1947.13833030
_cell_formula_units_Z   2
loop_
 _symmetry_equiv_pos_site_id
 _symmetry_equiv_pos_as_xyz
  1  'x, y, z'
loop_
 _atom_site_type_symbol
 _atom_site_label
 _atom_site_symmetry_multiplicity
 _atom_site_fract_x
 _atom_site_fract_y
 _atom_site_fract_z
 _atom_site_occupancy
  Al  Al0  1  0.99987833  0.49997255  0.49999666  1.0
  Al  Al1  1  0.49984450  0.49995828  0.49994887  1.0
  H  H2  1  0.81135246  0.58234037  0.56602055  1.0
  H  H3  1  0.18831972  0.41720594  0.43447162  1.0
  H  H4  1  0.36200062  0.25986615  0.53216484  1.0
  H  H5  1  0.30804429  0.11058597  0.53217747  1.0
  H  H6  1  0.90966874  0.10902581  0.47390201  1.0
  H  H7  1  0.96382777  0.25873953  0.47433759  1.0
  H  H8  1  0.09021261  0.89089480  0.52616328  1.0
  H  H9  1  0.69188632  0.88933725  0.46792716  1.0
  H  H10  1  0.63784367  0.74004835  0.46787149  1.0
  H  H11  1  0.03595104  0.74118054  0.52563564  1.0
  H  H12  1  0.07468410  0.53021541  0.73223202  1.0
  H  H13  1  0.14675219  0.53848841  0.87570124  1.0
  H  H14  1  0.69677891  0.43090311  0.87395855  1.0
  H  H15  1  0.30377804  0.56941269  0.12599008  1.0
  H  H16  1  0.92542450  0.46988967  0.26777262  1.0
  H  H17  1  0.85380707  0.46183187  0.12430995  1.0
  H  H18  1  0.75628093  0.45296125  0.68889243  1.0
  H  H19  1  0.58172299  0.36463625  0.67950306  1.0
  H  H20  1  0.77756151  0.38268095  0.76308883  1.0
  H  H21  1  0.22230219  0.61729639  0.23681408  1.0
  H  H22  1  0.41795691  0.63539530  0.32045129  1.0
  H  H23  1  0.24366889  0.54698636  0.31099297  1.0
  C  C24  1  0.30411727  0.48609909  0.63786192  1.0
  C  C25  1  0.30742358  0.64381449  0.50007010  1.0
  C  C26  1  0.69574020  0.51388455  0.36210978  1.0
  C  C27  1  0.69233484  0.35610371  0.49988946  1.0
  C  C28  1  0.66452555  0.26766608  0.50191013  1.0
  C  C29  1  0.47989600  0.22602869  0.51887658  1.0
  C  C30  1  0.44950361  0.14375094  0.51881714  1.0
  C  C31  1  0.60481201  0.10171762  0.50135221  1.0
  C  C32  1  0.79136470  0.14314899  0.48635523  1.0
  C  C33  1  0.82078995  0.22568902  0.48647674  1.0
  C  C34  1  0.20850707  0.85677339  0.51370909  1.0
  C  C35  1  0.39508988  0.89820071  0.49872833  1.0
  C  C36  1  0.55037227  0.85616549  0.48124410  1.0
  C  C37  1  0.51995175  0.77388818  0.48115778  1.0
  C  C38  1  0.33529339  0.73225116  0.49808587  1.0
  C  C39  1  0.17903488  0.77423484  0.51353372  1.0
  C  C40  1  0.34800664  0.47948913  0.72289947  1.0
  C  C41  1  0.21150067  0.50922590  0.76431028  1.0
  C  C42  1  0.25098388  0.51383351  0.84384909  1.0
  C  C43  1  0.43083140  0.48736168  0.88415040  1.0
  C  C44  1  0.56170790  0.45370311  0.84228805  1.0
  C  C45  1  0.52470365  0.44920683  0.76211323  1.0
  C  C46  1  0.47957651  0.49553758  0.96508980  1.0
  C  C47  1  0.52129657  0.50500456  0.03484990  1.0
  C  C48  1  0.56982345  0.51302432  0.11581375  1.0
  C  C49  1  0.43877486  0.54658536  0.15766493  1.0
  C  C50  1  0.47544524  0.55091640  0.23784069  1.0
  C  C51  1  0.65203155  0.52058544  0.27706963  1.0
  C  C52  1  0.78866053  0.49089399  0.23568496  1.0
  C  C53  1  0.74951103  0.48646111  0.15614333  1.0
  C  C54  1  0.66820780  0.41049140  0.72152621  1.0
  C  C55  1  0.33169618  0.58952290  0.27839981  1.0
  N  N56  1  0.58911081  0.01807261  0.49819364  1.0
  N  N57  1  0.41081185  0.98184050  0.50190803  1.0
  O  O58  1  0.11515435  0.48074144  0.60508727  1.0
  O  O59  1  0.46160110  0.60984772  0.49154912  1.0
  O  O60  1  0.54018477  0.49938448  0.39572291  1.0
  O  O61  1  0.86682378  0.39140582  0.48881445  1.0
  O  O62  1  0.88466279  0.51921805  0.39492635  1.0
  O  O63  1  0.53805597  0.39005687  0.50831636  1.0
  O  O64  1  0.45960498  0.50056326  0.60420545  1.0
  O  O65  1  0.13298973  0.60850915  0.51120005  1.0
  O  O66  1  0.77876604  0.53321793  0.53570084  1.0
  O  O67  1  0.22090435  0.46666700  0.46426203  1.0
