# generated using pymatgen
data_AlH6C15O5F2
_symmetry_space_group_name_H-M   'P 1'
_cell_length_a   6.70803895
_cell_length_b   22.35330311
_cell_length_c   24.64852475
_cell_angle_alpha   96.13606094
_cell_angle_beta   89.96872160
_cell_angle_gamma   89.97740412
_symmetry_Int_Tables_number   1
_chemical_formula_structural   AlH6C15O5F2
_chemical_formula_sum   'Al4 H24 C60 O20 F8'
_cell_volume   3674.79247603
_cell_formula_units_Z   4
loop_
 _symmetry_equiv_pos_site_id
 _symmetry_equiv_pos_as_xyz
  1  'x, y, z'
loop_
 _atom_site_type_symbol
 _atom_site_label
 _atom_site_symmetry_multiplicity
 _atom_site_fract_x
 _atom_site_fract_y
 _atom_site_fract_z
 _atom_site_occupancy
  Al  Al0  1  0.20584955  0.74919351  0.75034033  1.0
  Al  Al1  1  0.79414981  0.25080649  0.24965971  1.0
  Al  Al2  1  0.70585377  0.75083849  0.74968477  1.0
  Al  Al3  1  0.29414409  0.24916131  0.25031365  1.0
  H  H4  1  0.35468862  0.12768246  0.36617312  1.0
  H  H5  1  0.64531669  0.87232454  0.63382937  1.0
  H  H6  1  0.85467038  0.37237812  0.13385614  1.0
  H  H7  1  0.14532597  0.62764530  0.86616388  1.0
  H  H8  1  0.71499399  0.14229847  0.36771987  1.0
  H  H9  1  0.28500836  0.85769076  0.63227245  1.0
  H  H10  1  0.21505249  0.35763740  0.13224482  1.0
  H  H11  1  0.78495136  0.64234584  0.86773852  1.0
  H  H12  1  0.69633986  0.07060388  0.43897405  1.0
  H  H13  1  0.30367144  0.92938674  0.56101867  1.0
  H  H14  1  0.19640659  0.42933628  0.06099509  1.0
  H  H15  1  0.80359875  0.57064620  0.93898948  1.0
  H  H16  1  0.22536201  0.07935221  0.97474020  1.0
  H  H17  1  0.77463287  0.92064765  0.02525862  1.0
  H  H18  1  0.73472520  0.42237510  0.52394091  1.0
  H  H19  1  0.26527117  0.57762450  0.47605955  1.0
  H  H20  1  0.86282654  0.04300994  0.92020054  1.0
  H  H21  1  0.13716536  0.95698942  0.07979788  1.0
  H  H22  1  0.37482668  0.45649916  0.58093185  1.0
  H  H23  1  0.62516970  0.54350044  0.41906861  1.0
  H  H24  1  0.45280644  0.82719570  0.77010157  1.0
  H  H25  1  0.54719441  0.17280416  0.22989725  1.0
  H  H26  1  0.95308159  0.67283209  0.72991702  1.0
  H  H27  1  0.04691926  0.32716851  0.27008058  1.0
  C  C28  1  0.45690770  0.67387752  0.67246683  1.0
  C  C29  1  0.54309017  0.32612198  0.32753281  1.0
  C  C30  1  0.95642661  0.82615375  0.82756621  1.0
  C  C31  1  0.04356828  0.17384611  0.17243261  1.0
  C  C32  1  0.45793635  0.68094706  0.81931831  1.0
  C  C33  1  0.54205854  0.31905438  0.18068255  1.0
  C  C34  1  0.95798891  0.81906790  0.68069576  1.0
  C  C35  1  0.04201492  0.18093101  0.31930266  1.0
  C  C36  1  0.19731930  0.07570524  0.42125734  1.0
  C  C37  1  0.80269049  0.92429749  0.57874311  1.0
  C  C38  1  0.69733073  0.42433328  0.07876086  1.0
  C  C39  1  0.30266861  0.57568061  0.92125060  1.0
  C  C40  1  0.21071347  0.11537219  0.38206001  1.0
  C  C41  1  0.78929334  0.88463049  0.61794003  1.0
  C  C42  1  0.71073128  0.38466596  0.11795464  1.0
  C  C43  1  0.28926805  0.61534892  0.88205763  1.0
  C  C44  1  0.03447669  0.13925055  0.36266736  1.0
  C  C45  1  0.96552416  0.86074692  0.63733025  1.0
  C  C46  1  0.53450590  0.36074858  0.13732730  1.0
  C  C47  1  0.46549494  0.63925480  0.86267478  1.0
  C  C48  1  0.84959783  0.12307053  0.38342418  1.0
  C  C49  1  0.15040452  0.87692298  0.61657016  1.0
  C  C50  1  0.34966144  0.37689450  0.11655630  1.0
  C  C51  1  0.65034538  0.62309746  0.88343642  1.0
  C  C52  1  0.83933247  0.08342057  0.42291097  1.0
  C  C53  1  0.16067584  0.91657337  0.57708337  1.0
  C  C54  1  0.33939174  0.41654764  0.07707006  1.0
  C  C55  1  0.66061359  0.58344522  0.92292265  1.0
  C  C56  1  0.01440337  0.05833087  0.44294280  1.0
  C  C57  1  0.98560643  0.94166844  0.55705521  1.0
  C  C58  1  0.51444528  0.44167495  0.05705981  1.0
  C  C59  1  0.48555706  0.55832941  0.94294309  1.0
  C  C60  1  0.00604798  0.01758687  0.48276493  1.0
  C  C61  1  0.99396479  0.98241348  0.51723430  1.0
  C  C62  1  0.50606850  0.48241848  0.01723587  1.0
  C  C63  1  0.49393682  0.51758634  0.98276703  1.0
  C  C64  1  0.92488652  0.02441195  0.95574989  1.0
  C  C65  1  0.07510688  0.97558790  0.04424893  1.0
  C  C66  1  0.43166169  0.47534214  0.54488126  1.0
  C  C67  1  0.56833468  0.52465696  0.45511879  1.0
  C  C68  1  0.12449085  0.04414992  0.98547718  1.0
  C  C69  1  0.87550404  0.95584949  0.01452165  1.0
  C  C70  1  0.62971049  0.45677787  0.51377559  1.0
  C  C71  1  0.37028589  0.54322118  0.48622405  1.0
  C  C72  1  0.04106820  0.12858651  0.12626509  1.0
  C  C73  1  0.95892370  0.87141374  0.87373332  1.0
  C  C74  1  0.54030255  0.37137043  0.37370897  1.0
  C  C75  1  0.45969382  0.62862868  0.62629108  1.0
  C  C76  1  0.82051596  0.02316210  0.01201588  1.0
  C  C77  1  0.17947743  0.97683726  0.98798254  1.0
  C  C78  1  0.32138612  0.47562341  0.48938140  1.0
  C  C79  1  0.67860876  0.52437535  0.51061946  1.0
  C  C80  1  0.01853919  0.04458206  0.04325158  1.0
  C  C81  1  0.98145272  0.95541774  0.95674683  1.0
  C  C82  1  0.51794958  0.45532810  0.45677827  1.0
  C  C83  1  0.48204680  0.54467140  0.54322137  1.0
  C  C84  1  0.03403279  0.08971492  0.08772817  1.0
  C  C85  1  0.96596210  0.91028484  0.91226984  1.0
  C  C86  1  0.53309833  0.41020203  0.41227780  1.0
  C  C87  1  0.46689805  0.58979752  0.58772225  1.0
  O  O88  1  0.62541799  0.69768528  0.80183670  1.0
  O  O89  1  0.37457839  0.30231313  0.19816131  1.0
  O  O90  1  0.12541715  0.80234351  0.69818276  1.0
  O  O91  1  0.87458370  0.19765535  0.30181525  1.0
  O  O92  1  0.28676180  0.69066576  0.69135830  1.0
  O  O93  1  0.71323905  0.30933265  0.30864338  1.0
  O  O94  1  0.78637619  0.80936461  0.80866587  1.0
  O  O95  1  0.21361869  0.19063350  0.19133337  1.0
  O  O96  1  0.28657725  0.69558042  0.80263572  1.0
  O  O97  1  0.71341912  0.30442261  0.19736719  1.0
  O  O98  1  0.78657716  0.80442670  0.69738114  1.0
  O  O99  1  0.21342369  0.19557365  0.30261809  1.0
  O  O100  1  0.12582275  0.80746382  0.80953776  1.0
  O  O101  1  0.87417065  0.19253728  0.19046025  1.0
  O  O102  1  0.62621690  0.69255913  0.69050079  1.0
  O  O103  1  0.37378544  0.30744201  0.30949763  1.0
  O  O104  1  0.45484638  0.78640805  0.75223822  1.0
  O  O105  1  0.54515148  0.21359180  0.24776061  1.0
  O  O106  1  0.95494890  0.71361739  0.74778535  1.0
  O  O107  1  0.04505046  0.28638246  0.25221348  1.0
  F  F108  1  0.36771748  0.05176485  0.43998292  1.0
  F  F109  1  0.63229678  0.94824418  0.56002160  1.0
  F  F110  1  0.86771022  0.44831098  0.06005711  1.0
  F  F111  1  0.13228761  0.55171412  0.93996576  1.0
  F  F112  1  0.36235920  0.95232237  0.97513938  1.0
  F  F113  1  0.63763569  0.04767708  0.02485986  1.0
  F  F114  1  0.86083447  0.55008672  0.52190974  1.0
  F  F115  1  0.13916190  0.44991283  0.47809031  1.0
