# generated using pymatgen
data_ZnH22C32(N2O3)2
_symmetry_space_group_name_H-M   'P 1'
_cell_length_a   16.54103008
_cell_length_b   16.53853112
_cell_length_c   25.86074255
_cell_angle_alpha   89.99991343
_cell_angle_beta   89.99999063
_cell_angle_gamma   60.00494083
_symmetry_Int_Tables_number   1
_chemical_formula_structural   ZnH22C32(N2O3)2
_chemical_formula_sum   'Zn6 H132 C192 N24 O36'
_cell_volume   6127.06840408
_cell_formula_units_Z   6
loop_
 _symmetry_equiv_pos_site_id
 _symmetry_equiv_pos_as_xyz
  1  'x, y, z'
loop_
 _atom_site_type_symbol
 _atom_site_label
 _atom_site_symmetry_multiplicity
 _atom_site_fract_x
 _atom_site_fract_y
 _atom_site_fract_z
 _atom_site_occupancy
  Zn  Zn0  1  0.71546061  0.56904854  0.83335110  1.0
  Zn  Zn1  1  0.56906340  0.71547029  0.50000021  1.0
  Zn  Zn2  1  0.71546339  0.71548893  0.16664821  1.0
  Zn  Zn3  1  0.28453960  0.43095233  0.83335071  1.0
  Zn  Zn4  1  0.43093614  0.28453088  0.49999994  1.0
  Zn  Zn5  1  0.28453836  0.28451042  0.16664834  1.0
  H  H6  1  0.65905286  0.67047125  0.99999824  1.0
  H  H7  1  0.67043105  0.67044146  0.66666667  1.0
  H  H8  1  0.67042857  0.65912991  0.33333333  1.0
  H  H9  1  0.34094705  0.32952773  0.99999910  1.0
  H  H10  1  0.32956775  0.32955990  0.66666667  1.0
  H  H11  1  0.32957017  0.34087174  0.33333333  1.0
  H  H12  1  0.39959445  0.77850608  0.91772215  1.0
  H  H13  1  0.77844970  0.82195787  0.58431366  1.0
  H  H14  1  0.82192137  0.39959720  0.25112505  1.0
  H  H15  1  0.60040526  0.22149454  0.91772192  1.0
  H  H16  1  0.22154874  0.17804305  0.58431467  1.0
  H  H17  1  0.17807813  0.60040540  0.25112257  1.0
  H  H18  1  0.17807473  0.22152022  0.74887722  1.0
  H  H19  1  0.60040525  0.17809919  0.08227725  1.0
  H  H20  1  0.22154668  0.60040601  0.41568667  1.0
  H  H21  1  0.82192661  0.77847602  0.74887662  1.0
  H  H22  1  0.39959684  0.82189832  0.08227744  1.0
  H  H23  1  0.77844905  0.39959679  0.41568839  1.0
  H  H24  1  0.31102296  0.84449054  0.99999972  1.0
  H  H25  1  0.84447696  0.84448233  0.66662837  1.0
  H  H26  1  0.84446874  0.31104323  0.33333333  1.0
  H  H27  1  0.68897720  0.15550914  0.99999955  1.0
  H  H28  1  0.15552288  0.15551695  0.66662903  1.0
  H  H29  1  0.15552653  0.68896052  0.33333333  1.0
  H  H30  1  0.17816725  0.28874372  0.86215777  1.0
  H  H31  1  0.28870284  0.53307091  0.52890851  1.0
  H  H32  1  0.53305237  0.17824378  0.19553038  1.0
  H  H33  1  0.82183249  0.71125567  0.86215840  1.0
  H  H34  1  0.71129779  0.46692807  0.52890939  1.0
  H  H35  1  0.46694931  0.82175689  0.19552940  1.0
  H  H36  1  0.46694518  0.71129701  0.80446750  1.0
  H  H37  1  0.82183365  0.46691040  0.13784212  1.0
  H  H38  1  0.71129916  0.82177397  0.47108915  1.0
  H  H39  1  0.53305561  0.28870394  0.80446760  1.0
  H  H40  1  0.17816771  0.53308974  0.13784047  1.0
  H  H41  1  0.28870140  0.17822518  0.47108861  1.0
  H  H42  1  0.82194890  0.50118330  0.92933175  1.0
  H  H43  1  0.50120677  0.67686331  0.59604078  1.0
  H  H44  1  0.67686378  0.82195864  0.26269568  1.0
  H  H45  1  0.17805117  0.49881660  0.92933207  1.0
  H  H46  1  0.49879299  0.32313617  0.59604124  1.0
  H  H47  1  0.32313376  0.17804182  0.26269397  1.0
  H  H48  1  0.32313107  0.49882862  0.73730355  1.0
  H  H49  1  0.17805104  0.32313415  0.07066578  1.0
  H  H50  1  0.49879509  0.17806968  0.40395828  1.0
  H  H51  1  0.67687058  0.50117184  0.73730440  1.0
  H  H52  1  0.82195024  0.67686619  0.07066568  1.0
  H  H53  1  0.50120469  0.82193107  0.40395845  1.0
  H  H54  1  0.98330381  0.39749262  0.95858694  1.0
  H  H55  1  0.39742569  0.61929911  0.62530719  1.0
  H  H56  1  0.61920212  0.98334323  0.29195771  1.0
  H  H57  1  0.01669544  0.60250648  0.95858757  1.0
  H  H58  1  0.60257341  0.38070167  0.62530797  1.0
  H  H59  1  0.38079701  0.01665645  0.29195655  1.0
  H  H60  1  0.38079062  0.60255379  0.70804099  1.0
  H  H61  1  0.01669274  0.38080095  0.04141177  1.0
  H  H62  1  0.60257559  0.01672462  0.37469082  1.0
  H  H63  1  0.61920995  0.39744885  0.70804195  1.0
  H  H64  1  0.98330764  0.61919878  0.04141093  1.0
  H  H65  1  0.39742450  0.98327552  0.37469085  1.0
  H  H66  1  0.06792156  0.35465851  0.79811202  1.0
  H  H67  1  0.35468566  0.57739722  0.46481713  1.0
  H  H68  1  0.57739142  0.06794225  0.13145494  1.0
  H  H69  1  0.93207679  0.64534248  0.79811270  1.0
  H  H70  1  0.64531680  0.42260056  0.46481884  1.0
  H  H71  1  0.42260846  0.93205722  0.13145346  1.0
  H  H72  1  0.42260690  0.64533602  0.86854342  1.0
  H  H73  1  0.93207974  0.42257591  0.20188747  1.0
  H  H74  1  0.64531688  0.93208171  0.53518123  1.0
  H  H75  1  0.57739475  0.35466195  0.86854461  1.0
  H  H76  1  0.06792205  0.57742334  0.20188657  1.0
  H  H77  1  0.35468306  0.06791865  0.53518079  1.0
  H  H78  1  0.90002207  0.45966450  0.77495762  1.0
  H  H79  1  0.45967771  0.64028619  0.44167903  1.0
  H  H80  1  0.64032215  0.90002313  0.10832884  1.0
  H  H81  1  0.09997591  0.54033724  0.77495791  1.0
  H  H82  1  0.54032488  0.35971376  0.44167945  1.0
  H  H83  1  0.35967832  0.09997639  0.10832837  1.0
  H  H84  1  0.35967446  0.54034912  0.89166993  1.0
  H  H85  1  0.09998049  0.35968114  0.22504030  1.0
  H  H86  1  0.54032455  0.09996240  0.55831970  1.0
  H  H87  1  0.64032626  0.45964949  0.89167006  1.0
  H  H88  1  0.90002254  0.64031804  0.22504022  1.0
  H  H89  1  0.45967542  0.90003789  0.55831902  1.0
  H  H90  1  0.25079483  0.15678977  0.01947746  1.0
  H  H91  1  0.15674729  0.59249214  0.68625277  1.0
  H  H92  1  0.59248829  0.25078080  0.35286226  1.0
  H  H93  1  0.74920372  0.84321002  0.01947759  1.0
  H  H94  1  0.84325500  0.40750707  0.68625331  1.0
  H  H95  1  0.40751489  0.74921801  0.35286174  1.0
  H  H96  1  0.40751548  0.84326493  0.64713630  1.0
  H  H97  1  0.74920518  0.40758449  0.98052290  1.0
  H  H98  1  0.84325357  0.74923658  0.31374567  1.0
  H  H99  1  0.59248520  0.15673510  0.64713807  1.0
  H  H100  1  0.25079702  0.59241595  0.98052042  1.0
  H  H101  1  0.15674559  0.25076304  0.31374507  1.0
  H  H102  1  0.41396160  0.02054000  0.02611847  1.0
  H  H103  1  0.02041671  0.56556332  0.69286126  1.0
  H  H104  1  0.56554969  0.41402637  0.35946137  1.0
  H  H105  1  0.58603644  0.97945838  0.02611848  1.0
  H  H106  1  0.97958559  0.43443587  0.69286099  1.0
  H  H107  1  0.43445290  0.58597241  0.35946101  1.0
  H  H108  1  0.43445239  0.97957145  0.64053588  1.0
  H  H109  1  0.58603708  0.43450566  0.97388078  1.0
  H  H110  1  0.97958518  0.58597612  0.30713804  1.0
  H  H111  1  0.56554794  0.02042929  0.64053663  1.0
  H  H112  1  0.41396407  0.56549689  0.97388102  1.0
  H  H113  1  0.02041346  0.41402212  0.30713769  1.0
  H  H114  1  0.47162078  0.08250384  0.87377237  1.0
  H  H115  1  0.08241113  0.44597708  0.54050026  1.0
  H  H116  1  0.44596739  0.47156768  0.20710764  1.0
  H  H117  1  0.52837932  0.91749481  0.87377206  1.0
  H  H118  1  0.91758812  0.55402466  0.54050027  1.0
  H  H119  1  0.55403492  0.52843295  0.20710809  1.0
  H  H120  1  0.55403357  0.91753381  0.79288961  1.0
  H  H121  1  0.52837719  0.55412872  0.12622719  1.0
  H  H122  1  0.91758455  0.52838870  0.45949951  1.0
  H  H123  1  0.44596730  0.08246578  0.79289031  1.0
  H  H124  1  0.47161948  0.44587355  0.12622753  1.0
  H  H125  1  0.08241125  0.47160909  0.45949948  1.0
  H  H126  1  0.31121150  0.21351957  0.86593302  1.0
  H  H127  1  0.21346160  0.47531343  0.53270619  1.0
  H  H128  1  0.47528967  0.31114720  0.19932488  1.0
  H  H129  1  0.68878971  0.78648050  0.86593282  1.0
  H  H130  1  0.78653860  0.52468763  0.53270701  1.0
  H  H131  1  0.52471238  0.68885275  0.19932556  1.0
  H  H132  1  0.52471393  0.78643485  0.80067484  1.0
  H  H133  1  0.68878848  0.52473219  0.13406610  1.0
  H  H134  1  0.78653734  0.68877594  0.46729195  1.0
  H  H135  1  0.47528859  0.21356263  0.80067502  1.0
  H  H136  1  0.31120951  0.47526865  0.13406334  1.0
  H  H137  1  0.21346287  0.31122392  0.46729129  1.0
  C  C138  1  0.58237873  0.67861576  0.90358957  1.0
  C  C139  1  0.67860710  0.73897589  0.57020467  1.0
  C  C140  1  0.73899602  0.58247794  0.23694827  1.0
  C  C141  1  0.41762096  0.32138490  0.90358888  1.0
  C  C142  1  0.32139228  0.26102436  0.57020521  1.0
  C  C143  1  0.26100416  0.41752330  0.23694750  1.0
  C  C144  1  0.26100163  0.32147625  0.76305154  1.0
  C  C145  1  0.41762089  0.26099421  0.09640868  1.0
  C  C146  1  0.32139402  0.41758003  0.42979424  1.0
  C  C147  1  0.73899980  0.67852344  0.76305067  1.0
  C  C148  1  0.58238017  0.73900535  0.09640815  1.0
  C  C149  1  0.67860579  0.58242064  0.42979579  1.0
  C  C150  1  0.53407733  0.71917977  0.95393574  1.0
  C  C151  1  0.71911828  0.74676537  0.62055821  1.0
  C  C152  1  0.74674632  0.53414866  0.28731266  1.0
  C  C153  1  0.46592278  0.28082004  0.95393625  1.0
  C  C154  1  0.28088107  0.25323613  0.62055992  1.0
  C  C155  1  0.25325313  0.46585523  0.28731069  1.0
  C  C156  1  0.25324988  0.28089614  0.71268835  1.0
  C  C157  1  0.46592290  0.25325412  0.04606133  1.0
  C  C158  1  0.28088497  0.46587950  0.37943952  1.0
  C  C159  1  0.74675107  0.71910090  0.71268589  1.0
  C  C160  1  0.53407765  0.74674769  0.04606118  1.0
  C  C161  1  0.71911115  0.53412132  0.37944072  1.0
  C  C162  1  0.58307380  0.70846393  0.99999823  1.0
  C  C163  1  0.70841942  0.70844277  0.66662071  1.0
  C  C164  1  0.70841646  0.58314151  0.33333333  1.0
  C  C165  1  0.41692662  0.29153644  0.99999873  1.0
  C  C166  1  0.29157947  0.29155720  0.66662200  1.0
  C  C167  1  0.29158002  0.41686224  0.33333333  1.0
  C  C168  1  0.43612861  0.76931873  0.95419210  1.0
  C  C169  1  0.76925428  0.79460257  0.62079058  1.0
  C  C170  1  0.79455631  0.43618157  0.28758880  1.0
  C  C171  1  0.56387150  0.23068108  0.95419264  1.0
  C  C172  1  0.23074811  0.20539405  0.62079273  1.0
  C  C173  1  0.20544072  0.56382231  0.28758751  1.0
  C  C174  1  0.20543565  0.23074259  0.71241345  1.0
  C  C175  1  0.56387169  0.20544292  0.04580574  1.0
  C  C176  1  0.23074940  0.56385474  0.37920939  1.0
  C  C177  1  0.79456651  0.76925445  0.71241171  1.0
  C  C178  1  0.43612905  0.79455609  0.04580556  1.0
  C  C179  1  0.76924628  0.43614818  0.37921069  1.0
  C  C180  1  0.38715006  0.80642666  0.99999897  1.0
  C  C181  1  0.80639191  0.80642166  0.66660597  1.0
  C  C182  1  0.80638158  0.38719151  0.33333333  1.0
  C  C183  1  0.61284915  0.19357372  0.99999915  1.0
  C  C184  1  0.19361019  0.19357552  0.66660736  1.0
  C  C185  1  0.19361309  0.61281224  0.33333333  1.0
  C  C186  1  0.87806288  0.46703847  0.90119916  1.0
  C  C187  1  0.46702590  0.65492146  0.56791979  1.0
  C  C188  1  0.65488713  0.87809012  0.23456421  1.0
  C  C189  1  0.12193672  0.53296360  0.90119945  1.0
  C  C190  1  0.53297443  0.34507810  0.56792023  1.0
  C  C191  1  0.34511133  0.12190973  0.23456333  1.0
  C  C192  1  0.34510920  0.53298266  0.76543420  1.0
  C  C193  1  0.12193681  0.34510187  0.09879954  1.0
  C  C194  1  0.53297562  0.12194851  0.43207930  1.0
  C  C195  1  0.65489188  0.46701772  0.76543470  1.0
  C  C196  1  0.87806424  0.65489769  0.09879906  1.0
  C  C197  1  0.46702368  0.87805076  0.43207981  1.0
  C  C198  1  0.96890028  0.40965927  0.91768556  1.0
  C  C199  1  0.40962032  0.62149620  0.58441238  1.0
  C  C200  1  0.62141963  0.96893570  0.25105750  1.0
  C  C201  1  0.03110047  0.59033927  0.91768620  1.0
  C  C202  1  0.59038038  0.37850261  0.58441278  1.0
  C  C203  1  0.37857799  0.03106340  0.25105633  1.0
  C  C204  1  0.37857426  0.59036176  0.74894122  1.0
  C  C205  1  0.03109899  0.37856324  0.08231276  1.0
  C  C206  1  0.59038139  0.03111579  0.41558639  1.0
  C  C207  1  0.62142645  0.40963937  0.74894139  1.0
  C  C208  1  0.96890205  0.62143636  0.08231231  1.0
  C  C209  1  0.40961971  0.96888352  0.41558643  1.0
  C  C210  1  0.04031391  0.36650946  0.88072758  1.0
  C  C211  1  0.36648247  0.59317593  0.54746556  1.0
  C  C212  1  0.59312095  0.04036876  0.21409063  1.0
  C  C213  1  0.95968524  0.63348988  0.88072789  1.0
  C  C214  1  0.63352000  0.40682300  0.54746690  1.0
  C  C215  1  0.40687809  0.95963115  0.21408952  1.0
  C  C216  1  0.40687491  0.63349260  0.78590968  1.0
  C  C217  1  0.95968511  0.40682348  0.11927113  1.0
  C  C218  1  0.63352117  0.95965770  0.45253432  1.0
  C  C219  1  0.59312473  0.36650702  0.78590932  1.0
  C  C220  1  0.04031667  0.59317462  0.11927060  1.0
  C  C221  1  0.36647927  0.04034291  0.45253352  1.0
  C  C222  1  0.01474930  0.38557101  0.82811733  1.0
  C  C223  1  0.38556977  0.59964524  0.49485029  1.0
  C  C224  1  0.59962538  0.01480183  0.16147614  1.0
  C  C225  1  0.98524909  0.61442988  0.82811804  1.0
  C  C226  1  0.61443238  0.40035314  0.49485086  1.0
  C  C227  1  0.40037515  0.98519754  0.16147501  1.0
  C  C228  1  0.40037169  0.61442924  0.83852303  1.0
  C  C229  1  0.98525209  0.40031816  0.17188177  1.0
  C  C230  1  0.61443158  0.98521149  0.50514881  1.0
  C  C231  1  0.59962923  0.38557022  0.83852303  1.0
  C  C232  1  0.01475061  0.59968049  0.17188046  1.0
  C  C233  1  0.38556927  0.01478826  0.50514880  1.0
  C  C234  1  0.92198793  0.44378426  0.81522754  1.0
  C  C235  1  0.44380709  0.63418726  0.48196017  1.0
  C  C236  1  0.63420142  0.92201818  0.14860571  1.0
  C  C237  1  0.07801105  0.55621667  0.81522821  1.0
  C  C238  1  0.55619599  0.36581047  0.48196136  1.0
  C  C239  1  0.36580005  0.07798053  0.14860488  1.0
  C  C240  1  0.36579593  0.55622170  0.85139382  1.0
  C  C241  1  0.07801344  0.36577209  0.18477077  1.0
  C  C242  1  0.55619220  0.07799346  0.51803819  1.0
  C  C243  1  0.63420310  0.44377911  0.85139357  1.0
  C  C244  1  0.92198954  0.63422721  0.18477030  1.0
  C  C245  1  0.44380868  0.92200624  0.51803865  1.0
  C  C246  1  0.16880045  0.26702552  0.94080246  1.0
  C  C247  1  0.26702103  0.56415337  0.60756942  1.0
  C  C248  1  0.56418813  0.16880309  0.27417121  1.0
  C  C249  1  0.83120034  0.73297294  0.94080269  1.0
  C  C250  1  0.73297900  0.43584678  0.60756995  1.0
  C  C251  1  0.43581098  0.83119665  0.27417061  1.0
  C  C252  1  0.43581334  0.73299091  0.72582744  1.0
  C  C253  1  0.83120099  0.43582601  0.05919706  1.0
  C  C254  1  0.73298013  0.83117318  0.39242976  1.0
  C  C255  1  0.56418951  0.26700958  0.72582679  1.0
  C  C256  1  0.16879890  0.56417227  0.05919577  1.0
  C  C257  1  0.26702024  0.16882761  0.39243040  1.0
  C  C258  1  0.26919486  0.19252841  0.94232295  1.0
  C  C259  1  0.19248182  0.53831014  0.60911232  1.0
  C  C260  1  0.53831571  0.26918392  0.27572255  1.0
  C  C261  1  0.73080437  0.80747075  0.94232272  1.0
  C  C262  1  0.80752012  0.46168860  0.60911242  1.0
  C  C263  1  0.46168461  0.73081582  0.27572204  1.0
  C  C264  1  0.46168712  0.80749578  0.72427641  1.0
  C  C265  1  0.73080457  0.46172433  0.05767737  1.0
  C  C266  1  0.80752072  0.73079094  0.39088770  1.0
  C  C267  1  0.53831305  0.19250402  0.72427660  1.0
  C  C268  1  0.26919497  0.53827466  0.05767455  1.0
  C  C269  1  0.19247914  0.26920845  0.39088592  1.0
  C  C270  1  0.30050184  0.13919967  0.98788044  1.0
  C  C271  1  0.13913935  0.56036399  0.65466669  1.0
  C  C272  1  0.56039844  0.30049003  0.32126067  1.0
  C  C273  1  0.69949744  0.86079935  0.98788056  1.0
  C  C274  1  0.86086230  0.43963532  0.65466681  1.0
  C  C275  1  0.43960409  0.69950888  0.32126058  1.0
  C  C276  1  0.43960733  0.86088409  0.67873670  1.0
  C  C277  1  0.69949915  0.43970110  0.01211953  1.0
  C  C278  1  0.86086124  0.69950076  0.34533218  1.0
  C  C279  1  0.56039244  0.13911654  0.67873695  1.0
  C  C280  1  0.30050154  0.56029802  0.01211746  1.0
  C  C281  1  0.13913805  0.30049737  0.34533192  1.0
  C  C282  1  0.39116611  0.06438531  0.99159769  1.0
  C  C283  1  0.06429656  0.54454601  0.65836110  1.0
  C  C284  1  0.54458817  0.39114470  0.32494497  1.0
  C  C285  1  0.60883353  0.93561300  0.99159735  1.0
  C  C286  1  0.93570604  0.45545259  0.65836120  1.0
  C  C287  1  0.45541584  0.60885489  0.32494536  1.0
  C  C288  1  0.45541900  0.93572728  0.67505270  1.0
  C  C289  1  0.60883585  0.45555067  0.00840153  1.0
  C  C290  1  0.93570190  0.60884083  0.34163820  1.0
  C  C291  1  0.54458197  0.06427337  0.67505302  1.0
  C  C292  1  0.39116414  0.54444986  0.00840102  1.0
  C  C293  1  0.06429366  0.39115871  0.34163787  1.0
  C  C294  1  0.45286988  0.04122077  0.94971066  1.0
  C  C295  1  0.04116145  0.50599469  0.61646519  1.0
  C  C296  1  0.50603475  0.45282164  0.28304475  1.0
  C  C297  1  0.54712815  0.95877836  0.94971030  1.0
  C  C298  1  0.95884005  0.49400613  0.61646524  1.0
  C  C299  1  0.49396956  0.54717737  0.28304442  1.0
  C  C300  1  0.49397059  0.95885228  0.71695326  1.0
  C  C301  1  0.54712957  0.49409280  0.05028817  1.0
  C  C302  1  0.95883657  0.54715326  0.38353571  1.0
  C  C303  1  0.50602932  0.04114684  0.71695284  1.0
  C  C304  1  0.45287169  0.50590760  0.05028769  1.0
  C  C305  1  0.04115949  0.45284405  0.38353493  1.0
  C  C306  1  0.42233361  0.09740727  0.90524594  1.0
  C  C307  1  0.09732634  0.48035942  0.57199161  1.0
  C  C308  1  0.48040533  0.42225874  0.23857892  1.0
  C  C309  1  0.57766592  0.90259130  0.90524525  1.0
  C  C310  1  0.90267355  0.51964223  0.57199203  1.0
  C  C311  1  0.51959676  0.57774110  0.23857855  1.0
  C  C312  1  0.51959769  0.90266249  0.76141876  1.0
  C  C313  1  0.57766356  0.51974514  0.09475247  1.0
  C  C314  1  0.90267023  0.57768424  0.42800774  1.0
  C  C315  1  0.48040218  0.09733790  0.76141866  1.0
  C  C316  1  0.42233368  0.48025722  0.09475240  1.0
  C  C317  1  0.09732639  0.42231435  0.42800776  1.0
  C  C318  1  0.33175820  0.17180204  0.90118144  1.0
  C  C319  1  0.17174019  0.49651178  0.56795227  1.0
  C  C320  1  0.49652062  0.33168929  0.23455665  1.0
  C  C321  1  0.66824193  0.82819654  0.90118121  1.0
  C  C322  1  0.82825979  0.50348848  0.56795272  1.0
  C  C323  1  0.50347990  0.66831127  0.23455697  1.0
  C  C324  1  0.50348193  0.82820747  0.76544227  1.0
  C  C325  1  0.66824101  0.50356182  0.09881809  1.0
  C  C326  1  0.82825866  0.66825134  0.43204664  1.0
  C  C327  1  0.49651924  0.17179151  0.76544249  1.0
  C  C328  1  0.33175996  0.49643913  0.09881647  1.0
  C  C329  1  0.17173969  0.33174863  0.43204674  1.0
  N  N330  1  0.85354531  0.48446636  0.85091676  1.0
  N  N331  1  0.48450514  0.66195055  0.51763933  1.0
  N  N332  1  0.66198140  0.85356844  0.18428763  1.0
  N  N333  1  0.14645458  0.51553515  0.85091629  1.0
  N  N334  1  0.51549573  0.33804916  0.51764016  1.0
  N  N335  1  0.33801795  0.14643086  0.18428557  1.0
  N  N336  1  0.33801631  0.51555230  0.81571312  1.0
  N  N337  1  0.14645483  0.33801136  0.14908116  1.0
  N  N338  1  0.51549842  0.14645378  0.48235859  1.0
  N  N339  1  0.66198363  0.48444792  0.81571206  1.0
  N  N340  1  0.85354749  0.66198806  0.14908068  1.0
  N  N341  1  0.48450111  0.85354743  0.48235912  1.0
  N  N342  1  0.13313121  0.30606959  0.89284056  1.0
  N  N343  1  0.30606007  0.56076904  0.55959439  1.0
  N  N344  1  0.56071726  0.13319800  0.22621050  1.0
  N  N345  1  0.86686761  0.69393041  0.89284082  1.0
  N  N346  1  0.69394180  0.43922985  0.55959491  1.0
  N  N347  1  0.43928179  0.86680187  0.22620986  1.0
  N  N348  1  0.43927749  0.69391847  0.77378896  1.0
  N  N349  1  0.86686800  0.43920246  0.10715855  1.0
  N  N350  1  0.69394271  0.86682916  0.44040439  1.0
  N  N351  1  0.56072075  0.30608397  0.77378827  1.0
  N  N352  1  0.13313367  0.56079707  0.10715727  1.0
  N  N353  1  0.30605651  0.13317148  0.44040428  1.0
  O  O354  1  0.67144556  0.62189408  0.90422376  1.0
  O  O355  1  0.62188357  0.70663153  0.57084543  1.0
  O  O356  1  0.70667300  0.67154817  0.23757466  1.0
  O  O357  1  0.32855319  0.37810727  0.90422379  1.0
  O  O358  1  0.37811460  0.29336873  0.57084439  1.0
  O  O359  1  0.29332718  0.32845307  0.23757475  1.0
  O  O360  1  0.29332661  0.37822265  0.76242431  1.0
  O  O361  1  0.32855315  0.29334073  0.09577528  1.0
  O  O362  1  0.37811202  0.32851365  0.42915548  1.0
  O  O363  1  0.70667090  0.62178123  0.76242465  1.0
  O  O364  1  0.67144730  0.70665884  0.09577516  1.0
  O  O365  1  0.62188890  0.67148843  0.42915656  1.0
  O  O366  1  0.53477181  0.69977453  0.86261123  1.0
  O  O367  1  0.69988206  0.76532771  0.52922401  1.0
  O  O368  1  0.76532172  0.53486141  0.19596068  1.0
  O  O369  1  0.46522818  0.30022556  0.86261172  1.0
  O  O370  1  0.30011459  0.23467198  0.52922458  1.0
  O  O371  1  0.23467885  0.46513786  0.19595832  1.0
  O  O372  1  0.23468151  0.30018439  0.80404148  1.0
  O  O373  1  0.46522719  0.23455085  0.13738663  1.0
  O  O374  1  0.30011658  0.46520824  0.47077603  1.0
  O  O375  1  0.76531676  0.69981796  0.80403981  1.0
  O  O376  1  0.53477270  0.76544860  0.13738570  1.0
  O  O377  1  0.69988293  0.53479301  0.47077762  1.0
  O  O378  1  0.12034261  0.28868190  0.98032452  1.0
  O  O379  1  0.28870949  0.59093449  0.64708297  1.0
  O  O380  1  0.59104687  0.12030048  0.31367396  1.0
  O  O381  1  0.87965778  0.71131854  0.98032438  1.0
  O  O382  1  0.71129119  0.40906554  0.64708391  1.0
  O  O383  1  0.40895194  0.87969983  0.31367254  1.0
  O  O384  1  0.40895453  0.71134723  0.68632550  1.0
  O  O385  1  0.87965767  0.40902398  0.01967577  1.0
  O  O386  1  0.71129667  0.87964139  0.35291657  1.0
  O  O387  1  0.59104862  0.28865268  0.68632559  1.0
  O  O388  1  0.12034138  0.59097721  0.01967485  1.0
  O  O389  1  0.28870435  0.12035812  0.35291647  1.0
