# generated using pymatgen
data_CuH2C6N7
_symmetry_space_group_name_H-M   'P 1'
_cell_length_a   31.91323647
_cell_length_b   32.59426967
_cell_length_c   32.62024404
_cell_angle_alpha   90.05052837
_cell_angle_beta   89.99366024
_cell_angle_gamma   89.77988038
_symmetry_Int_Tables_number   1
_chemical_formula_structural   CuH2C6N7
_chemical_formula_sum   'Cu12 H24 C72 N84'
_cell_volume   33930.94332019
_cell_formula_units_Z   12
loop_
 _symmetry_equiv_pos_site_id
 _symmetry_equiv_pos_as_xyz
  1  'x, y, z'
loop_
 _atom_site_type_symbol
 _atom_site_label
 _atom_site_symmetry_multiplicity
 _atom_site_fract_x
 _atom_site_fract_y
 _atom_site_fract_z
 _atom_site_occupancy
  Cu  Cu0  1  0.12458334  0.83628026  0.91387955  1.0
  Cu  Cu1  1  0.16422692  0.91668469  0.87548020  1.0
  Cu  Cu2  1  0.08499328  0.87456403  0.83302811  1.0
  Cu  Cu3  1  0.87512509  0.33652422  0.58611087  1.0
  Cu  Cu4  1  0.83429314  0.41662803  0.62528815  1.0
  Cu  Cu5  1  0.91523391  0.37542853  0.66621054  1.0
  Cu  Cu6  1  0.62582122  0.66394383  0.08726329  1.0
  Cu  Cu7  1  0.66501637  0.58237705  0.12470807  1.0
  Cu  Cu8  1  0.58440047  0.62410856  0.16604507  1.0
  Cu  Cu9  1  0.37584662  0.16333501  0.41439267  1.0
  Cu  Cu10  1  0.33496603  0.08411951  0.37466414  1.0
  Cu  Cu11  1  0.41457757  0.12582522  0.33260701  1.0
  H  H12  1  0.19048389  0.81776531  0.98487333  1.0
  H  H13  1  0.23495559  0.93585951  0.94212925  1.0
  H  H14  1  0.01422815  0.80796268  0.81398397  1.0
  H  H15  1  0.05878406  0.76566269  0.93235137  1.0
  H  H16  1  0.18199330  0.98851971  0.81199316  1.0
  H  H17  1  0.06759456  0.93825119  0.76099213  1.0
  H  H18  1  0.81114029  0.31932173  0.51359097  1.0
  H  H19  1  0.76160642  0.43443787  0.56013058  1.0
  H  H20  1  0.98770674  0.30998977  0.68440778  1.0
  H  H21  1  0.93977764  0.26404281  0.56874510  1.0
  H  H22  1  0.81672149  0.48856611  0.68917036  1.0
  H  H23  1  0.93285142  0.43909033  0.73795237  1.0
  H  H24  1  0.69179244  0.68252256  0.01677871  1.0
  H  H25  1  0.73593421  0.56338669  0.05783927  1.0
  H  H26  1  0.51144265  0.68930067  0.18391869  1.0
  H  H27  1  0.56158925  0.73678400  0.06986414  1.0
  H  H28  1  0.68273539  0.51072297  0.18868241  1.0
  H  H29  1  0.56680223  0.56048795  0.23770811  1.0
  H  H30  1  0.31170189  0.18053548  0.48723447  1.0
  H  H31  1  0.26272332  0.06590074  0.43988141  1.0
  H  H32  1  0.48516243  0.19245754  0.31359746  1.0
  H  H33  1  0.44176648  0.23388027  0.43276210  1.0
  H  H34  1  0.31737582  0.01213611  0.31124926  1.0
  H  H35  1  0.43205707  0.06206278  0.26055572  1.0
  C  C36  1  0.65333107  0.37585909  0.40244019  1.0
  C  C37  1  0.62468532  0.40369007  0.34584602  1.0
  C  C38  1  0.59644585  0.34706705  0.37372798  1.0
  C  C39  1  0.34601244  0.87642104  0.09740092  1.0
  C  C40  1  0.40304332  0.84757207  0.12612691  1.0
  C  C41  1  0.37443528  0.90429665  0.15399200  1.0
  C  C42  1  0.15407339  0.12339484  0.59777157  1.0
  C  C43  1  0.12542656  0.09560911  0.65426491  1.0
  C  C44  1  0.09703614  0.15239111  0.62641519  1.0
  C  C45  1  0.84680365  0.62400400  0.90288871  1.0
  C  C46  1  0.90365702  0.65270547  0.87404584  1.0
  C  C47  1  0.87518333  0.59615213  0.84612193  1.0
  C  C48  1  0.19597549  0.84642200  0.96891363  1.0
  C  C49  1  0.22602647  0.87683276  0.97689749  1.0
  C  C50  1  0.21861834  0.90717972  0.94712822  1.0
  C  C51  1  0.03056713  0.80304358  0.84273272  1.0
  C  C52  1  0.02320894  0.77340378  0.87317666  1.0
  C  C53  1  0.05324904  0.78149280  0.90362027  1.0
  C  C54  1  0.15422164  0.97080082  0.80487333  1.0
  C  C55  1  0.12484267  0.97661151  0.77327905  1.0
  C  C56  1  0.09534273  0.94518531  0.77887173  1.0
  C  C57  1  0.80437980  0.34726338  0.53046144  1.0
  C  C58  1  0.77304282  0.37687620  0.52340311  1.0
  C  C59  1  0.77914959  0.40648759  0.55419294  1.0
  C  C60  1  0.97053328  0.30421817  0.65630544  1.0
  C  C61  1  0.97711924  0.27359122  0.62658126  1.0
  C  C62  1  0.94612470  0.28079410  0.59679324  1.0
  C  C63  1  0.84491774  0.47107745  0.69575057  1.0
  C  C64  1  0.87481161  0.47709233  0.72682965  1.0
  C  C65  1  0.90464901  0.44584966  0.72062441  1.0
  C  C66  1  0.69722658  0.65359465  0.03233104  1.0
  C  C67  1  0.72718067  0.62299266  0.02388150  1.0
  C  C68  1  0.71968842  0.59231234  0.05324604  1.0
  C  C69  1  0.52914797  0.69544390  0.15622069  1.0
  C  C70  1  0.52316192  0.72649768  0.12686314  1.0
  C  C71  1  0.55471661  0.71965638  0.09753265  1.0
  C  C72  1  0.65458171  0.52827452  0.19530504  1.0
  C  C73  1  0.62475954  0.52240723  0.22647537  1.0
  C  C74  1  0.59492302  0.55363297  0.22028616  1.0
  C  C75  1  0.30509887  0.15272891  0.47016375  1.0
  C  C76  1  0.27392817  0.12314071  0.47701547  1.0
  C  C77  1  0.28015740  0.09373805  0.44601479  1.0
  C  C78  1  0.46907690  0.19718397  0.34252979  1.0
  C  C79  1  0.47678059  0.22654969  0.37319516  1.0
  C  C80  1  0.44700762  0.21827030  0.40383420  1.0
  C  C81  1  0.34520875  0.02976572  0.30419292  1.0
  C  C82  1  0.37470226  0.02380697  0.27271038  1.0
  C  C83  1  0.40422873  0.05522170  0.27834356  1.0
  C  C84  1  0.31342933  0.87664491  0.06484061  1.0
  C  C85  1  0.25746398  0.87681631  0.00861297  1.0
  C  C86  1  0.68586671  0.37623928  0.43512282  1.0
  C  C87  1  0.74167394  0.37673529  0.49155770  1.0
  C  C88  1  0.81438353  0.62366204  0.93563970  1.0
  C  C89  1  0.75860178  0.62317908  0.99210623  1.0
  C  C90  1  0.18671642  0.12312074  0.56521524  1.0
  C  C91  1  0.24257100  0.12304393  0.50884803  1.0
  C  C92  1  0.93611283  0.68532541  0.87371372  1.0
  C  C93  1  0.99187197  0.74164319  0.87328051  1.0
  C  C94  1  0.56403398  0.31442745  0.37350798  1.0
  C  C95  1  0.50823386  0.25817488  0.37326371  1.0
  C  C96  1  0.06448830  0.18518438  0.62658277  1.0
  C  C97  1  0.00861612  0.24174633  0.62663400  1.0
  C  C98  1  0.43568478  0.81484238  0.12643113  1.0
  C  C99  1  0.49168756  0.75838312  0.12680049  1.0
  C  C100  1  0.12529655  0.06333076  0.68650130  1.0
  C  C101  1  0.12499690  0.00787291  0.74200828  1.0
  C  C102  1  0.62466746  0.43589768  0.31352257  1.0
  C  C103  1  0.62474373  0.49125617  0.25786936  1.0
  C  C104  1  0.37447787  0.93666155  0.18619997  1.0
  C  C105  1  0.37464996  0.99237605  0.24155854  1.0
  C  C106  1  0.87510344  0.56388389  0.81378276  1.0
  C  C107  1  0.87490376  0.50836900  0.75817403  1.0
  N  N108  1  0.65496431  0.40575396  0.37427211  1.0
  N  N109  1  0.59447269  0.37530758  0.34389066  1.0
  N  N110  1  0.62503776  0.34560799  0.40382813  1.0
  N  N111  1  0.37464386  0.84623077  0.09589859  1.0
  N  N112  1  0.40473541  0.87576002  0.15605405  1.0
  N  N113  1  0.34413149  0.90632931  0.12561593  1.0
  N  N114  1  0.15577110  0.09345320  0.62590165  1.0
  N  N115  1  0.09516634  0.12419301  0.65626567  1.0
  N  N116  1  0.12560712  0.15371019  0.59631684  1.0
  N  N117  1  0.87524956  0.65414318  0.90430148  1.0
  N  N118  1  0.90544627  0.62448620  0.84411749  1.0
  N  N119  1  0.84495288  0.59418277  0.87458478  1.0
  N  N120  1  0.18671075  0.89550070  0.92307631  1.0
  N  N121  1  0.17231104  0.85800246  0.93694576  1.0
  N  N122  1  0.07685170  0.81338986  0.89198163  1.0
  N  N123  1  0.06243567  0.82711902  0.85438755  1.0
  N  N124  1  0.10653625  0.92225247  0.81124041  1.0
  N  N125  1  0.14286039  0.93846281  0.82767565  1.0
  N  N126  1  0.81154778  0.39516913  0.57790065  1.0
  N  N127  1  0.82747471  0.35858414  0.56287837  1.0
  N  N128  1  0.92275055  0.31316339  0.60810578  1.0
  N  N129  1  0.93818515  0.32799658  0.64485652  1.0
  N  N130  1  0.89318910  0.42287488  0.68840024  1.0
  N  N131  1  0.85629663  0.43880441  0.67267196  1.0
  N  N132  1  0.68781484  0.60397295  0.07748067  1.0
  N  N133  1  0.67354022  0.64182362  0.06415247  1.0
  N  N134  1  0.57784742  0.68711495  0.10877543  1.0
  N  N135  1  0.56169716  0.67178799  0.14500025  1.0
  N  N136  1  0.60631401  0.57649467  0.18798840  1.0
  N  N137  1  0.64314452  0.56045657  0.17218747  1.0
  N  N138  1  0.31246598  0.10516023  0.42237023  1.0
  N  N139  1  0.32823615  0.14157700  0.43765232  1.0
  N  N140  1  0.42324419  0.18650346  0.39210452  1.0
  N  N141  1  0.43727729  0.17307343  0.35423991  1.0
  N  N142  1  0.39293960  0.07826770  0.31063752  1.0
  N  N143  1  0.35652185  0.06218229  0.32696508  1.0
  N  N144  1  0.29413606  0.84072662  0.05702381  1.0
  N  N145  1  0.30586405  0.91266910  0.04588064  1.0
  N  N146  1  0.27736762  0.91276054  0.01662688  1.0
  N  N147  1  0.26501661  0.84081680  0.02838961  1.0
  N  N148  1  0.69106084  0.41162778  0.45589898  1.0
  N  N149  1  0.70748997  0.34112703  0.44116879  1.0
  N  N150  1  0.73659209  0.34144927  0.46983734  1.0
  N  N151  1  0.71940928  0.41182786  0.48532012  1.0
  N  N152  1  0.80709850  0.58752322  0.95438286  1.0
  N  N153  1  0.79495933  0.65957205  0.94386158  1.0
  N  N154  1  0.76595427  0.65932590  0.97261538  1.0
  N  N155  1  0.77869908  0.58726503  0.98374058  1.0
  N  N156  1  0.19245481  0.08776940  0.54444434  1.0
  N  N157  1  0.20784494  0.15837256  0.55923752  1.0
  N  N158  1  0.23697541  0.15826921  0.53059746  1.0
  N  N159  1  0.22083832  0.08778248  0.51505259  1.0
  N  N160  1  0.94334138  0.70428070  0.83768080  1.0
  N  N161  1  0.95568671  0.69317045  0.90951132  1.0
  N  N162  1  0.98468216  0.72184526  0.90928307  1.0
  N  N163  1  0.97172221  0.73357435  0.83745195  1.0
  N  N164  1  0.55656566  0.29552491  0.33745404  1.0
  N  N165  1  0.54484000  0.30641259  0.40944716  1.0
  N  N166  1  0.51582579  0.27775687  0.40932838  1.0
  N  N167  1  0.52816545  0.26626138  0.33732453  1.0
  N  N168  1  0.05854298  0.20568130  0.66203304  1.0
  N  N169  1  0.04370863  0.19165166  0.59116116  1.0
  N  N170  1  0.01457166  0.22041308  0.59123613  1.0
  N  N171  1  0.03014535  0.23517788  0.66201330  1.0
  N  N172  1  0.44101465  0.79398808  0.16173172  1.0
  N  N173  1  0.45726283  0.80890296  0.09137041  1.0
  N  N174  1  0.48647965  0.78020782  0.09163204  1.0
  N  N175  1  0.46946928  0.76453834  0.16186244  1.0
  N  N176  1  0.08941812  0.04223615  0.69159683  1.0
  N  N177  1  0.16102986  0.05795722  0.70790040  1.0
  N  N178  1  0.16079146  0.02978512  0.73688671  1.0
  N  N179  1  0.08934578  0.01327644  0.71979527  1.0
  N  N180  1  0.66063994  0.44119435  0.29253520  1.0
  N  N181  1  0.58876644  0.45712097  0.30801255  1.0
  N  N182  1  0.58888330  0.48601970  0.27974359  1.0
  N  N183  1  0.66061232  0.46931119  0.26349433  1.0
  N  N184  1  0.41027387  0.95792845  0.19116078  1.0
  N  N185  1  0.33881208  0.94188547  0.20775856  1.0
  N  N186  1  0.33899580  0.97018555  0.23667313  1.0
  N  N187  1  0.41027920  0.98701787  0.21928168  1.0
  N  N188  1  0.83921342  0.55880819  0.79260856  1.0
  N  N189  1  0.91089052  0.54243247  0.80842038  1.0
  N  N190  1  0.91070751  0.51345433  0.78018115  1.0
  N  N191  1  0.83918950  0.53061606  0.76358731  1.0
