# generated using pymatgen
data_Zn2H20C46N8O20F9
_symmetry_space_group_name_H-M   'P 1'
_cell_length_a   19.59377540
_cell_length_b   19.65574926
_cell_length_c   19.65423366
_cell_angle_alpha   104.52137363
_cell_angle_beta   111.84671462
_cell_angle_gamma   111.24765629
_symmetry_Int_Tables_number   1
_chemical_formula_structural   Zn2H20C46N8O20F9
_chemical_formula_sum   'Zn4 H40 C92 N16 O40 F18'
_cell_volume   5861.74687150
_cell_formula_units_Z   2
loop_
 _symmetry_equiv_pos_site_id
 _symmetry_equiv_pos_as_xyz
  1  'x, y, z'
loop_
 _atom_site_type_symbol
 _atom_site_label
 _atom_site_symmetry_multiplicity
 _atom_site_fract_x
 _atom_site_fract_y
 _atom_site_fract_z
 _atom_site_occupancy
  Zn  Zn0  1  0.37910254  0.99654231  0.90442151  1.0
  Zn  Zn1  1  0.62233362  0.01544144  0.11052558  1.0
  Zn  Zn2  1  0.40698896  0.89083847  0.01255607  1.0
  Zn  Zn3  1  0.59420529  0.10035068  0.97951572  1.0
  H  H4  1  0.41097345  0.15194329  0.03942909  1.0
  H  H5  1  0.82641620  0.07295872  0.17594761  1.0
  H  H6  1  0.17803778  0.86707858  0.76543219  1.0
  H  H7  1  0.60299907  0.97273584  0.84781597  1.0
  H  H8  1  0.37849271  0.76030082  0.85178228  1.0
  H  H9  1  0.52952252  0.58161124  0.99659696  1.0
  H  H10  1  0.35165786  0.47222545  0.75733671  1.0
  H  H11  1  0.44531825  0.40167443  0.72068429  1.0
  H  H12  1  0.59906152  0.55430303  0.82863663  1.0
  H  H13  1  0.76944511  0.41743372  0.49443455  1.0
  H  H14  1  0.82214686  0.54238120  0.38255663  1.0
  H  H15  1  0.77699597  0.52835765  0.44445054  1.0
  H  H16  1  0.99941499  0.48703846  0.55710030  1.0
  H  H17  1  0.85078916  0.39257124  0.50728175  1.0
  H  H18  1  0.60562918  0.84643617  0.49645234  1.0
  H  H19  1  0.47741394  0.97793893  0.55484842  1.0
  H  H20  1  0.36950110  0.76073479  0.45895593  1.0
  H  H21  1  0.23900591  0.21731321  0.25029601  1.0
  H  H22  1  0.12990974  0.00713839  0.08727377  1.0
  H  H23  1  0.06826039  0.20318944  0.05256409  1.0
  H  H24  1  0.75299400  0.92481328  0.15746585  1.0
  H  H25  1  0.69202037  0.50527243  0.07242785  1.0
  H  H26  1  0.81633178  0.70206540  0.55351286  1.0
  H  H27  1  0.08199619  0.73414425  0.51435805  1.0
  H  H28  1  0.92210826  0.32128929  0.31969913  1.0
  H  H29  1  0.96965398  0.52832434  0.76447109  1.0
  H  H30  1  0.52240474  0.69595821  0.57873326  1.0
  H  H31  1  0.73410769  0.10881163  0.69837752  1.0
  H  H32  1  0.72835331  0.87376932  0.67261495  1.0
  H  H33  1  0.26949208  0.91253678  0.43791614  1.0
  H  H34  1  0.38872330  0.98429812  0.30922332  1.0
  H  H35  1  0.31133635  0.67547615  0.21232092  1.0
  H  H36  1  0.36464319  0.36567805  0.25776593  1.0
  H  H37  1  0.17999002  0.24610287  0.38032073  1.0
  H  H38  1  0.98222426  0.97092586  0.20726344  1.0
  H  H39  1  0.23748424  0.19396272  0.96044128  1.0
  H  H40  1  0.22961364  0.05252585  0.87736509  1.0
  H  H41  1  0.71878568  0.30824122  0.03644570  1.0
  H  H42  1  0.31341831  0.86533911  0.14966394  1.0
  H  H43  1  0.22858596  0.92080600  0.68463022  1.0
  C  C44  1  0.40477389  0.10383394  0.05837442  1.0
  C  C45  1  0.66403163  0.24751791  0.21926847  1.0
  C  C46  1  0.53635884  0.89466246  0.23992491  1.0
  C  C47  1  0.46210061  0.21855451  0.88135893  1.0
  C  C48  1  0.39974959  0.91659469  0.76308581  1.0
  C  C49  1  0.58227974  0.85495126  0.99067092  1.0
  C  C50  1  0.23054338  0.76369261  0.85904423  1.0
  C  C51  1  0.76523098  0.10608318  0.01551354  1.0
  C  C52  1  0.79719114  0.08248469  0.12307757  1.0
  C  C53  1  0.20448594  0.84187705  0.80405039  1.0
  C  C54  1  0.53800987  0.95816426  0.82977819  1.0
  C  C55  1  0.63055016  0.16757966  0.21123378  1.0
  C  C56  1  0.44482552  0.79959382  0.90042857  1.0
  C  C57  1  0.46525308  0.91289018  0.75065007  1.0
  C  C58  1  0.51168198  0.78270777  0.92003129  1.0
  C  C59  1  0.17002276  0.75957399  0.78905547  1.0
  C  C60  1  0.82918136  0.09994613  0.07240716  1.0
  C  C61  1  0.51035571  0.54140749  0.93517070  1.0
  C  C62  1  0.42606409  0.45866765  0.87465932  1.0
  C  C63  1  0.45933740  0.28292964  0.86501902  1.0
  C  C64  1  0.50708082  0.70775397  0.88821559  1.0
  C  C65  1  0.56243031  0.50445116  0.91414868  1.0
  C  C66  1  0.46888964  0.85363382  0.15828375  1.0
  C  C67  1  0.47582070  0.41723811  0.85361784  1.0
  C  C68  1  0.54861884  0.52630308  0.84106323  1.0
  C  C69  1  0.49679983  0.56580097  0.86183706  1.0
  C  C70  1  0.46369594  0.44254405  0.78153806  1.0
  C  C71  1  0.41156911  0.48039574  0.80152994  1.0
  C  C72  1  0.46627562  0.34339254  0.85527418  1.0
  C  C73  1  0.50438374  0.64239047  0.87108938  1.0
  C  C74  1  0.83361049  0.43931027  0.50328362  1.0
  C  C75  1  0.83173110  0.53456383  0.43794803  1.0
  C  C76  1  0.91519903  0.61062659  0.51299295  1.0
  C  C77  1  0.52994803  0.20342012  0.89893277  1.0
  C  C78  1  0.09743112  0.69281354  0.71732141  1.0
  C  C79  1  0.83411790  0.45505073  0.42997901  1.0
  C  C80  1  0.89576414  0.51864191  0.58289538  1.0
  C  C81  1  0.96408951  0.58006377  0.57077162  1.0
  C  C82  1  0.99098863  0.52557470  0.52648336  1.0
  C  C83  1  0.92091968  0.47004020  0.43562416  1.0
  C  C84  1  0.03664229  0.64331171  0.64958904  1.0
  C  C85  1  0.76347599  0.38467916  0.35353491  1.0
  C  C86  1  0.71282627  0.32115842  0.29107274  1.0
  C  C87  1  0.43738796  0.78100324  0.48131350  1.0
  C  C88  1  0.59685570  0.95827615  0.23713337  1.0
  C  C89  1  0.58635124  0.91885745  0.58244300  1.0
  C  C90  1  0.59378052  0.89730750  0.50483143  1.0
  C  C91  1  0.53562439  0.88170650  0.30628950  1.0
  C  C92  1  0.48637904  0.87035581  0.54990551  1.0
  C  C93  1  0.44859711  0.77831629  0.40713399  1.0
  C  C94  1  0.50860200  0.86775067  0.42541190  1.0
  C  C95  1  0.47468935  0.92707991  0.44485664  1.0
  C  C96  1  0.44687085  0.91573364  0.50734239  1.0
  C  C97  1  0.52537998  0.87053556  0.36043017  1.0
  C  C98  1  0.47151658  0.87287163  0.61715709  1.0
  C  C99  1  0.40442846  0.15512844  0.88793064  1.0
  C  C100  1  0.46383246  0.88528846  0.67677581  1.0
  C  C101  1  0.18839160  0.20333084  0.10307211  1.0
  C  C102  1  0.19972926  0.15182573  0.21004606  1.0
  C  C103  1  0.10760429  0.12273291  0.19474616  1.0
  C  C104  1  0.90523204  0.10695704  0.07893557  1.0
  C  C105  1  0.20270933  0.13796721  0.12909121  1.0
  C  C106  1  0.10855417  0.19919648  0.10598432  1.0
  C  C107  1  0.05428522  0.11999419  0.10922229  1.0
  C  C108  1  0.04136263  0.04779086  0.04016754  1.0
  C  C109  1  0.12706865  0.05082809  0.06238552  1.0
  C  C110  1  0.65157707  0.23473910  0.14029769  1.0
  C  C111  1  0.97284817  0.11172679  0.09276668  1.0
  C  C112  1  0.28061827  0.13882941  0.14092103  1.0
  C  C113  1  0.33298419  0.12129665  0.13741094  1.0
  C  C114  1  0.38036818  0.01780634  0.11286759  1.0
  C  C115  1  0.37747694  0.08877716  0.11245970  1.0
  C  C116  1  0.66402471  0.86536426  0.04597517  1.0
  C  C117  1  0.64115011  0.50893452  0.97089875  1.0
  C  C118  1  0.89951837  0.67371831  0.56034713  1.0
  C  C119  1  0.96830778  0.66234092  0.48325618  1.0
  C  C120  1  0.92123231  0.39041958  0.40463839  1.0
  C  C121  1  0.94043012  0.50358624  0.65557897  1.0
  C  C122  1  0.44706367  0.71472843  0.50307241  1.0
  C  C123  1  0.62740941  0.01204006  0.63639515  1.0
  C  C124  1  0.64167430  0.89984055  0.64669924  1.0
  C  C125  1  0.35212740  0.88210138  0.47667219  1.0
  C  C126  1  0.40844801  0.92003357  0.36547464  1.0
  C  C127  1  0.36042267  0.72567280  0.32623297  1.0
  C  C128  1  0.26209420  0.29319621  0.15715390  1.0
  C  C129  1  0.10984539  0.18208346  0.26591871  1.0
  C  C130  1  0.06686136  0.03747078  0.19261784  1.0
  C  C131  1  0.17521960  0.19180365  0.01636184  1.0
  C  C132  1  0.32210182  0.13673929  0.88122530  1.0
  C  C133  1  0.68414892  0.29682597  0.11396955  1.0
  C  C134  1  0.35448333  0.97214806  0.15594255  1.0
  C  C135  1  0.31400485  0.89217647  0.70040296  1.0
  N  N136  1  0.41986848  0.04516549  0.02718081  1.0
  N  N137  1  0.55727463  0.90927831  0.00917923  1.0
  N  N138  1  0.29498797  0.83979786  0.91024560  1.0
  N  N139  1  0.70139080  0.09329629  0.02958419  1.0
  N  N140  1  0.72132362  0.07817421  0.09737526  1.0
  N  N141  1  0.27898977  0.88934898  0.87543545  1.0
  N  N142  1  0.51685661  0.98635758  0.88433527  1.0
  N  N143  1  0.47345667  0.87537309  0.95523685  1.0
  N  N144  1  0.60146192  0.11239053  0.13613388  1.0
  N  N145  1  0.48597258  0.88891928  0.11261462  1.0
  N  N146  1  0.51678585  0.13996420  0.91648125  1.0
  N  N147  1  0.56827210  0.95606256  0.16343698  1.0
  N  N148  1  0.43842640  0.10938124  0.90841290  1.0
  N  N149  1  0.61370684  0.15428575  0.09218788  1.0
  N  N150  1  0.40550446  0.99304963  0.06054154  1.0
  N  N151  1  0.43261401  0.96038161  0.84386970  1.0
  O  O152  1  0.69612564  0.82600407  0.02914008  1.0
  O  O153  1  0.70035607  0.92363353  0.12477449  1.0
  O  O154  1  0.69671265  0.50965711  0.95626535  1.0
  O  O155  1  0.64171305  0.50780583  0.04009700  1.0
  O  O156  1  0.95521476  0.73559504  0.62335569  1.0
  O  O157  1  0.81754140  0.65647433  0.52047663  1.0
  O  O158  1  0.93513718  0.66631410  0.41947266  1.0
  O  O159  1  0.05256853  0.70551655  0.53807950  1.0
  O  O160  1  0.92137108  0.34878082  0.44135591  1.0
  O  O161  1  0.92100638  0.37227711  0.33369223  1.0
  O  O162  1  0.97478877  0.46303096  0.65268884  1.0
  O  O163  1  0.93733574  0.53965156  0.72148640  1.0
  O  O164  1  0.39247925  0.64296478  0.46395641  1.0
  O  O165  1  0.52345730  0.74327014  0.57017105  1.0
  O  O166  1  0.59271372  0.04513012  0.65880083  1.0
  O  O167  1  0.71132006  0.05189961  0.66201831  1.0
  O  O168  1  0.64688185  0.91212762  0.71266568  1.0
  O  O169  1  0.69083813  0.87661661  0.62513626  1.0
  O  O170  1  0.30165488  0.81911340  0.47046778  1.0
  O  O171  1  0.33109650  0.93741274  0.45995435  1.0
  O  O172  1  0.34570454  0.85421674  0.31150945  1.0
  O  O173  1  0.42950592  0.99131751  0.36314226  1.0
  O  O174  1  0.29288396  0.69710637  0.32386187  1.0
  O  O175  1  0.36929295  0.71056984  0.26008285  1.0
  O  O176  1  0.26413748  0.34581737  0.13488475  1.0
  O  O177  1  0.32254142  0.30718109  0.22994908  1.0
  O  O178  1  0.05521747  0.19867688  0.26231377  1.0
  O  O179  1  0.18294518  0.21121261  0.33738964  1.0
  O  O180  1  0.08584043  0.98596118  0.17554451  1.0
  O  O181  1  0.00578636  0.02666068  0.21269350  1.0
  O  O182  1  0.11506918  0.18752651  0.96263141  1.0
  O  O183  1  0.24301488  0.19344641  0.01234260  1.0
  O  O184  1  0.29381255  0.18278894  0.88569078  1.0
  O  O185  1  0.27917787  0.05884404  0.87223746  1.0
  O  O186  1  0.69760648  0.36615679  0.14094604  1.0
  O  O187  1  0.70087691  0.26651713  0.05483477  1.0
  O  O188  1  0.35488361  0.00156683  0.21915856  1.0
  O  O189  1  0.32800385  0.89190014  0.11695117  1.0
  O  O190  1  0.27304022  0.83998227  0.62979467  1.0
  O  O191  1  0.28533425  0.94045612  0.73006960  1.0
  F  F192  1  0.23014107  0.70271214  0.87812036  1.0
  F  F193  1  0.76285993  0.12313571  0.95311041  1.0
  F  F194  1  0.36425700  0.42350267  0.89166598  1.0
  F  F195  1  0.62846355  0.14426519  0.26897858  1.0
  F  F196  1  0.85056361  0.55516836  0.60067979  1.0
  F  F197  1  0.39295343  0.78719908  0.12545157  1.0
  F  F198  1  0.93482481  0.51050983  0.38877722  1.0
  F  F199  1  0.06791420  0.57080494  0.53206712  1.0
  F  F200  1  0.49239749  0.73583172  0.39781516  1.0
  F  F201  1  0.60153240  0.24513045  0.89949594  1.0
  F  F202  1  0.66192621  0.96053231  0.51134774  1.0
  F  F203  1  0.54623087  0.00635368  0.48546348  1.0
  F  F204  1  0.13510764  0.26618982  0.17669977  1.0
  F  F205  1  0.23786952  0.11559873  0.25078493  1.0
  F  F206  1  0.67572610  0.01621433  0.29793062  1.0
  F  F207  1  0.13193219  0.02807860  0.99178291  1.0
  F  F208  1  0.00807190  0.05321817  0.96808149  1.0
  F  F209  1  0.98137892  0.97401205  0.02696819  1.0
