# generated using pymatgen
data_Dy2Cu3H30C24(NO4)6
_symmetry_space_group_name_H-M   'P 1'
_cell_length_a   13.38765826
_cell_length_b   13.38769902
_cell_length_c   14.33335391
_cell_angle_alpha   89.99977847
_cell_angle_beta   90.00010679
_cell_angle_gamma   119.99992730
_symmetry_Int_Tables_number   1
_chemical_formula_structural   Dy2Cu3H30C24(NO4)6
_chemical_formula_sum   'Dy4 Cu6 H60 C48 N12 O48'
_cell_volume   2224.79157846
_cell_formula_units_Z   2
loop_
 _symmetry_equiv_pos_site_id
 _symmetry_equiv_pos_as_xyz
  1  'x, y, z'
loop_
 _atom_site_type_symbol
 _atom_site_label
 _atom_site_symmetry_multiplicity
 _atom_site_fract_x
 _atom_site_fract_y
 _atom_site_fract_z
 _atom_site_occupancy
  Dy  Dy0  1  0.33333333  0.66666667  0.83164933  1.0
  Dy  Dy1  1  0.66666667  0.33333333  0.66834330  1.0
  Dy  Dy2  1  0.66666667  0.33333333  0.16835146  1.0
  Dy  Dy3  1  0.33333333  0.66666667  0.33165610  1.0
  Cu  Cu4  1  0.99999975  0.50000010  0.99999979  1.0
  Cu  Cu5  1  0.49999986  0.99999985  0.99999956  1.0
  Cu  Cu6  1  0.50000111  0.49999996  0.99999936  1.0
  Cu  Cu7  1  0.49999971  0.49999994  0.49999956  1.0
  Cu  Cu8  1  0.99999966  0.49999942  0.49999888  1.0
  Cu  Cu9  1  0.50000095  0.00000004  0.50000144  1.0
  H  H10  1  0.96289633  0.63958597  0.08367245  1.0
  H  H11  1  0.67668926  0.03710260  0.08367329  1.0
  H  H12  1  0.36041320  0.32330849  0.08367250  1.0
  H  H13  1  0.32330761  0.36041438  0.41632838  1.0
  H  H14  1  0.03710645  0.67669161  0.41632686  1.0
  H  H15  1  0.63958489  0.96289172  0.41632827  1.0
  H  H16  1  0.03710376  0.36041498  0.91632765  1.0
  H  H17  1  0.32330954  0.96289576  0.91632611  1.0
  H  H18  1  0.63958635  0.67668987  0.91632760  1.0
  H  H19  1  0.67669130  0.63958570  0.58367242  1.0
  H  H20  1  0.96289353  0.32330761  0.58367393  1.0
  H  H21  1  0.36041466  0.03710664  0.58367323  1.0
  H  H22  1  0.13643399  0.83148761  0.02612630  1.0
  H  H23  1  0.69505584  0.86356616  0.02612673  1.0
  H  H24  1  0.16851347  0.30494901  0.02612518  1.0
  H  H25  1  0.30494299  0.16850906  0.47387450  1.0
  H  H26  1  0.86356612  0.69505731  0.47387333  1.0
  H  H27  1  0.83149307  0.13643513  0.47387292  1.0
  H  H28  1  0.86356631  0.16851076  0.97387310  1.0
  H  H29  1  0.30494029  0.13643135  0.97387128  1.0
  H  H30  1  0.83148996  0.69505712  0.97387282  1.0
  H  H31  1  0.69505549  0.83149016  0.52612630  1.0
  H  H32  1  0.13643429  0.30494277  0.52612607  1.0
  H  H33  1  0.16850915  0.86356409  0.52612718  1.0
  H  H34  1  0.02700128  0.74005119  0.94568575  1.0
  H  H35  1  0.71304597  0.97299577  0.94568453  1.0
  H  H36  1  0.25995220  0.28695606  0.94568188  1.0
  H  H37  1  0.28694891  0.25994851  0.55431536  1.0
  H  H38  1  0.97299906  0.71304995  0.55431375  1.0
  H  H39  1  0.74005302  0.02700167  0.55431409  1.0
  H  H40  1  0.97299732  0.25994976  0.05431435  1.0
  H  H41  1  0.28695059  0.02700259  0.05431278  1.0
  H  H42  1  0.74005069  0.71304749  0.05431473  1.0
  H  H43  1  0.71305000  0.74005157  0.44568613  1.0
  H  H44  1  0.02700092  0.28694927  0.44568635  1.0
  H  H45  1  0.25994770  0.97299755  0.44568671  1.0
  H  H46  1  0.08472750  0.68867834  0.20605718  1.0
  H  H47  1  0.60395241  0.91527137  0.20605723  1.0
  H  H48  1  0.31132088  0.39604847  0.20605721  1.0
  H  H49  1  0.39604645  0.31132178  0.29394225  1.0
  H  H50  1  0.91527367  0.60395186  0.29394078  1.0
  H  H51  1  0.68867737  0.08472553  0.29394222  1.0
  H  H52  1  0.91527260  0.31132261  0.79394292  1.0
  H  H53  1  0.39604726  0.08472872  0.79394148  1.0
  H  H54  1  0.68868306  0.60395420  0.79394219  1.0
  H  H55  1  0.60395160  0.68867657  0.70605924  1.0
  H  H56  1  0.08472717  0.39604908  0.70605862  1.0
  H  H57  1  0.31132111  0.91527369  0.70605858  1.0
  H  H58  1  0.20398906  0.74127512  0.13154567  1.0
  H  H59  1  0.53728496  0.79601083  0.13154517  1.0
  H  H60  1  0.25872486  0.46271184  0.13154483  1.0
  H  H61  1  0.46271276  0.25872333  0.36845602  1.0
  H  H62  1  0.79600880  0.53728327  0.36845441  1.0
  H  H63  1  0.74127388  0.20398952  0.36845706  1.0
  H  H64  1  0.79601222  0.25872670  0.86845443  1.0
  H  H65  1  0.46271427  0.20398840  0.86845354  1.0
  H  H66  1  0.74127575  0.53728566  0.86845388  1.0
  H  H67  1  0.53728486  0.74127417  0.63154548  1.0
  H  H68  1  0.20399043  0.46271595  0.63154429  1.0
  H  H69  1  0.25872833  0.79600969  0.63154374  1.0
  C  C70  1  0.18388833  0.73817789  0.93074940  1.0
  C  C71  1  0.55428828  0.81610903  0.93075167  1.0
  C  C72  1  0.26182562  0.44571877  0.93074999  1.0
  C  C73  1  0.44571083  0.26182190  0.56925269  1.0
  C  C74  1  0.81611410  0.55429151  0.56924969  1.0
  C  C75  1  0.73817830  0.18388664  0.56925169  1.0
  C  C76  1  0.81610972  0.26182046  0.06924931  1.0
  C  C77  1  0.44570741  0.18388760  0.06924703  1.0
  C  C78  1  0.73818307  0.55429340  0.06924941  1.0
  C  C79  1  0.55428872  0.73817647  0.43074951  1.0
  C  C80  1  0.18388556  0.44570858  0.43075111  1.0
  C  C81  1  0.26182424  0.81611173  0.43074911  1.0
  C  C82  1  0.09481759  0.74598516  0.99245294  1.0
  C  C83  1  0.65116689  0.90518012  0.99245453  1.0
  C  C84  1  0.25401633  0.34883571  0.99245100  1.0
  C  C85  1  0.34883000  0.25401372  0.50754898  1.0
  C  C86  1  0.90518148  0.65116941  0.50754596  1.0
  C  C87  1  0.74598846  0.09481817  0.50754683  1.0
  C  C88  1  0.90518132  0.25401492  0.00754646  1.0
  C  C89  1  0.34883116  0.09481824  0.00754417  1.0
  C  C90  1  0.74598580  0.65116782  0.00754700  1.0
  C  C91  1  0.65116742  0.74598637  0.49245321  1.0
  C  C92  1  0.09481819  0.34883068  0.49245344  1.0
  C  C93  1  0.25401301  0.90518105  0.49245467  1.0
  C  C94  1  0.12826381  0.56242627  0.16122635  1.0
  C  C95  1  0.43416142  0.87173978  0.16122536  1.0
  C  C96  1  0.43757218  0.56583758  0.16122871  1.0
  C  C97  1  0.56583716  0.43757822  0.33878025  1.0
  C  C98  1  0.87174298  0.43415157  0.33878052  1.0
  C  C99  1  0.56241195  0.12825532  0.33878359  1.0
  C  C100  1  0.87173821  0.43757554  0.83877584  1.0
  C  C101  1  0.56583675  0.12826031  0.83877334  1.0
  C  C102  1  0.56242964  0.43416682  0.83877000  1.0
  C  C103  1  0.43416078  0.56241841  0.66122125  1.0
  C  C104  1  0.12825806  0.56584679  0.66121888  1.0
  C  C105  1  0.43759306  0.87174650  0.66122069  1.0
  C  C106  1  0.11663072  0.66795931  0.14242734  1.0
  C  C107  1  0.55133052  0.88336991  0.14242873  1.0
  C  C108  1  0.33204073  0.44867021  0.14242792  1.0
  C  C109  1  0.44866724  0.33203911  0.35757356  1.0
  C  C110  1  0.88337105  0.55133443  0.35757285  1.0
  C  C111  1  0.66796081  0.11662697  0.35757414  1.0
  C  C112  1  0.88336980  0.33204249  0.85757276  1.0
  C  C113  1  0.44866914  0.11663017  0.85757068  1.0
  C  C114  1  0.66796086  0.55133074  0.85757078  1.0
  C  C115  1  0.55133007  0.66795926  0.64242793  1.0
  C  C116  1  0.11662861  0.44866565  0.64242655  1.0
  C  C117  1  0.33203917  0.88337225  0.64242735  1.0
  N  N118  1  0.04235937  0.65246021  0.06130044  1.0
  N  N119  1  0.61010067  0.95764064  0.06130039  1.0
  N  N120  1  0.34754089  0.38989997  0.06129909  1.0
  N  N121  1  0.38989750  0.34753991  0.43870104  1.0
  N  N122  1  0.95764110  0.61010211  0.43869897  1.0
  N  N123  1  0.65246036  0.04235625  0.43870043  1.0
  N  N124  1  0.95764148  0.34754075  0.93869966  1.0
  N  N125  1  0.38989781  0.04235858  0.93869832  1.0
  N  N126  1  0.65246145  0.61010099  0.93869892  1.0
  N  N127  1  0.61010173  0.65245932  0.56129975  1.0
  N  N128  1  0.04235695  0.38989624  0.56130043  1.0
  N  N129  1  0.34754068  0.95764211  0.56130107  1.0
  O  O130  1  0.19191370  0.64698062  0.93765165  1.0
  O  O131  1  0.45506612  0.80808336  0.93765508  1.0
  O  O132  1  0.35302015  0.54493564  0.93765756  1.0
  O  O133  1  0.54493383  0.35301834  0.56234564  1.0
  O  O134  1  0.80808591  0.45506604  0.56234499  1.0
  O  O135  1  0.64698071  0.19191313  0.56234532  1.0
  O  O136  1  0.80808211  0.35301774  0.06234496  1.0
  O  O137  1  0.54493107  0.19191328  0.06234502  1.0
  O  O138  1  0.64698518  0.45506531  0.06234533  1.0
  O  O139  1  0.45506560  0.64697829  0.43765376  1.0
  O  O140  1  0.19191493  0.54493491  0.43765581  1.0
  O  O141  1  0.35302002  0.80808610  0.43765547  1.0
  O  O142  1  0.24391440  0.81937193  0.87506450  1.0
  O  O143  1  0.57545867  0.75608551  0.87506769  1.0
  O  O144  1  0.18063144  0.42455464  0.87506306  1.0
  O  O145  1  0.42454008  0.18062961  0.62493483  1.0
  O  O146  1  0.75608792  0.57546163  0.62493371  1.0
  O  O147  1  0.81937086  0.24391019  0.62493296  1.0
  O  O148  1  0.75608569  0.18062901  0.12493560  1.0
  O  O149  1  0.42453789  0.24391285  0.12493241  1.0
  O  O150  1  0.81937460  0.57546269  0.12493564  1.0
  O  O151  1  0.57545916  0.81936963  0.37506667  1.0
  O  O152  1  0.24391260  0.42454018  0.37506570  1.0
  O  O153  1  0.18063104  0.75608990  0.37506783  1.0
  O  O154  1  0.18731494  0.56393295  0.23040421  1.0
  O  O155  1  0.37661969  0.81268543  0.23040392  1.0
  O  O156  1  0.43606466  0.62337965  0.23040083  1.0
  O  O157  1  0.62337557  0.43606123  0.26959970  1.0
  O  O158  1  0.81268604  0.37662501  0.26960695  1.0
  O  O159  1  0.56393663  0.18731309  0.26960498  1.0
  O  O160  1  0.81268461  0.43606542  0.76959450  1.0
  O  O161  1  0.62337761  0.18731292  0.76959478  1.0
  O  O162  1  0.56393481  0.37662303  0.76959299  1.0
  O  O163  1  0.37662257  0.56393282  0.73040319  1.0
  O  O164  1  0.18731597  0.62337680  0.73039106  1.0
  O  O165  1  0.43606582  0.81268958  0.73039721  1.0
  O  O166  1  0.07946965  0.47624114  0.10595189  1.0
  O  O167  1  0.39677593  0.92053195  0.10595555  1.0
  O  O168  1  0.52375970  0.60322571  0.10595205  1.0
  O  O169  1  0.60322790  0.52375214  0.39404981  1.0
  O  O170  1  0.92052988  0.39678159  0.39403915  1.0
  O  O171  1  0.47625074  0.07947346  0.39404632  1.0
  O  O172  1  0.92052809  0.52375809  0.89404890  1.0
  O  O173  1  0.60322405  0.07946727  0.89404385  1.0
  O  O174  1  0.47623953  0.39677351  0.89404596  1.0
  O  O175  1  0.39677015  0.47624622  0.60594959  1.0
  O  O176  1  0.07946978  0.60321850  0.60595815  1.0
  O  O177  1  0.52375140  0.92053008  0.60595936  1.0
