# generated using pymatgen
data_Al2H11C22S2N2ClO12
_symmetry_space_group_name_H-M   'P 1'
_cell_length_a   6.65120396
_cell_length_b   12.72848867
_cell_length_c   16.95252944
_cell_angle_alpha   91.37541009
_cell_angle_beta   97.49381038
_cell_angle_gamma   105.02501590
_symmetry_Int_Tables_number   1
_chemical_formula_structural   Al2H11C22S2N2ClO12
_chemical_formula_sum   'Al2 H11 C22 S2 N2 Cl1 O12'
_cell_volume   1371.78577964
_cell_formula_units_Z   1
loop_
 _symmetry_equiv_pos_site_id
 _symmetry_equiv_pos_as_xyz
  1  'x, y, z'
loop_
 _atom_site_type_symbol
 _atom_site_label
 _atom_site_symmetry_multiplicity
 _atom_site_fract_x
 _atom_site_fract_y
 _atom_site_fract_z
 _atom_site_occupancy
  Al  Al0  1  0.99805320  0.49731752  0.49901857  1.0
  Al  Al1  1  0.50016187  0.50065028  0.49928678  1.0
  H  H2  1  0.17059094  0.38012087  0.43333442  1.0
  H  H3  1  0.83653588  0.62611414  0.55162651  1.0
  H  H4  1  0.65631254  0.54439420  0.73804454  1.0
  H  H5  1  0.72220526  0.54772983  0.88686736  1.0
  H  H6  1  0.05294850  0.44486622  0.89161629  1.0
  H  H7  1  0.94642109  0.54178478  0.10571993  1.0
  H  H8  1  0.27816617  0.46931992  0.11072431  1.0
  H  H9  1  0.34166051  0.47062574  0.25905333  1.0
  H  H10  1  0.83848854  0.14427639  0.45070063  1.0
  H  H11  1  0.94949522  0.44508984  0.68054759  1.0
  H  H12  1  0.04573701  0.54196332  0.31717472  1.0
  C  C13  1  0.64367262  0.30420957  0.50272537  1.0
  C  C14  1  0.70840817  0.50291059  0.35414769  1.0
  C  C15  1  0.35244524  0.69427504  0.49908405  1.0
  C  C16  1  0.28796238  0.49497934  0.64329959  1.0
  C  C17  1  0.31941198  0.49457974  0.73066666  1.0
  C  C18  1  0.52593174  0.52367711  0.77254321  1.0
  C  C19  1  0.56342719  0.52498724  0.85453690  1.0
  C  C20  1  0.39017269  0.49551183  0.89713635  1.0
  C  C21  1  0.18424971  0.46707066  0.85751851  1.0
  C  C22  1  0.14602696  0.46637553  0.77418407  1.0
  C  C23  1  0.81480504  0.52555650  0.13985723  1.0
  C  C24  1  0.60976500  0.50542429  0.10018186  1.0
  C  C25  1  0.43636037  0.48466294  0.14294076  1.0
  C  C26  1  0.47264067  0.48476913  0.22489599  1.0
  C  C27  1  0.67812034  0.50483898  0.26681537  1.0
  C  C28  1  0.85161349  0.52573398  0.22319829  1.0
  C  C29  1  0.30367540  0.88487911  0.53204916  1.0
  C  C30  1  0.69354203  0.11544283  0.47610449  1.0
  C  C31  1  0.40610866  0.81357986  0.50172665  1.0
  C  C32  1  0.58640728  0.18499150  0.50412386  1.0
  C  C33  1  0.58834447  0.00578013  0.48499556  1.0
  C  C34  1  0.40588652  0.99470472  0.52150824  1.0
  S  S35  1  0.63001515  0.88128055  0.46246674  1.0
  S  S36  1  0.35953879  0.11852763  0.54249196  1.0
  N  N37  1  0.40716786  0.49232384  0.98106843  1.0
  N  N38  1  0.59362464  0.50812640  0.01616552  1.0
  Cl  Cl39  1  0.08836601  0.85057302  0.58075972  1.0
  O  O40  1  0.82684837  0.35028836  0.48639869  1.0
  O  O41  1  0.54849896  0.48276991  0.39073860  1.0
  O  O42  1  0.49514254  0.64949192  0.48333473  1.0
  O  O43  1  0.09556781  0.47284039  0.60751946  1.0
  O  O44  1  0.16892174  0.64448455  0.51248923  1.0
  O  O45  1  0.44781013  0.51825714  0.60677363  1.0
  O  O46  1  0.50516721  0.35239059  0.51713936  1.0
  O  O47  1  0.90031600  0.52046549  0.38979944  1.0
  O  O48  1  0.21323044  0.45074262  0.46211916  1.0
  O  O49  1  0.78723445  0.54904610  0.53523946  1.0
  O  O50  1  0.94402309  0.43853907  0.73894396  1.0
  O  O51  1  0.05278727  0.54613131  0.25864249  1.0
