# generated using pymatgen
data_ZnH14C17NO4
_symmetry_space_group_name_H-M   'P 1'
_cell_length_a   9.61323256
_cell_length_b   15.38346399
_cell_length_c   15.38658311
_cell_angle_alpha   89.98921197
_cell_angle_beta   90.01066439
_cell_angle_gamma   89.99709792
_symmetry_Int_Tables_number   1
_chemical_formula_structural   ZnH14C17NO4
_chemical_formula_sum   'Zn2 H28 C34 N2 O8'
_cell_volume   2275.44194349
_cell_formula_units_Z   2
loop_
 _symmetry_equiv_pos_site_id
 _symmetry_equiv_pos_as_xyz
  1  'x, y, z'
loop_
 _atom_site_type_symbol
 _atom_site_label
 _atom_site_symmetry_multiplicity
 _atom_site_fract_x
 _atom_site_fract_y
 _atom_site_fract_z
 _atom_site_occupancy
  Zn  Zn0  1  0.64748184  0.00606909  0.99321942  1.0
  Zn  Zn1  1  0.35294824  0.00606010  0.99323667  1.0
  H  H2  1  0.71763995  0.97487597  0.71516353  1.0
  H  H3  1  0.71796673  0.97173061  0.55393181  1.0
  H  H4  1  0.71690782  0.03885682  0.27123683  1.0
  H  H5  1  0.71716253  0.04221344  0.43250430  1.0
  H  H6  1  0.71751765  0.28412847  0.02432075  1.0
  H  H7  1  0.71776543  0.44537727  0.02767216  1.0
  H  H8  1  0.71740567  0.72820219  0.96184969  1.0
  H  H9  1  0.71776641  0.56688513  0.95841253  1.0
  H  H10  1  0.28312069  0.03663774  0.71502694  1.0
  H  H11  1  0.28297494  0.04002472  0.55382123  1.0
  H  H12  1  0.28398438  0.97281782  0.27135500  1.0
  H  H13  1  0.28398137  0.96950754  0.43256524  1.0
  H  H14  1  0.28322537  0.72804445  0.02447977  1.0
  H  H15  1  0.28325427  0.56676900  0.02802270  1.0
  H  H16  1  0.28308803  0.28423294  0.96230220  1.0
  H  H17  1  0.28299879  0.44546810  0.95874692  1.0
  H  H18  1  0.87666084  0.87653989  0.03220587  1.0
  H  H19  1  0.87714740  0.89283959  0.91873258  1.0
  H  H20  1  0.87628285  0.10647487  0.08573595  1.0
  H  H21  1  0.87717982  0.00002144  0.12876597  1.0
  H  H22  1  0.87613003  0.03799602  0.86037117  1.0
  H  H23  1  0.87660916  0.12832659  0.93133621  1.0
  H  H24  1  0.12411089  0.12799275  0.93065083  1.0
  H  H25  1  0.12342382  0.03712128  0.86026424  1.0
  H  H26  1  0.12395447  0.89224755  0.91946790  1.0
  H  H27  1  0.12310901  0.87693202  0.03304896  1.0
  H  H28  1  0.12390352  0.00090703  0.12884602  1.0
  H  H29  1  0.12360564  0.10703028  0.08517330  1.0
  C  C30  1  0.50032810  0.00555965  0.82253361  1.0
  C  C31  1  0.50036880  0.00573068  0.72524169  1.0
  C  C32  1  0.50049442  0.00590986  0.54120341  1.0
  C  C33  1  0.50031989  0.00557032  0.16388769  1.0
  C  C34  1  0.50049659  0.00571846  0.26118284  1.0
  C  C35  1  0.50057276  0.00585390  0.44520615  1.0
  C  C36  1  0.50026328  0.17671958  0.99334814  1.0
  C  C37  1  0.50029261  0.27404617  0.99329414  1.0
  C  C38  1  0.50041933  0.45813606  0.99320143  1.0
  C  C39  1  0.50017624  0.83548085  0.99325493  1.0
  C  C40  1  0.50029250  0.73817573  0.99311592  1.0
  C  C41  1  0.50049761  0.55414370  0.99317355  1.0
  C  C42  1  0.91986541  0.91709684  0.98022403  1.0
  C  C43  1  0.91978986  0.04111326  0.07703251  1.0
  C  C44  1  0.91957609  0.06303012  0.92131470  1.0
  C  C45  1  0.08060958  0.06276390  0.92112469  1.0
  C  C46  1  0.08054528  0.91706005  0.98052921  1.0
  C  C47  1  0.08069226  0.04146589  0.07690482  1.0
  C  C48  1  0.62278455  0.98867297  0.67891797  1.0
  C  C49  1  0.62250904  0.98795733  0.58854903  1.0
  C  C50  1  0.62245545  0.02414625  0.30752341  1.0
  C  C51  1  0.62213178  0.02499711  0.39789295  1.0
  C  C52  1  0.62266259  0.32038448  0.01053226  1.0
  C  C53  1  0.62234801  0.41076848  0.01130494  1.0
  C  C54  1  0.62264815  0.69187116  0.97570900  1.0
  C  C55  1  0.62239891  0.60148393  0.97489080  1.0
  C  C56  1  0.37805169  0.02296197  0.67884640  1.0
  C  C57  1  0.37843562  0.02381619  0.58847215  1.0
  C  C58  1  0.37857336  0.98744421  0.30755497  1.0
  C  C59  1  0.37899769  0.98668033  0.39791951  1.0
  C  C60  1  0.37803991  0.69179690  0.01056685  1.0
  C  C61  1  0.37854406  0.60141339  0.01145928  1.0
  C  C62  1  0.37798904  0.32045281  0.97601563  1.0
  C  C63  1  0.37839926  0.41084020  0.97513496  1.0
  N  N64  1  0.86633530  0.00698288  0.99288377  1.0
  N  N65  1  0.13404468  0.00700682  0.99287674  1.0
  O  O66  1  0.61817654  0.87321047  0.99259276  1.0
  O  O67  1  0.38213961  0.87315947  0.99402569  1.0
  O  O68  1  0.38226456  0.00455451  0.12620781  1.0
  O  O69  1  0.38226724  0.00641019  0.86026275  1.0
  O  O70  1  0.38215876  0.13897969  0.99275012  1.0
  O  O71  1  0.61828081  0.00662118  0.12612131  1.0
  O  O72  1  0.61841680  0.00468122  0.86026046  1.0
  O  O73  1  0.61839062  0.13898298  0.99397796  1.0
