# generated using pymatgen
data_CuSiH12C16(N2F3)2
_symmetry_space_group_name_H-M   'P 1'
_cell_length_a   8.19270987
_cell_length_b   8.99947209
_cell_length_c   8.99941714
_cell_angle_alpha   88.53763416
_cell_angle_beta   79.81105144
_cell_angle_gamma   79.81112632
_symmetry_Int_Tables_number   1
_chemical_formula_structural   CuSiH12C16(N2F3)2
_chemical_formula_sum   'Cu1 Si1 H12 C16 N4 F6'
_cell_volume   642.75336677
_cell_formula_units_Z   1
loop_
 _symmetry_equiv_pos_site_id
 _symmetry_equiv_pos_as_xyz
  1  'x, y, z'
loop_
 _atom_site_type_symbol
 _atom_site_label
 _atom_site_symmetry_multiplicity
 _atom_site_fract_x
 _atom_site_fract_y
 _atom_site_fract_z
 _atom_site_occupancy
  Cu  Cu0  1  0.50000233  0.49999630  0.49999572  1.0
  Si  Si1  1  0.00000742  0.49999291  0.50000540  1.0
  H  H2  1  0.28226808  0.49964292  0.27476349  1.0
  H  H3  1  0.79466919  0.50037767  0.24882259  1.0
  H  H4  1  0.84461760  0.49985369  0.96433896  1.0
  H  H5  1  0.71773355  0.50035872  0.72523373  1.0
  H  H6  1  0.20533050  0.49962062  0.75118167  1.0
  H  H7  1  0.15538662  0.50014683  0.03566568  1.0
  H  H8  1  0.28228680  0.27475934  0.49957725  1.0
  H  H9  1  0.79467550  0.24881673  0.50034894  1.0
  H  H10  1  0.84461204  0.96433242  0.49985507  1.0
  H  H11  1  0.71772079  0.72523208  0.50039711  1.0
  H  H12  1  0.20532658  0.75118375  0.49963157  1.0
  H  H13  1  0.15539263  0.03566128  0.50012078  1.0
  C  C14  1  0.40422097  0.50000748  0.20325109  1.0
  C  C15  1  0.69317770  0.50015771  0.18538032  1.0
  C  C16  1  0.71932884  0.50001535  0.03009536  1.0
  C  C17  1  0.58098327  0.49993648  0.95574788  1.0
  C  C18  1  0.59578476  0.49999190  0.79674891  1.0
  C  C19  1  0.30682819  0.49984055  0.81462413  1.0
  C  C20  1  0.28067423  0.49998517  0.96990278  1.0
  C  C21  1  0.41902348  0.50006402  0.04425305  1.0
  C  C22  1  0.40421436  0.20326710  0.49996187  1.0
  C  C23  1  0.69317529  0.18539260  0.50013227  1.0
  C  C24  1  0.71933521  0.03007499  0.50001426  1.0
  C  C25  1  0.58097010  0.95576030  0.49994190  1.0
  C  C26  1  0.59577966  0.79673680  0.50001754  1.0
  C  C27  1  0.30682428  0.81460790  0.49985084  1.0
  C  C28  1  0.28067799  0.96991868  0.49997142  1.0
  C  C29  1  0.41902786  0.04422893  0.50004285  1.0
  N  N30  1  0.53636545  0.49994908  0.26987460  1.0
  N  N31  1  0.46363702  0.50004805  0.73012372  1.0
  N  N32  1  0.53638137  0.26987415  0.49990702  1.0
  N  N33  1  0.46362855  0.73012404  0.50007460  1.0
  F  F34  1  0.20651449  0.51368021  0.51370737  1.0
  F  F35  1  0.79350043  0.48631576  0.48630134  1.0
  F  F36  1  0.00002972  0.63608287  0.36390824  1.0
  F  F37  1  0.99998291  0.36389955  0.63609337  1.0
  F  F38  1  0.07296906  0.36367196  0.36368407  1.0
  F  F39  1  0.92704693  0.63631836  0.63632462  1.0
