# generated using pymatgen
data_ZnH22C35(NO2)6
_symmetry_space_group_name_H-M   'P 1'
_cell_length_a   18.23345899
_cell_length_b   19.66379537
_cell_length_c   23.71608875
_cell_angle_alpha   90.54221390
_cell_angle_beta   89.93102472
_cell_angle_gamma   89.99058589
_symmetry_Int_Tables_number   1
_chemical_formula_structural   ZnH22C35(NO2)6
_chemical_formula_sum   'Zn2 H44 C70 N12 O24'
_cell_volume   8502.75585309
_cell_formula_units_Z   2
loop_
 _symmetry_equiv_pos_site_id
 _symmetry_equiv_pos_as_xyz
  1  'x, y, z'
loop_
 _atom_site_type_symbol
 _atom_site_label
 _atom_site_symmetry_multiplicity
 _atom_site_fract_x
 _atom_site_fract_y
 _atom_site_fract_z
 _atom_site_occupancy
  Zn  Zn0  1  0.42032125  0.50004104  0.49945505  1.0
  Zn  Zn1  1  0.57465453  0.49861932  0.50030942  1.0
  H  H2  1  0.30556615  0.42513607  0.43771511  1.0
  H  H3  1  0.44244879  0.34229995  0.05563485  1.0
  H  H4  1  0.61325500  0.45768461  0.77970040  1.0
  H  H5  1  0.61557311  0.46382580  0.21790294  1.0
  H  H6  1  0.60669483  0.46436210  0.67389372  1.0
  H  H7  1  0.60842252  0.46223026  0.32392549  1.0
  H  H8  1  0.38701342  0.28088656  0.52950694  1.0
  H  H9  1  0.39059113  0.71713653  0.46814017  1.0
  H  H10  1  0.61043677  0.71621402  0.53182740  1.0
  H  H11  1  0.60828092  0.28357359  0.46833160  1.0
  H  H12  1  0.50227784  0.06099655  0.40798380  1.0
  H  H13  1  0.68833653  0.57777151  0.55952936  1.0
  H  H14  1  0.50161827  0.93789094  0.59009509  1.0
  H  H15  1  0.50200614  0.93457423  0.40861074  1.0
  H  H16  1  0.49972692  0.06431221  0.58946518  1.0
  H  H17  1  0.65003520  0.73299748  0.09001582  1.0
  H  H18  1  0.44638052  0.23900005  0.90966640  1.0
  H  H19  1  0.10565672  0.40489661  0.43196733  1.0
  H  H20  1  0.18868542  0.37622966  0.40739952  1.0
  H  H21  1  0.80484499  0.62929969  0.58721216  1.0
  H  H22  1  0.88785098  0.59910299  0.56466012  1.0
  H  H23  1  0.10614766  0.59818627  0.56555327  1.0
  H  H24  1  0.30566896  0.57935102  0.55799954  1.0
  H  H25  1  0.18896243  0.62874865  0.58767393  1.0
  H  H26  1  0.80528371  0.36785684  0.41588936  1.0
  H  H27  1  0.88818858  0.39854533  0.43775888  1.0
  H  H28  1  0.32303903  0.52616620  0.70083505  1.0
  H  H29  1  0.36983539  0.53504929  0.63879443  1.0
  H  H30  1  0.37334309  0.54022347  0.36387968  1.0
  H  H31  1  0.35459750  0.59325304  0.30961873  1.0
  H  H32  1  0.36357394  0.51173648  0.83007031  1.0
  H  H33  1  0.33898460  0.56513124  0.77788661  1.0
  H  H34  1  0.39488171  0.58473865  0.17323470  1.0
  H  H35  1  0.68875816  0.41943840  0.44309454  1.0
  H  H36  1  0.33799911  0.56336418  0.22671084  1.0
  H  H37  1  0.30086366  0.07857317  0.51636689  1.0
  H  H38  1  0.30227572  0.91878084  0.47862726  1.0
  H  H39  1  0.70108755  0.91808244  0.52075611  1.0
  H  H40  1  0.70072854  0.08266795  0.47895697  1.0
  H  H41  1  0.06406259  0.59278386  0.45165007  1.0
  H  H42  1  0.93008582  0.40730722  0.54886341  1.0
  H  H43  1  0.06660495  0.40821513  0.54787602  1.0
  H  H44  1  0.92754136  0.59166008  0.45244999  1.0
  H  H45  1  0.57392334  0.65807828  0.94445021  1.0
  C  C46  1  0.49876534  0.63214401  0.50083995  1.0
  C  C47  1  0.43783541  0.52566993  0.29585137  1.0
  C  C48  1  0.43888630  0.51946882  0.76551451  1.0
  C  C49  1  0.44295437  0.52897404  0.23609318  1.0
  C  C50  1  0.50358931  0.49640373  0.79026942  1.0
  C  C51  1  0.50709996  0.50578816  0.20990994  1.0
  C  C52  1  0.43604568  0.25381150  0.51565419  1.0
  C  C53  1  0.43909597  0.74470900  0.48223462  1.0
  C  C54  1  0.56227210  0.74409645  0.51792143  1.0
  C  C55  1  0.56002053  0.25521651  0.48139786  1.0
  C  C56  1  0.43659197  0.18260964  0.51477008  1.0
  C  C57  1  0.49691506  0.36682221  0.49826409  1.0
  C  C58  1  0.43892172  0.81584883  0.48276527  1.0
  C  C59  1  0.56424220  0.81523936  0.51668791  1.0
  C  C60  1  0.56262793  0.18413172  0.48229677  1.0
  C  C61  1  0.50018880  0.14621362  0.49843918  1.0
  C  C62  1  0.50189742  0.85270709  0.49970460  1.0
  C  C63  1  0.49732381  0.29043534  0.49831681  1.0
  C  C64  1  0.50016061  0.70849205  0.50046553  1.0
  C  C65  1  0.49590061  0.50093624  0.61024887  1.0
  C  C66  1  0.49789293  0.49971627  0.38948127  1.0
  C  C67  1  0.50210893  0.03389682  0.44791813  1.0
  C  C68  1  0.56412750  0.47567296  0.75840414  1.0
  C  C69  1  0.50176908  0.96500291  0.55016843  1.0
  C  C70  1  0.50168190  0.96313770  0.44827528  1.0
  C  C71  1  0.50036377  0.03575021  0.54980384  1.0
  C  C72  1  0.50202293  0.92812045  0.49939743  1.0
  C  C73  1  0.50103627  0.07078147  0.49868160  1.0
  C  C74  1  0.27233895  0.45840046  0.46449200  1.0
  C  C75  1  0.72175317  0.54323680  0.53403956  1.0
  C  C76  1  0.27241878  0.54503834  0.53220999  1.0
  C  C77  1  0.72201292  0.45403012  0.46859203  1.0
  C  C78  1  0.19523626  0.45663376  0.46315598  1.0
  C  C79  1  0.56689753  0.48150524  0.24035388  1.0
  C  C80  1  0.79877356  0.54521953  0.53547076  1.0
  C  C81  1  0.19543217  0.54628025  0.53440874  1.0
  C  C82  1  0.79900845  0.45233961  0.46701505  1.0
  C  C83  1  0.15605176  0.50114649  0.49919396  1.0
  C  C84  1  0.83815325  0.49891942  0.50113299  1.0
  C  C85  1  0.03465045  0.55239751  0.47339461  1.0
  C  C86  1  0.95953471  0.44767272  0.52711917  1.0
  C  C87  1  0.03606051  0.44820819  0.52659805  1.0
  C  C88  1  0.95813125  0.55180389  0.47387453  1.0
  C  C89  1  0.91952593  0.49944799  0.50074580  1.0
  C  C90  1  0.56049571  0.47949047  0.70023441  1.0
  C  C91  1  0.07463290  0.50059981  0.49975312  1.0
  C  C92  1  0.48831743  0.44228526  0.12262247  1.0
  C  C93  1  0.53667049  0.55506194  0.87744223  1.0
  C  C94  1  0.52734801  0.56422149  0.12110455  1.0
  C  C95  1  0.47729765  0.44033736  0.87901527  1.0
  C  C96  1  0.53176535  0.56079944  0.05879196  1.0
  C  C97  1  0.48263407  0.44026484  0.94131080  1.0
  C  C98  1  0.50966680  0.50077627  0.03002182  1.0
  C  C99  1  0.50922590  0.49870882  0.97005389  1.0
  C  C100  1  0.48637167  0.44274647  0.06005413  1.0
  C  C101  1  0.56254467  0.47981369  0.29862082  1.0
  C  C102  1  0.53416685  0.55617022  0.94003165  1.0
  C  C103  1  0.55407895  0.61743857  0.02825855  1.0
  C  C104  1  0.45801270  0.38443485  0.97184417  1.0
  C  C105  1  0.55599100  0.61437301  0.96884921  1.0
  C  C106  1  0.46097944  0.38579819  0.03125849  1.0
  C  C107  1  0.57235831  0.68454530  0.05589253  1.0
  C  C108  1  0.42335950  0.32313921  0.94424198  1.0
  C  C109  1  0.36600997  0.15003935  0.53191879  1.0
  C  C110  1  0.36826596  0.84747102  0.46476537  1.0
  C  C111  1  0.63620381  0.84581090  0.53327348  1.0
  C  C112  1  0.49630625  0.50173593  0.67315550  1.0
  C  C113  1  0.63532206  0.15443169  0.46643058  1.0
  C  C114  1  0.49844884  0.50102513  0.32664593  1.0
  C  C115  1  0.43423851  0.52097390  0.70564573  1.0
  N  N116  1  0.50952024  0.50394900  0.14906168  1.0
  N  N117  1  0.37210843  0.54620040  0.32113193  1.0
  N  N118  1  0.38084065  0.54296773  0.79892470  1.0
  N  N119  1  0.38351722  0.55110558  0.20423737  1.0
  N  N120  1  0.50772059  0.49620791  0.85105086  1.0
  N  N121  1  0.30836522  0.50166191  0.49830354  1.0
  N  N122  1  0.68598887  0.49860850  0.50128857  1.0
  N  N123  1  0.15956989  0.41440155  0.42555834  1.0
  N  N124  1  0.83412545  0.58943187  0.57186679  1.0
  N  N125  1  0.16000371  0.58866263  0.57242565  1.0
  N  N126  1  0.83445724  0.40813014  0.43055110  1.0
  N  N127  1  0.36920874  0.54346299  0.68155388  1.0
  O  O128  1  0.43755225  0.60401930  0.48994789  1.0
  O  O129  1  0.56167776  0.60198007  0.84973279  1.0
  O  O130  1  0.53775894  0.61754298  0.14759663  1.0
  O  O131  1  0.44670355  0.39423489  0.85252343  1.0
  O  O132  1  0.52947909  0.73199997  0.05764114  1.0
  O  O133  1  0.64328643  0.68791019  0.07272011  1.0
  O  O134  1  0.35725254  0.31444722  0.94283536  1.0
  O  O135  1  0.47372485  0.27673410  0.92699510  1.0
  O  O136  1  0.32586218  0.17262270  0.56895161  1.0
  O  O137  1  0.34755935  0.09414293  0.50052959  1.0
  O  O138  1  0.32869738  0.82355257  0.42797174  1.0
  O  O139  1  0.55789755  0.39546472  0.48822152  1.0
  O  O140  1  0.34894116  0.90402226  0.49497000  1.0
  O  O141  1  0.67859190  0.81974534  0.56673329  1.0
  O  O142  1  0.65317997  0.90430717  0.50581465  1.0
  O  O143  1  0.67842357  0.18153863  0.43399720  1.0
  O  O144  1  0.65217963  0.09553020  0.49330824  1.0
  O  O145  1  0.43602518  0.39621122  0.50829288  1.0
  O  O146  1  0.55877296  0.60223085  0.51187035  1.0
  O  O147  1  0.43562222  0.51505210  0.58458032  1.0
  O  O148  1  0.55870762  0.50795473  0.41470933  1.0
  O  O149  1  0.43582257  0.49058930  0.41399907  1.0
  O  O150  1  0.55532640  0.48581348  0.58503988  1.0
  O  O151  1  0.47231808  0.39209538  0.15028817  1.0
