# generated using pymatgen
data_Zn2H13C24O8F
_symmetry_space_group_name_H-M   'P 1'
_cell_length_a   6.78821944
_cell_length_b   10.86055722
_cell_length_c   34.98567395
_cell_angle_alpha   89.99143117
_cell_angle_beta   90.31072648
_cell_angle_gamma   89.58715476
_symmetry_Int_Tables_number   1
_chemical_formula_structural   Zn2H13C24O8F
_chemical_formula_sum   'Zn4 H26 C48 O16 F2'
_cell_volume   2579.17349479
_cell_formula_units_Z   2
loop_
 _symmetry_equiv_pos_site_id
 _symmetry_equiv_pos_as_xyz
  1  'x, y, z'
loop_
 _atom_site_type_symbol
 _atom_site_label
 _atom_site_symmetry_multiplicity
 _atom_site_fract_x
 _atom_site_fract_y
 _atom_site_fract_z
 _atom_site_occupancy
  Zn  Zn0  1  0.29021308  0.00396097  0.49968449  1.0
  Zn  Zn1  1  0.68650107  0.99978019  0.50014677  1.0
  Zn  Zn2  1  0.80368687  0.99684326  0.00030176  1.0
  Zn  Zn3  1  0.40729775  0.99618838  0.99985224  1.0
  H  H4  1  0.22410839  0.99600130  0.12433540  1.0
  H  H5  1  0.25655410  0.99655514  0.19497559  1.0
  H  H6  1  0.88927800  0.99518568  0.18432265  1.0
  H  H7  1  0.85345767  0.99473648  0.11340265  1.0
  H  H8  1  0.19509451  0.99721478  0.31662500  1.0
  H  H9  1  0.82703485  0.99610242  0.30428984  1.0
  H  H10  1  0.86473666  0.99736989  0.37480823  1.0
  H  H11  1  0.23622096  0.99881035  0.38740137  1.0
  H  H12  1  0.76524193  0.99643393  0.24456776  1.0
  H  H13  1  0.31629550  0.99572182  0.25570269  1.0
  H  H14  1  0.22487792  0.99531266  0.87503328  1.0
  H  H15  1  0.25713611  0.99582963  0.80446762  1.0
  H  H16  1  0.88988207  0.99582773  0.81636934  1.0
  H  H17  1  0.85429029  0.99535593  0.88721599  1.0
  H  H18  1  0.19527435  0.99671460  0.68272837  1.0
  H  H19  1  0.82731451  0.99531272  0.69619726  1.0
  H  H20  1  0.86435926  0.99669338  0.62574395  1.0
  H  H21  1  0.23574218  0.99837856  0.61201453  1.0
  H  H22  1  0.76573961  0.99673198  0.75587298  1.0
  H  H23  1  0.31678655  0.99478000  0.74384648  1.0
  H  H24  1  0.09010380  0.61460016  0.49873756  1.0
  H  H25  1  0.72375866  0.62151162  0.50073584  1.0
  H  H26  1  0.10247932  0.38373378  0.49884981  1.0
  H  H27  1  0.00660837  0.60607129  0.00015995  1.0
  H  H28  1  0.37287802  0.61762919  0.00068471  1.0
  H  H29  1  0.99514879  0.37529926  0.00014528  1.0
  C  C30  1  0.40659471  0.76990955  0.49976060  1.0
  C  C31  1  0.56590349  0.99924571  0.42795149  1.0
  C  C32  1  0.41706815  0.23494038  0.49985654  1.0
  C  C33  1  0.56537469  0.99883839  0.57206453  1.0
  C  C34  1  0.68878537  0.76375821  0.00027276  1.0
  C  C35  1  0.52605298  0.99521796  0.07202158  1.0
  C  C36  1  0.68046988  0.22880357  0.00022856  1.0
  C  C37  1  0.52685293  0.99520152  0.92794830  1.0
  C  C38  1  0.53708084  0.99532208  0.11451690  1.0
  C  C39  1  0.36923235  0.99580144  0.13781399  1.0
  C  C40  1  0.38870759  0.99610403  0.17738923  1.0
  C  C41  1  0.57642264  0.99586184  0.19505216  1.0
  C  C42  1  0.74304888  0.99537718  0.17118096  1.0
  C  C43  1  0.72436014  0.99509737  0.13172625  1.0
  C  C44  1  0.60973924  0.99614306  0.23616860  1.0
  C  C45  1  0.47202888  0.99606254  0.26395566  1.0
  C  C46  1  0.34234353  0.99728726  0.32933493  1.0
  C  C47  1  0.50726135  0.99660801  0.30503103  1.0
  C  C48  1  0.69616795  0.99666921  0.32222487  1.0
  C  C49  1  0.71863349  0.99735549  0.36174115  1.0
  C  C50  1  0.55246161  0.99817037  0.38547268  1.0
  C  C51  1  0.36401275  0.99811466  0.36873587  1.0
  C  C52  1  0.53787742  0.99526551  0.88547739  1.0
  C  C53  1  0.36996848  0.99536432  0.86184493  1.0
  C  C54  1  0.38937531  0.99566084  0.82230918  1.0
  C  C55  1  0.57704910  0.99575491  0.80501320  1.0
  C  C56  1  0.74370241  0.99567928  0.82922629  1.0
  C  C57  1  0.72511754  0.99539724  0.86864220  1.0
  C  C58  1  0.61025584  0.99603907  0.76395649  1.0
  C  C59  1  0.47246919  0.99549223  0.73589372  1.0
  C  C60  1  0.34239508  0.99673889  0.67027182  1.0
  C  C61  1  0.50749152  0.99599167  0.69488420  1.0
  C  C62  1  0.69626761  0.99594818  0.67803444  1.0
  C  C63  1  0.71837722  0.99666072  0.63855819  1.0
  C  C64  1  0.55204160  0.99760973  0.61451909  1.0
  C  C65  1  0.36370512  0.99760912  0.63090747  1.0
  C  C66  1  0.41691115  0.37236863  0.49982952  1.0
  C  C67  1  0.40570927  0.63228291  0.49972976  1.0
  C  C68  1  0.59024175  0.44249644  0.50034431  1.0
  C  C69  1  0.23015496  0.56524242  0.49919527  1.0
  C  C70  1  0.58680316  0.57005614  0.50029275  1.0
  C  C71  1  0.23708284  0.43731658  0.49924679  1.0
  C  C72  1  0.68071095  0.36622766  0.00034697  1.0
  C  C73  1  0.69081594  0.62610293  0.00040087  1.0
  C  C74  1  0.50711763  0.43765861  0.00054569  1.0
  C  C75  1  0.86673117  0.55777095  0.00026693  1.0
  C  C76  1  0.51005482  0.56516457  0.00058425  1.0
  C  C77  1  0.86031427  0.42985942  0.00024872  1.0
  O  O78  1  0.23891948  0.82671553  0.49961107  1.0
  O  O79  1  0.57385348  0.82149374  0.49994462  1.0
  O  O80  1  0.73623610  0.99763492  0.44459284  1.0
  O  O81  1  0.40248271  0.00169098  0.44558224  1.0
  O  O82  1  0.58171895  0.17909621  0.50002145  1.0
  O  O83  1  0.24725571  0.18185953  0.49968047  1.0
  O  O84  1  0.40200793  0.00136463  0.55407492  1.0
  O  O85  1  0.73576148  0.99733977  0.55579865  1.0
  O  O86  1  0.85610382  0.81953015  0.00040739  1.0
  O  O87  1  0.52130546  0.81652755  0.00002020  1.0
  O  O88  1  0.35618758  0.99476524  0.05516571  1.0
  O  O89  1  0.69006719  0.99565122  0.05460094  1.0
  O  O90  1  0.51585469  0.17442944  0.99999029  1.0
  O  O91  1  0.85012014  0.17390793  0.00036935  1.0
  O  O92  1  0.69083224  0.99568073  0.94572533  1.0
  O  O93  1  0.35691739  0.99471317  0.94442614  1.0
  F  F94  1  0.77045918  0.38759123  0.50098734  1.0
  F  F95  1  0.32702500  0.38419737  0.00073664  1.0
