# generated using pymatgen
data_Zn2H9C9N3O8
_symmetry_space_group_name_H-M   'P 1'
_cell_length_a   13.31638728
_cell_length_b   14.85259485
_cell_length_c   16.53062023
_cell_angle_alpha   72.21882566
_cell_angle_beta   71.77896115
_cell_angle_gamma   73.38177161
_symmetry_Int_Tables_number   1
_chemical_formula_structural   Zn2H9C9N3O8
_chemical_formula_sum   'Zn8 H36 C36 N12 O32'
_cell_volume   2890.84420085
_cell_formula_units_Z   4
loop_
 _symmetry_equiv_pos_site_id
 _symmetry_equiv_pos_as_xyz
  1  'x, y, z'
loop_
 _atom_site_type_symbol
 _atom_site_label
 _atom_site_symmetry_multiplicity
 _atom_site_fract_x
 _atom_site_fract_y
 _atom_site_fract_z
 _atom_site_occupancy
  Zn  Zn0  1  0.97123630  0.06438509  0.98597347  1.0
  Zn  Zn1  1  0.73010468  0.02298781  0.01974210  1.0
  Zn  Zn2  1  0.93543517  0.84900672  0.03798043  1.0
  Zn  Zn3  1  0.91637256  0.98620507  0.84923330  1.0
  Zn  Zn4  1  0.31775755  0.42992881  0.40753204  1.0
  Zn  Zn5  1  0.53938830  0.43251618  0.44501791  1.0
  Zn  Zn6  1  0.31911702  0.42456534  0.60309106  1.0
  Zn  Zn7  1  0.33503839  0.61566463  0.45564552  1.0
  H  H8  1  0.43424078  0.01011010  0.41320194  1.0
  H  H9  1  0.65776418  0.19207765  0.36308354  1.0
  H  H10  1  0.65357037  0.29765804  0.20143640  1.0
  H  H11  1  0.58027268  0.21483580  0.20072471  1.0
  H  H12  1  0.73770019  0.07915382  0.25661683  1.0
  H  H13  1  0.81214803  0.17134703  0.22170420  1.0
  H  H14  1  0.18483805  0.57362450  0.07287423  1.0
  H  H15  1  0.34103571  0.71008056  0.17978482  1.0
  H  H16  1  0.18029123  0.80807400  0.27458353  1.0
  H  H17  1  0.09404081  0.76904692  0.23555350  1.0
  H  H18  1  0.25969249  0.84302369  0.08440379  1.0
  H  H19  1  0.20443138  0.92999769  0.14653305  1.0
  H  H20  1  0.91824266  0.32624984  0.43055792  1.0
  H  H21  1  0.99749614  0.34246640  0.65841874  1.0
  H  H22  1  0.18445573  0.18863263  0.58397335  1.0
  H  H23  1  0.05573271  0.16164629  0.63679823  1.0
  H  H24  1  0.14000722  0.24769462  0.74015521  1.0
  H  H25  1  0.21009661  0.13208798  0.72575490  1.0
  H  H26  1  0.74601379  0.50515092  0.61061234  1.0
  H  H27  1  0.59203639  0.76795829  0.39921052  1.0
  H  H28  1  0.76035470  0.64461810  0.27890861  1.0
  H  H29  1  0.77447245  0.75190626  0.29538723  1.0
  H  H30  1  0.58183867  0.82781270  0.25421831  1.0
  H  H31  1  0.61628965  0.72939564  0.20564480  1.0
  H  H32  1  0.70271377  0.94295583  0.51264928  1.0
  H  H33  1  0.49382764  0.12879657  0.68010413  1.0
  H  H34  1  0.57014991  0.23271760  0.74866696  1.0
  H  H35  1  0.69663505  0.17342694  0.69203951  1.0
  H  H36  1  0.62039234  0.01405424  0.76725714  1.0
  H  H37  1  0.52130074  0.08251094  0.83942866  1.0
  H  H38  1  0.54843155  0.80629115  0.62754515  1.0
  H  H39  1  0.32268473  0.62043525  0.75194756  1.0
  H  H40  1  0.11074207  0.67243154  0.74893669  1.0
  H  H41  1  0.14277833  0.78735368  0.69651781  1.0
  H  H42  1  0.22960205  0.76534006  0.82379903  1.0
  H  H43  1  0.17699123  0.66094971  0.87671281  1.0
  C  C44  1  0.51819089  0.98269096  0.42173533  1.0
  C  C45  1  0.59182148  0.21142157  0.32982101  1.0
  C  C46  1  0.63988608  0.22367637  0.22952431  1.0
  C  C47  1  0.74592551  0.15004852  0.21089023  1.0
  C  C48  1  0.78014275  0.13023406  0.12021647  1.0
  C  C49  1  0.51894309  0.30550581  0.35140412  1.0
  C  C50  1  0.26124970  0.59920007  0.03636005  1.0
  C  C51  1  0.26020693  0.69243406  0.21146691  1.0
  C  C52  1  0.17419552  0.78595979  0.21906510  1.0
  C  C53  1  0.18868124  0.86680043  0.13522081  1.0
  C  C54  1  0.09558689  0.90221014  0.09123347  1.0
  C  C55  1  0.26908590  0.62421314  0.30044166  1.0
  C  C56  1  0.85937462  0.36130988  0.48243132  1.0
  C  C57  1  0.05587323  0.31438662  0.60324100  1.0
  C  C58  1  0.11008365  0.20653666  0.63387911  1.0
  C  C59  1  0.13218987  0.18388353  0.72432987  1.0
  C  C60  1  0.04995226  0.13502511  0.79877085  1.0
  C  C61  1  0.14664210  0.37090816  0.56391961  1.0
  C  C62  1  0.70563363  0.58286868  0.59706411  1.0
  C  C63  1  0.64044865  0.69740183  0.38694666  1.0
  C  C64  1  0.71501958  0.71397159  0.29484227  1.0
  C  C65  1  0.65073015  0.77512596  0.22669676  1.0
  C  C66  1  0.71827858  0.83100124  0.14514820  1.0
  C  C67  1  0.56200890  0.63354847  0.40104391  1.0
  C  C68  1  0.73194838  0.97145197  0.55390708  1.0
  C  C69  1  0.56043781  0.16782085  0.65022442  1.0
  C  C70  1  0.61159919  0.16834649  0.72251616  1.0
  C  C71  1  0.60322672  0.07601649  0.79635188  1.0
  C  C72  1  0.68528434  0.05314465  0.84967667  1.0
  C  C73  1  0.51354131  0.27054709  0.60503936  1.0
  C  C74  1  0.46000730  0.83391874  0.64947924  1.0
  C  C75  1  0.28338215  0.66909428  0.70034861  1.0
  C  C76  1  0.16675072  0.71801889  0.74140730  1.0
  C  C77  1  0.16296672  0.73112178  0.83026792  1.0
  C  C78  1  0.06165937  0.79469155  0.87237345  1.0
  C  C79  1  0.28372552  0.61050224  0.63926797  1.0
  N  N80  1  0.58044567  0.05663503  0.39861717  1.0
  N  N81  1  0.53119132  0.13511475  0.35908213  1.0
  N  N82  1  0.29662037  0.64721900  0.08435358  1.0
  N  N83  1  0.23333708  0.64349915  0.15916157  1.0
  N  N84  1  0.90490884  0.36044805  0.55224291  1.0
  N  N85  1  0.00347802  0.32079427  0.53574908  1.0
  N  N86  1  0.66127395  0.61125883  0.52320507  1.0
  N  N87  1  0.70451075  0.66274351  0.45359808  1.0
  N  N88  1  0.64572018  0.03112614  0.60326675  1.0
  N  N89  1  0.64678508  0.11838424  0.58749065  1.0
  N  N90  1  0.40366258  0.75681632  0.68795834  1.0
  N  N91  1  0.34262006  0.74700406  0.64904733  1.0
  O  O92  1  0.88648086  0.98191968  0.97409632  1.0
  O  O93  1  0.55873466  0.89852749  0.44774733  1.0
  O  O94  1  0.70871151  0.11293463  0.09379314  1.0
  O  O95  1  0.87897233  0.12909760  0.07973418  1.0
  O  O96  1  0.56906808  0.36883701  0.34641675  1.0
  O  O97  1  0.41704975  0.31294962  0.37313694  1.0
  O  O98  1  0.31306733  0.58963699  0.96388278  1.0
  O  O99  1  0.02720144  0.84886028  0.11205929  1.0
  O  O100  1  0.09499301  0.98285256  0.03467577  1.0
  O  O101  1  0.26015484  0.66430423  0.36091940  1.0
  O  O102  1  0.29018931  0.53409010  0.30468350  1.0
  O  O103  1  0.76535860  0.39798602  0.48387979  1.0
  O  O104  1  0.99906324  0.08711009  0.77944072  1.0
  O  O105  1  0.04137053  0.14333339  0.87544695  1.0
  O  O106  1  0.17932373  0.39064334  0.61980442  1.0
  O  O107  1  0.18355380  0.38828423  0.48140581  1.0
  O  O108  1  0.68770064  0.63689398  0.64490813  1.0
  O  O109  1  0.81714408  0.79012837  0.12005078  1.0
  O  O110  1  0.67092850  0.91423336  0.10894080  1.0
  O  O111  1  0.46245832  0.67444809  0.41422096  1.0
  O  O112  1  0.60380563  0.54566359  0.39816450  1.0
  O  O113  1  0.82281460  0.94699269  0.56510283  1.0
  O  O114  1  0.78279560  0.02221930  0.81106072  1.0
  O  O115  1  0.65115428  0.06601982  0.92750052  1.0
  O  O116  1  0.41654536  0.30292982  0.64397763  1.0
  O  O117  1  0.57256148  0.31390024  0.53626594  1.0
  O  O118  1  0.41619472  0.91768308  0.65112857  1.0
  O  O119  1  0.01392323  0.86636112  0.82242327  1.0
  O  O120  1  0.03473932  0.77223432  0.95616114  1.0
  O  O121  1  0.30491687  0.51892722  0.66890574  1.0
  O  O122  1  0.26228371  0.65581344  0.56584274  1.0
  O  O123  1  0.37987320  0.47469287  0.47791485  1.0
