# generated using pymatgen
data_AlH24C21(N5O2)3
_symmetry_space_group_name_H-M   'P 1'
_cell_length_a   3.85199727
_cell_length_b   28.16587885
_cell_length_c   28.16579814
_cell_angle_alpha   60.00017162
_cell_angle_beta   89.99936103
_cell_angle_gamma   89.99965216
_symmetry_Int_Tables_number   1
_chemical_formula_structural   AlH24C21(N5O2)3
_chemical_formula_sum   'Al2 H48 C42 N30 O12'
_cell_volume   2646.44408675
_cell_formula_units_Z   2
loop_
 _symmetry_equiv_pos_site_id
 _symmetry_equiv_pos_as_xyz
  1  'x, y, z'
loop_
 _atom_site_type_symbol
 _atom_site_label
 _atom_site_symmetry_multiplicity
 _atom_site_fract_x
 _atom_site_fract_y
 _atom_site_fract_z
 _atom_site_occupancy
  Al  Al0  1  0.96027238  0.00000082  0.49999916  1.0
  Al  Al1  1  0.96025781  0.66666765  0.16666542  1.0
  H  H2  1  0.74828307  0.56399261  0.13339902  1.0
  H  H3  1  0.71776531  0.50529933  0.12933563  1.0
  H  H4  1  0.80645860  0.37110924  0.22860785  1.0
  H  H5  1  0.00855354  0.42920151  0.18382378  1.0
  H  H6  1  0.18237306  0.55234979  0.29540923  1.0
  H  H7  1  0.26386480  0.49229259  0.35550079  1.0
  H  H8  1  0.29730895  0.36063358  0.38508801  1.0
  H  H9  1  0.02924725  0.41412319  0.37424287  1.0
  H  H10  1  0.80645974  0.29556128  0.43805879  1.0
  H  H11  1  0.00854851  0.23746948  0.48284352  1.0
  H  H12  1  0.74829822  0.10267750  0.53326863  1.0
  H  H13  1  0.71775675  0.16136997  0.53733247  1.0
  H  H14  1  0.29733245  0.30603903  0.28157874  1.0
  H  H15  1  0.02929045  0.25254738  0.29242247  1.0
  H  H16  1  0.18241615  0.11432078  0.37125765  1.0
  H  H17  1  0.26391778  0.17437796  0.31116668  1.0
  H  H18  1  0.74825922  0.63340043  0.30260949  1.0
  H  H19  1  0.71771941  0.62933528  0.36536573  1.0
  H  H20  1  0.80644791  0.72861046  0.40028397  1.0
  H  H21  1  0.00852312  0.68382358  0.38697584  1.0
  H  H22  1  0.18238892  0.79541186  0.15224217  1.0
  H  H23  1  0.26391043  0.85550309  0.15220571  1.0
  H  H24  1  0.29733513  0.88509149  0.25427913  1.0
  H  H25  1  0.02928911  0.87424833  0.21163127  1.0
  H  H26  1  0.80647194  0.93806413  0.26637718  1.0
  H  H27  1  0.00854928  0.98285025  0.27968374  1.0
  H  H28  1  0.74828832  0.03327132  0.36405450  1.0
  H  H29  1  0.71773774  0.03733566  0.30129800  1.0
  H  H30  1  0.29733634  0.78158273  0.41238052  1.0
  H  H31  1  0.02929942  0.79242549  0.45503042  1.0
  H  H32  1  0.18241327  0.87126034  0.51441999  1.0
  H  H33  1  0.26394115  0.81116784  0.51445528  1.0
  H  H34  1  0.74828052  0.80261115  0.06399048  1.0
  H  H35  1  0.71773366  0.86536795  0.00529887  1.0
  H  H36  1  0.80644354  0.90028726  0.87110733  1.0
  H  H37  1  0.00852818  0.88698072  0.92919984  1.0
  H  H38  1  0.18239089  0.65224506  0.05234588  1.0
  H  H39  1  0.26391011  0.65221050  0.99228969  1.0
  H  H40  1  0.29733989  0.75428400  0.86062895  1.0
  H  H41  1  0.02928816  0.71163511  0.91412025  1.0
  H  H42  1  0.80645212  0.76638237  0.79555885  1.0
  H  H43  1  0.00853041  0.77968936  0.73746594  1.0
  H  H44  1  0.74828000  0.86405733  0.60267514  1.0
  H  H45  1  0.71773647  0.80130011  0.66136736  1.0
  H  H46  1  0.29732556  0.91238649  0.80603689  1.0
  H  H47  1  0.02927618  0.95503457  0.75254606  1.0
  H  H48  1  0.18241130  0.01442468  0.61432035  1.0
  H  H49  1  0.26391988  0.01445875  0.67437647  1.0
  C  C50  1  0.46373542  0.95168256  0.58599890  1.0
  C  C51  1  0.46372956  0.08600095  0.46231804  1.0
  C  C52  1  0.46373274  0.96231979  0.45168093  1.0
  C  C53  1  0.46372101  0.58066877  0.20434705  1.0
  C  C54  1  0.46371783  0.70435116  0.21498248  1.0
  C  C55  1  0.46372293  0.71498346  0.08066662  1.0
  C  C56  1  0.48082405  0.52081983  0.23215330  1.0
  C  C57  1  0.34958160  0.48875824  0.28638725  1.0
  C  C58  1  0.38339800  0.43113006  0.31436658  1.0
  C  C59  1  0.52684993  0.40518016  0.28664275  1.0
  C  C60  1  0.64894390  0.43730569  0.23190002  1.0
  C  C61  1  0.63537411  0.49455014  0.20515600  1.0
  C  C62  1  0.64893527  0.22936690  0.43476761  1.0
  C  C63  1  0.52683644  0.26148997  0.38002523  1.0
  C  C64  1  0.38340604  0.23554007  0.35230198  1.0
  C  C65  1  0.34957700  0.17791149  0.38028121  1.0
  C  C66  1  0.48082955  0.14584990  0.43451602  1.0
  C  C67  1  0.63535292  0.17212039  0.46151161  1.0
  C  C68  1  0.48081615  0.73215370  0.24702843  1.0
  C  C69  1  0.34957374  0.78638899  0.22485389  1.0
  C  C70  1  0.38340373  0.81436823  0.25450371  1.0
  C  C71  1  0.52683949  0.78664569  0.30817661  1.0
  C  C72  1  0.64891934  0.73190160  0.33079525  1.0
  C  C73  1  0.63534378  0.70515718  0.30029403  1.0
  C  C74  1  0.64895615  0.93477300  0.33586437  1.0
  C  C75  1  0.52685358  0.88002810  0.35848325  1.0
  C  C76  1  0.38341479  0.85230557  0.41215601  1.0
  C  C77  1  0.34959157  0.88028235  0.44180605  1.0
  C  C78  1  0.48083744  0.93451848  0.41963434  1.0
  C  C79  1  0.63536399  0.96151373  0.36636852  1.0
  C  C80  1  0.48083001  0.74702947  0.02081777  1.0
  C  C81  1  0.34958107  0.72485690  0.98875623  1.0
  C  C82  1  0.38341191  0.75450707  0.93112781  1.0
  C  C83  1  0.52684642  0.80817991  0.90517891  1.0
  C  C84  1  0.64894494  0.83079763  0.93730385  1.0
  C  C85  1  0.63535818  0.80029597  0.99454922  1.0
  C  C86  1  0.64892973  0.83586954  0.72936381  1.0
  C  C87  1  0.52684323  0.85848809  0.76148711  1.0
  C  C88  1  0.38340060  0.91216218  0.73553781  1.0
  C  C89  1  0.34958081  0.94181031  0.67791081  1.0
  C  C90  1  0.48082099  0.91963861  0.64584847  1.0
  C  C91  1  0.63536174  0.86636958  0.67211927  1.0
  N  N92  1  0.54150251  0.34915534  0.30704376  1.0
  N  N93  1  0.54150372  0.31751561  0.35962344  1.0
  N  N94  1  0.54150274  0.80704716  0.34380025  1.0
  N  N95  1  0.54150500  0.85962745  0.32285882  1.0
  N  N96  1  0.54150779  0.84380408  0.84915346  1.0
  N  N97  1  0.54150432  0.82286351  0.81751380  1.0
  N  N98  1  0.77581700  0.52261253  0.15256873  1.0
  N  N99  1  0.77950644  0.41225811  0.20320846  1.0
  N  N100  1  0.19097133  0.51070896  0.31544498  1.0
  N  N101  1  0.26846650  0.40203458  0.36857029  1.0
  N  N102  1  0.77950480  0.25441324  0.46345852  1.0
  N  N103  1  0.77581625  0.14405759  0.51409922  1.0
  N  N104  1  0.26849054  0.26463393  0.29809713  1.0
  N  N105  1  0.19100377  0.15596242  0.35122149  1.0
  N  N106  1  0.77578129  0.65256913  0.32482007  1.0
  N  N107  1  0.77948128  0.70320951  0.38453470  1.0
  N  N108  1  0.19098575  0.81544722  0.17384618  1.0
  N  N109  1  0.26848652  0.86857362  0.22939291  1.0
  N  N110  1  0.77951070  0.96346181  0.28212565  1.0
  N  N111  1  0.77582599  0.01410304  0.34184118  1.0
  N  N112  1  0.26850059  0.79810019  0.43726627  1.0
  N  N113  1  0.19100233  0.85122457  0.49281440  1.0
  N  N114  1  0.77580505  0.82482009  0.02261276  1.0
  N  N115  1  0.77948740  0.88453730  0.91225530  1.0
  N  N116  1  0.19098501  0.67385012  0.01070418  1.0
  N  N117  1  0.26849142  0.72939759  0.90203282  1.0
  N  N118  1  0.77949596  0.78213151  0.75441027  1.0
  N  N119  1  0.77580224  0.84184511  0.64405588  1.0
  N  N120  1  0.26848966  0.93727125  0.76463425  1.0
  N  N121  1  0.19099529  0.99282086  0.65596000  1.0
  O  O122  1  0.69010572  0.99959491  0.44300636  1.0
  O  O123  1  0.69010243  0.94300853  0.55739756  1.0
  O  O124  1  0.69009959  0.05740026  0.49959251  1.0
  O  O125  1  0.22435187  0.94899888  0.48818556  1.0
  O  O126  1  0.22434570  0.06281627  0.44899665  1.0
  O  O127  1  0.22434024  0.98818819  0.56281443  1.0
  O  O128  1  0.69008469  0.72365832  0.10926861  1.0
  O  O129  1  0.69008235  0.60926986  0.16707203  1.0
  O  O130  1  0.69007361  0.66707398  0.22365737  1.0
  O  O131  1  0.22433792  0.67847868  0.10385033  1.0
  O  O132  1  0.22432889  0.71767087  0.17847847  1.0
  O  O133  1  0.22432986  0.60385307  0.21766794  1.0
