# generated using pymatgen
data_Cu4H24C45N8
_symmetry_space_group_name_H-M   'P 1'
_cell_length_a   30.97955648
_cell_length_b   31.26855282
_cell_length_c   32.03474410
_cell_angle_alpha   90.26686453
_cell_angle_beta   89.89380401
_cell_angle_gamma   89.64240456
_symmetry_Int_Tables_number   1
_chemical_formula_structural   Cu4H24C45N8
_chemical_formula_sum   'Cu12 H72 C135 N24'
_cell_volume   31030.60889895
_cell_formula_units_Z   3
loop_
 _symmetry_equiv_pos_site_id
 _symmetry_equiv_pos_as_xyz
  1  'x, y, z'
loop_
 _atom_site_type_symbol
 _atom_site_label
 _atom_site_symmetry_multiplicity
 _atom_site_fract_x
 _atom_site_fract_y
 _atom_site_fract_z
 _atom_site_occupancy
  Cu  Cu0  1  0.77368591  0.84586348  0.76986470  1.0
  Cu  Cu1  1  0.76753700  0.76974109  0.83443972  1.0
  Cu  Cu2  1  0.84902533  0.77720673  0.77452606  1.0
  Cu  Cu3  1  0.22528621  0.15462380  0.77078290  1.0
  Cu  Cu4  1  0.22924150  0.23248783  0.83448585  1.0
  Cu  Cu5  1  0.14752755  0.22060898  0.77603352  1.0
  Cu  Cu6  1  0.77064094  0.15875696  0.23226735  1.0
  Cu  Cu7  1  0.76505514  0.23642711  0.16918637  1.0
  Cu  Cu8  1  0.84793016  0.22407530  0.22617701  1.0
  Cu  Cu9  1  0.23285510  0.83902022  0.22836188  1.0
  Cu  Cu10  1  0.23274511  0.76867766  0.15670155  1.0
  Cu  Cu11  1  0.16099401  0.76719494  0.22836147  1.0
  H  H12  1  0.70061161  0.90749898  0.80514736  1.0
  H  H13  1  0.68646471  0.79914777  0.88773915  1.0
  H  H14  1  0.90768869  0.80700182  0.69897722  1.0
  H  H15  1  0.80102562  0.89663796  0.68880974  1.0
  H  H16  1  0.79163532  0.68526576  0.88361451  1.0
  H  H17  1  0.90921577  0.70530796  0.81319020  1.0
  H  H18  1  0.30056138  0.09628064  0.80625454  1.0
  H  H19  1  0.31207479  0.20721871  0.88685616  1.0
  H  H20  1  0.08953688  0.18789858  0.70133906  1.0
  H  H21  1  0.19919535  0.10192258  0.68989023  1.0
  H  H22  1  0.20263920  0.31729021  0.88286276  1.0
  H  H23  1  0.08496984  0.29112570  0.81477124  1.0
  H  H24  1  0.69649558  0.09984890  0.19654480  1.0
  H  H25  1  0.68312500  0.21023727  0.11628317  1.0
  H  H26  1  0.90821098  0.18996644  0.29871417  1.0
  H  H27  1  0.79849009  0.10585536  0.31219988  1.0
  H  H28  1  0.78986587  0.32162512  0.12177763  1.0
  H  H29  1  0.90906264  0.29447185  0.18726640  1.0
  H  H30  1  0.31013672  0.89697410  0.19883320  1.0
  H  H31  1  0.31010568  0.80156262  0.10034305  1.0
  H  H32  1  0.10485540  0.79671064  0.30636760  1.0
  H  H33  1  0.20312451  0.89469894  0.30573704  1.0
  H  H34  1  0.20167960  0.69154765  0.10050181  1.0
  H  H35  1  0.10371165  0.69017016  0.19711566  1.0
  H  H36  1  0.59379559  0.98388884  0.88338002  1.0
  H  H37  1  0.64755741  0.94368078  0.84187772  1.0
  H  H38  1  0.63262008  0.83535568  0.92352234  1.0
  H  H39  1  0.57890756  0.87579079  0.96491867  1.0
  H  H40  1  0.41129419  0.12764692  0.97197053  1.0
  H  H41  1  0.35649179  0.16639215  0.93079153  1.0
  H  H42  1  0.36545518  0.06988939  0.83440331  1.0
  H  H43  1  0.41946484  0.03073149  0.87621419  1.0
  H  H44  1  0.57959462  0.03284736  0.12564732  1.0
  H  H45  1  0.63226195  0.07292987  0.16794501  1.0
  H  H46  1  0.64099013  0.16794514  0.07112570  1.0
  H  H47  1  0.58747595  0.12831086  0.02943968  1.0
  H  H48  1  0.42746865  0.87357008  0.03447966  1.0
  H  H49  1  0.37437727  0.83178371  0.07448493  1.0
  H  H50  1  0.35407521  0.93946672  0.15705728  1.0
  H  H51  1  0.40792916  0.98068937  0.11755260  1.0
  H  H52  1  0.87243779  0.96531733  0.57568585  1.0
  H  H53  1  0.83399206  0.92758576  0.63183259  1.0
  H  H54  1  0.94053520  0.83874001  0.64236150  1.0
  H  H55  1  0.97880713  0.87666618  0.58623431  1.0
  H  H56  1  0.03106003  0.87138928  0.41581286  1.0
  H  H57  1  0.07095414  0.83116649  0.36162339  1.0
  H  H58  1  0.16859106  0.92900591  0.36024972  1.0
  H  H59  1  0.12852105  0.96904909  0.41441419  1.0
  H  H60  1  0.02049385  0.11615020  0.58846012  1.0
  H  H61  1  0.05774477  0.15528443  0.64469762  1.0
  H  H62  1  0.16668998  0.06929428  0.63327181  1.0
  H  H63  1  0.12921358  0.03027435  0.57708862  1.0
  H  H64  1  0.98080354  0.11603077  0.40776288  1.0
  H  H65  1  0.94181953  0.15619020  0.35343482  1.0
  H  H66  1  0.83260451  0.07246360  0.36770948  1.0
  H  H67  1  0.87180585  0.03246912  0.42206551  1.0
  H  H68  1  0.86962069  0.58543966  0.96960965  1.0
  H  H69  1  0.83167617  0.64090923  0.92890945  1.0
  H  H70  1  0.93498470  0.63931304  0.83842481  1.0
  H  H71  1  0.97331405  0.58461730  0.87981305  1.0
  H  H72  1  0.86800949  0.42064834  0.03579134  1.0
  H  H73  1  0.82970721  0.36572223  0.07637327  1.0
  H  H74  1  0.93596730  0.36021321  0.16304609  1.0
  H  H75  1  0.97466622  0.41427539  0.12168387  1.0
  H  H76  1  0.03583389  0.57229520  0.12884817  1.0
  H  H77  1  0.07782066  0.62558298  0.16842516  1.0
  H  H78  1  0.15671984  0.64808801  0.05969950  1.0
  H  H79  1  0.11528938  0.59405813  0.02057975  1.0
  H  H80  1  0.12325786  0.41755782  0.96778496  1.0
  H  H81  1  0.16224292  0.36201790  0.92746278  1.0
  H  H82  1  0.05655327  0.35619807  0.84014497  1.0
  H  H83  1  0.01725230  0.41097088  0.88120399  1.0
  C  C84  1  0.70230761  0.87746877  0.82189154  1.0
  C  C85  1  0.67818851  0.86326654  0.85631538  1.0
  C  C86  1  0.69508634  0.82221269  0.86401227  1.0
  C  C87  1  0.87839158  0.82594875  0.70195327  1.0
  C  C88  1  0.86334589  0.86027595  0.67764230  1.0
  C  C89  1  0.82399330  0.87167108  0.69676067  1.0
  C  C90  1  0.81731203  0.69572227  0.86306714  1.0
  C  C91  1  0.85940894  0.67947258  0.85790792  1.0
  C  C92  1  0.87712854  0.70567355  0.82679631  1.0
  C  C93  1  0.29816448  0.12681389  0.82232823  1.0
  C  C94  1  0.32202407  0.14261356  0.85629639  1.0
  C  C95  1  0.30374850  0.18321620  0.86373019  1.0
  C  C96  1  0.11950363  0.17000678  0.70398214  1.0
  C  C97  1  0.13558440  0.13605980  0.67943200  1.0
  C  C98  1  0.17542033  0.12613951  0.69814829  1.0
  C  C99  1  0.17709452  0.30534025  0.86294443  1.0
  C  C100  1  0.13435556  0.31990375  0.85825718  1.0
  C  C101  1  0.11721986  0.29228297  0.82783341  1.0
  C  C102  1  0.69829013  0.13033767  0.18064091  1.0
  C  C103  1  0.67446744  0.14565426  0.14644841  1.0
  C  C104  1  0.69177501  0.18645529  0.13939459  1.0
  C  C105  1  0.87806664  0.17262696  0.29672182  1.0
  C  C106  1  0.86258256  0.13881914  0.32126008  1.0
  C  C107  1  0.82212251  0.12970720  0.30359064  1.0
  C  C108  1  0.81588714  0.30945265  0.14106184  1.0
  C  C109  1  0.85859262  0.32379389  0.14517841  1.0
  C  C110  1  0.87652970  0.29591837  0.17487408  1.0
  C  C111  1  0.30469482  0.87019857  0.17789489  1.0
  C  C112  1  0.32565049  0.85912528  0.14037722  1.0
  C  C113  1  0.30492791  0.82130109  0.12785419  1.0
  C  C114  1  0.13223171  0.81741452  0.30092788  1.0
  C  C115  1  0.14471413  0.85498928  0.32185754  1.0
  C  C116  1  0.18234585  0.86738865  0.30062483  1.0
  C  C117  1  0.18098400  0.69664865  0.12743806  1.0
  C  C118  1  0.14310141  0.67534994  0.13936373  1.0
  C  C119  1  0.13126910  0.69566456  0.17695828  1.0
  C  C120  1  0.99610710  0.50029190  0.00108972  1.0
  C  C121  1  0.50046874  0.00462696  0.00058372  1.0
  C  C122  1  0.00163387  0.99655735  0.49761567  1.0
  C  C123  1  0.58281229  0.93288082  0.92735735  1.0
  C  C124  1  0.60242612  0.95125826  0.89202534  1.0
  C  C125  1  0.63267535  0.92839686  0.86878689  1.0
  C  C126  1  0.64479399  0.88639021  0.87959938  1.0
  C  C127  1  0.62432357  0.86792712  0.91438410  1.0
  C  C128  1  0.59404387  0.89051007  0.93784846  1.0
  C  C129  1  0.55334579  0.95684133  0.95219922  1.0
  C  C130  1  0.52891744  0.97791958  0.97387171  1.0
  C  C131  1  0.41884820  0.07613230  0.92729296  1.0
  C  C132  1  0.40112551  0.11512640  0.94176189  1.0
  C  C133  1  0.37042651  0.13685416  0.91834434  1.0
  C  C134  1  0.35617810  0.12094456  0.87956348  1.0
  C  C135  1  0.37504162  0.08266843  0.86471598  1.0
  C  C136  1  0.40560702  0.06057585  0.88799034  1.0
  C  C137  1  0.44819315  0.05240454  0.95217236  1.0
  C  C138  1  0.47232152  0.03135760  0.97390726  1.0
  C  C139  1  0.58007584  0.07750185  0.07434067  1.0
  C  C140  1  0.59305582  0.06259618  0.11389255  1.0
  C  C141  1  0.62286246  0.08521561  0.13745495  1.0
  C  C142  1  0.64120545  0.12339803  0.12270598  1.0
  C  C143  1  0.62735601  0.13856982  0.08359436  1.0
  C  C144  1  0.59740590  0.11631282  0.05986419  1.0
  C  C145  1  0.55130118  0.05339954  0.04929274  1.0
  C  C146  1  0.52763942  0.03198938  0.02748815  1.0
  C  C147  1  0.42107659  0.93030972  0.07281259  1.0
  C  C148  1  0.41133461  0.88783225  0.06147102  1.0
  C  C149  1  0.38127369  0.86456527  0.08401249  1.0
  C  C150  1  0.35941437  0.88253400  0.11853448  1.0
  C  C151  1  0.37028305  0.92453578  0.13043084  1.0
  C  C152  1  0.40044986  0.94799402  0.10823671  1.0
  C  C153  1  0.44975921  0.95514961  0.04848286  1.0
  C  C154  1  0.47313266  0.97708508  0.02700681  1.0
  C  C155  1  0.92869911  0.92413782  0.57744302  1.0
  C  C156  1  0.88720174  0.93747461  0.59037725  1.0
  C  C157  1  0.86576225  0.91609151  0.62206806  1.0
  C  C158  1  0.88454648  0.88063946  0.64224356  1.0
  C  C159  1  0.92523606  0.86646338  0.62794204  1.0
  C  C160  1  0.94696800  0.88763094  0.59631780  1.0
  C  C161  1  0.95247379  0.94793955  0.54777738  1.0
  C  C162  1  0.97404885  0.96929164  0.52408216  1.0
  C  C163  1  0.07658786  0.92341485  0.41857817  1.0
  C  C164  1  0.06130042  0.88384811  0.40354682  1.0
  C  C165  1  0.08393408  0.86138853  0.37299455  1.0
  C  C166  1  0.12264902  0.87718051  0.35604515  1.0
  C  C167  1  0.13845955  0.91599278  0.37225112  1.0
  C  C168  1  0.11606469  0.93872572  0.40278961  1.0
  C  C169  1  0.05194592  0.94792430  0.44751024  1.0
  C  C170  1  0.02971244  0.96950220  0.47086880  1.0
  C  C171  1  0.07187923  0.06995113  0.57930725  1.0
  C  C172  1  0.05258090  0.10603136  0.59843580  1.0
  C  C173  1  0.07374765  0.12787466  0.63010830  1.0
  C  C174  1  0.11485103  0.11488148  0.64411265  1.0
  C  C175  1  0.13459403  0.07985536  0.62371120  1.0
  C  C176  1  0.11370646  0.05775232  0.59203052  1.0
  C  C177  1  0.04894684  0.04555300  0.54934471  1.0
  C  C178  1  0.02824293  0.02374781  0.52520256  1.0
  C  C179  1  0.92938492  0.07093513  0.41828192  1.0
  C  C180  1  0.94825244  0.10664039  0.39885306  1.0
  C  C181  1  0.92609920  0.12908688  0.36826343  1.0
  C  C182  1  0.88438147  0.11703152  0.35556715  1.0
  C  C183  1  0.86512942  0.08232386  0.37624381  1.0
  C  C184  1  0.88698690  0.05967179  0.40690568  1.0
  C  C185  1  0.95321706  0.04607020  0.44722049  1.0
  C  C186  1  0.97453954  0.02394297  0.47059724  1.0
  C  C187  1  0.92443322  0.58154474  0.92790447  1.0
  C  C188  1  0.88379244  0.59735170  0.94077202  1.0
  C  C189  1  0.86252854  0.62843028  0.91762371  1.0
  C  C190  1  0.88060156  0.64494221  0.88072309  1.0
  C  C191  1  0.92052599  0.62793135  0.86734506  1.0
  C  C192  1  0.94215826  0.59701297  0.89035461  1.0
  C  C193  1  0.94781861  0.55203330  0.95274820  1.0
  C  C194  1  0.96886553  0.52805658  0.97457741  1.0
  C  C195  1  0.92436444  0.42088803  0.07545588  1.0
  C  C196  1  0.88279253  0.40726823  0.06373080  1.0
  C  C197  1  0.86133310  0.37647603  0.08681755  1.0
  C  C198  1  0.88007158  0.35810349  0.12258561  1.0
  C  C199  1  0.92094351  0.37300609  0.13494313  1.0
  C  C200  1  0.94278569  0.40359630  0.11195091  1.0
  C  C201  1  0.94785234  0.44995085  0.05041943  1.0
  C  C202  1  0.96890973  0.47348141  0.02833125  1.0
  C  C203  1  0.07219986  0.57979964  0.07171623  1.0
  C  C204  1  0.06245712  0.58895267  0.11384788  1.0
  C  C205  1  0.08607932  0.61914075  0.13587888  1.0
  C  C206  1  0.12017852  0.64161301  0.11702223  1.0
  C  C207  1  0.13050248  0.63135585  0.07530483  1.0
  C  C208  1  0.10720560  0.60112062  0.05303259  1.0
  C  C209  1  0.04671326  0.55097304  0.04812256  1.0
  C  C210  1  0.02428883  0.52752961  0.02710424  1.0
  C  C211  1  0.06724529  0.41779441  0.92767424  1.0
  C  C212  1  0.10877494  0.40397533  0.93975463  1.0
  C  C213  1  0.13061453  0.37285382  0.91681250  1.0
  C  C214  1  0.11227133  0.35429850  0.88088406  1.0
  C  C215  1  0.07134754  0.36923566  0.86828922  1.0
  C  C216  1  0.04913600  0.40018850  0.89113409  1.0
  C  C217  1  0.04364554  0.44759372  0.95236802  1.0
  C  C218  1  0.02268311  0.47196142  0.97415096  1.0
  N  N219  1  0.72673449  0.81293217  0.83643203  1.0
  N  N220  1  0.73118694  0.84728545  0.81021891  1.0
  N  N221  1  0.81644342  0.84621343  0.72977165  1.0
  N  N222  1  0.85024069  0.81777691  0.73297923  1.0
  N  N223  1  0.84788872  0.73511270  0.81458301  1.0
  N  N224  1  0.81067946  0.72893830  0.83712019  1.0
  N  N225  1  0.27158804  0.19079944  0.83638600  1.0
  N  N226  1  0.26810583  0.15569606  0.81067013  1.0
  N  N227  1  0.18226523  0.15206371  0.73117678  1.0
  N  N228  1  0.14751289  0.17934320  0.73477773  1.0
  N  N229  1  0.14738161  0.26361272  0.81557496  1.0
  N  N230  1  0.18462321  0.27173059  0.83738132  1.0
  N  N231  1  0.72340901  0.19457082  0.16712591  1.0
  N  N232  1  0.72747422  0.15964795  0.19273449  1.0
  N  N233  1  0.81438662  0.15591683  0.27113480  1.0
  N  N234  1  0.84915813  0.18261414  0.26688912  1.0
  N  N235  1  0.84684775  0.26729961  0.18724526  1.0
  N  N236  1  0.80912053  0.27571170  0.16624471  1.0
  N  N237  1  0.27406444  0.81092220  0.15568602  1.0
  N  N238  1  0.27398623  0.84129196  0.18681213  1.0
  N  N239  1  0.19131420  0.83947433  0.26958645  1.0
  N  N240  1  0.16016922  0.80840558  0.26975182  1.0
  N  N241  1  0.15975284  0.72662628  0.18642118  1.0
  N  N242  1  0.19070283  0.72719164  0.15566574  1.0
