# generated using pymatgen
data_Zn2H15C46I9(NO4)2
_symmetry_space_group_name_H-M   'P 1'
_cell_length_a   12.58145728
_cell_length_b   13.54561064
_cell_length_c   15.27998861
_cell_angle_alpha   86.42548280
_cell_angle_beta   69.01383427
_cell_angle_gamma   80.04520872
_symmetry_Int_Tables_number   1
_chemical_formula_structural   Zn2H15C46I9(NO4)2
_chemical_formula_sum   'Zn2 H15 C46 I9 N2 O8'
_cell_volume   2394.72824114
_cell_formula_units_Z   1
loop_
 _symmetry_equiv_pos_site_id
 _symmetry_equiv_pos_as_xyz
  1  'x, y, z'
loop_
 _atom_site_type_symbol
 _atom_site_label
 _atom_site_symmetry_multiplicity
 _atom_site_fract_x
 _atom_site_fract_y
 _atom_site_fract_z
 _atom_site_occupancy
  Zn  Zn0  1  0.62501170  0.50792996  0.46433207  1.0
  Zn  Zn1  1  0.37520762  0.48577068  0.53328371  1.0
  H  H2  1  0.22408441  0.62990567  0.48543877  1.0
  H  H3  1  0.34910629  0.59887452  0.26277205  1.0
  H  H4  1  0.24917241  0.95693846  0.74336449  1.0
  H  H5  1  0.56032829  0.82150400  0.45403946  1.0
  H  H6  1  0.69387156  0.23045933  0.32036487  1.0
  H  H7  1  0.63770005  0.92506088  0.36438552  1.0
  H  H8  1  0.73568097  0.05475562  0.26158887  1.0
  H  H9  1  0.72296539  0.68523730  0.40574085  1.0
  H  H10  1  0.08256924  0.73375114  0.42667524  1.0
  H  H11  1  0.89652301  0.75854827  0.39962262  1.0
  H  H12  1  0.96121292  0.32530015  0.53871464  1.0
  H  H13  1  0.07868874  0.24616998  0.63067434  1.0
  H  H14  1  0.78734580  0.38104616  0.99667462  1.0
  H  H15  1  0.68079170  0.44528782  0.72278651  1.0
  H  H16  1  0.27292560  0.68815959  0.14280595  1.0
  C  C17  1  0.55600997  0.30440874  0.48235604  1.0
  C  C18  1  0.42324195  0.57179007  0.11332679  1.0
  C  C19  1  0.71220416  0.42050930  0.98241418  1.0
  C  C20  1  0.70991256  0.42436060  0.89369875  1.0
  C  C21  1  0.61189459  0.47343109  0.87181409  1.0
  C  C22  1  0.51593450  0.52358141  0.94675430  1.0
  C  C23  1  0.41546517  0.57320169  0.92789521  1.0
  C  C24  1  0.33373645  0.64040437  0.00026866  1.0
  C  C25  1  0.33504043  0.63646178  0.08958094  1.0
  C  C26  1  0.60540730  0.47519060  0.78230066  1.0
  C  C27  1  0.50243135  0.50906750  0.76640543  1.0
  C  C28  1  0.50829858  0.49902259  0.66631649  1.0
  C  C29  1  0.40457204  0.55075357  0.84199003  1.0
  C  C30  1  0.31702410  0.92790648  0.67873093  1.0
  C  C31  1  0.40501802  0.79688222  0.56148571  1.0
  C  C32  1  0.66211040  0.17011462  0.36803036  1.0
  C  C33  1  0.68299795  0.07190746  0.33465616  1.0
  C  C34  1  0.62970127  0.99885587  0.39286706  1.0
  C  C35  1  0.56111947  0.01993581  0.48760951  1.0
  C  C36  1  0.55227694  0.11654452  0.52451184  1.0
  C  C37  1  0.48980287  0.95042385  0.54579878  1.0
  C  C38  1  0.40939410  0.98132677  0.63628380  1.0
  C  C39  1  0.42907961  0.68930925  0.53055366  1.0
  C  C40  1  0.43002450  0.06472278  0.67917161  1.0
  C  C41  1  0.50271585  0.12802991  0.62564549  1.0
  C  C42  1  0.49055627  0.85452188  0.51576466  1.0
  C  C43  1  0.30975441  0.84136101  0.63833572  1.0
  C  C44  1  0.59488088  0.19383879  0.46093267  1.0
  C  C45  1  0.89263833  0.67912766  0.41358315  1.0
  C  C46  1  0.17805158  0.36687540  0.60585790  1.0
  C  C47  1  0.09486902  0.31678138  0.59427844  1.0
  C  C48  1  0.03085826  0.36094796  0.54169275  1.0
  C  C49  1  0.04931295  0.45505713  0.49910403  1.0
  C  C50  1  0.51184454  0.51196034  0.32594069  1.0
  C  C51  1  0.13891936  0.49871716  0.51069339  1.0
  C  C52  1  0.97328154  0.51296181  0.45573320  1.0
  C  C53  1  0.98048641  0.61685947  0.43738939  1.0
  C  C54  1  0.07561406  0.65538021  0.44507136  1.0
  C  C55  1  0.15436171  0.59808013  0.47737740  1.0
  C  C56  1  0.88617094  0.47763851  0.43245933  1.0
  C  C57  1  0.79927445  0.63950802  0.41334491  1.0
  C  C58  1  0.42352730  0.56329948  0.20514652  1.0
  C  C59  1  0.51841906  0.51173329  0.22535517  1.0
  C  C60  1  0.61549643  0.46582827  0.15203561  1.0
  C  C61  1  0.61669972  0.46812312  0.05879906  1.0
  C  C62  1  0.51889746  0.52153835  0.03941471  1.0
  I  I63  1  0.35482208  0.07766544  0.82600729  1.0
  I  I64  1  0.56609659  0.22914187  0.68621033  1.0
  I  I65  1  0.76193792  0.38886263  0.17928513  1.0
  I  I66  1  0.90644249  0.32807597  0.38892953  1.0
  I  I67  1  0.24056708  0.30915094  0.71117026  1.0
  I  I68  1  0.85847056  0.35610924  0.78631682  1.0
  I  I69  1  0.23670847  0.55679261  0.84166228  1.0
  I  I70  1  0.23298475  0.77050620  0.96883508  1.0
  I  I71  1  0.15033878  0.78947032  0.69286188  1.0
  N  N72  1  0.79716578  0.53903570  0.42090978  1.0
  N  N73  1  0.20545989  0.45179221  0.56096054  1.0
  O  O74  1  0.63386640  0.35952057  0.45373202  1.0
  O  O75  1  0.44804846  0.33430707  0.51864025  1.0
  O  O76  1  0.60841143  0.49629257  0.60385124  1.0
  O  O77  1  0.41609201  0.49486185  0.65180665  1.0
  O  O78  1  0.53581339  0.65267109  0.49808756  1.0
  O  O79  1  0.34589870  0.64265523  0.54086211  1.0
  O  O80  1  0.59950005  0.53238223  0.33929846  1.0
  O  O81  1  0.41846866  0.49331265  0.38815452  1.0
