# generated using pymatgen
data_Ni4H27C48(N4O)3
_symmetry_space_group_name_H-M   'P 1'
_cell_length_a   23.00279518
_cell_length_b   23.00274140
_cell_length_c   23.00285558
_cell_angle_alpha   60.00202793
_cell_angle_beta   60.00201008
_cell_angle_gamma   60.00139075
_symmetry_Int_Tables_number   1
_chemical_formula_structural   Ni4H27C48(N4O)3
_chemical_formula_sum   'Ni8 H54 C96 N24 O6'
_cell_volume   8606.86085699
_cell_formula_units_Z   2
loop_
 _symmetry_equiv_pos_site_id
 _symmetry_equiv_pos_as_xyz
  1  'x, y, z'
loop_
 _atom_site_type_symbol
 _atom_site_label
 _atom_site_symmetry_multiplicity
 _atom_site_fract_x
 _atom_site_fract_y
 _atom_site_fract_z
 _atom_site_occupancy
  Ni  Ni0  1  0.95408279  0.95408484  0.95405292  1.0
  Ni  Ni1  1  0.95405045  0.95404898  0.13783140  1.0
  Ni  Ni2  1  0.13780734  0.95407276  0.95403442  1.0
  Ni  Ni3  1  0.95407426  0.13780229  0.95403561  1.0
  Ni  Ni4  1  0.04594683  0.04595421  0.86216630  1.0
  Ni  Ni5  1  0.04591342  0.04591820  0.04594974  1.0
  Ni  Ni6  1  0.86219526  0.04592765  0.04596375  1.0
  Ni  Ni7  1  0.04592249  0.86219605  0.04596739  1.0
  H  H8  1  0.90792757  0.09206402  0.90790832  1.0
  H  H9  1  0.09205533  0.90794196  0.09210691  1.0
  H  H10  1  0.09204188  0.90792982  0.90791103  1.0
  H  H11  1  0.90794049  0.09207482  0.09208949  1.0
  H  H12  1  0.90791762  0.90791806  0.09207131  1.0
  H  H13  1  0.09206423  0.09210031  0.90793043  1.0
  H  H14  1  0.06628938  0.06628730  0.37973738  1.0
  H  H15  1  0.06656990  0.06657115  0.16914697  1.0
  H  H16  1  0.06629105  0.06628812  0.48768708  1.0
  H  H17  1  0.06656105  0.06656218  0.69773286  1.0
  H  H18  1  0.48769277  0.37973590  0.06628525  1.0
  H  H19  1  0.69772155  0.16915263  0.06655886  1.0
  H  H20  1  0.37974207  0.48768742  0.06628492  1.0
  H  H21  1  0.16916541  0.69769734  0.06656452  1.0
  H  H22  1  0.06628964  0.37973365  0.06628829  1.0
  H  H23  1  0.06657551  0.16915800  0.06657402  1.0
  H  H24  1  0.06629156  0.48768614  0.06628922  1.0
  H  H25  1  0.06656049  0.69772247  0.06655872  1.0
  H  H26  1  0.37974262  0.06628353  0.48768823  1.0
  H  H27  1  0.16915639  0.06656836  0.69770084  1.0
  H  H28  1  0.48768983  0.06628593  0.37973749  1.0
  H  H29  1  0.69773405  0.06655673  0.16914771  1.0
  H  H30  1  0.37973982  0.06628569  0.06628652  1.0
  H  H31  1  0.16916579  0.06658140  0.06658015  1.0
  H  H32  1  0.48769084  0.06628871  0.06628886  1.0
  H  H33  1  0.69772448  0.06656117  0.06655910  1.0
  H  H34  1  0.06628949  0.48768522  0.37973788  1.0
  H  H35  1  0.06655623  0.69772867  0.16915284  1.0
  H  H36  1  0.06628819  0.37973491  0.48768911  1.0
  H  H37  1  0.06656132  0.16915007  0.69771933  1.0
  H  H38  1  0.93371102  0.93370895  0.51231259  1.0
  H  H39  1  0.93343356  0.93343437  0.30227037  1.0
  H  H40  1  0.93371269  0.93371028  0.62026160  1.0
  H  H41  1  0.93342418  0.93342608  0.83085836  1.0
  H  H42  1  0.51231569  0.62025904  0.93371229  1.0
  H  H43  1  0.30228530  0.83084486  0.93343865  1.0
  H  H44  1  0.62026533  0.51230587  0.93371441  1.0
  H  H45  1  0.83084837  0.30229482  0.93343219  1.0
  H  H46  1  0.93371441  0.62026249  0.51231100  1.0
  H  H47  1  0.93343011  0.83085507  0.30228945  1.0
  H  H48  1  0.93371365  0.51231250  0.62026180  1.0
  H  H49  1  0.93343573  0.30227880  0.83085364  1.0
  H  H50  1  0.62026704  0.93371179  0.93371272  1.0
  H  H51  1  0.83084534  0.93341717  0.93341946  1.0
  H  H52  1  0.51231655  0.93370860  0.93370977  1.0
  H  H53  1  0.30227653  0.93343927  0.93344203  1.0
  H  H54  1  0.62026531  0.93371310  0.51230699  1.0
  H  H55  1  0.83085685  0.93342951  0.30228937  1.0
  H  H56  1  0.51231809  0.93371070  0.62025904  1.0
  H  H57  1  0.30227067  0.93344247  0.83084914  1.0
  H  H58  1  0.93371051  0.51231093  0.93371002  1.0
  H  H59  1  0.93343200  0.30228281  0.93343598  1.0
  H  H60  1  0.93371295  0.62026325  0.93371077  1.0
  H  H61  1  0.93341750  0.83084661  0.93342076  1.0
  C  C62  1  0.00000065  0.99999825  0.43836666  1.0
  C  C63  1  0.00000077  0.99999786  0.37696746  1.0
  C  C64  1  0.99999941  0.99999865  0.32383478  1.0
  C  C65  1  0.99999901  0.99999894  0.26284458  1.0
  C  C66  1  0.00000097  0.99999886  0.56163437  1.0
  C  C67  1  0.99999979  0.99999660  0.62303412  1.0
  C  C68  1  0.99999475  0.99999393  0.67617225  1.0
  C  C69  1  0.99999464  0.99999632  0.73716136  1.0
  C  C70  1  0.56163530  0.43836449  0.99999956  1.0
  C  C71  1  0.62303498  0.37696516  0.99999992  1.0
  C  C72  1  0.67617176  0.32383365  0.99999724  1.0
  C  C73  1  0.73716231  0.26284511  0.99999663  1.0
  C  C74  1  0.43836438  0.56163807  0.99999846  1.0
  C  C75  1  0.37697239  0.62303148  0.99999736  1.0
  C  C76  1  0.32383401  0.67616855  0.99999805  1.0
  C  C77  1  0.26284456  0.73715337  0.00000037  1.0
  C  C78  1  0.99999962  0.43836860  0.99999957  1.0
  C  C79  1  0.99999967  0.37697904  0.99999929  1.0
  C  C80  1  0.00000112  0.32383988  0.00000023  1.0
  C  C81  1  0.00000170  0.26285524  0.00000373  1.0
  C  C82  1  0.00000244  0.56162848  0.00000010  1.0
  C  C83  1  0.00000215  0.62301979  0.99999735  1.0
  C  C84  1  0.99999776  0.67616328  0.99999321  1.0
  C  C85  1  0.99999132  0.73715037  0.99999054  1.0
  C  C86  1  0.43836530  0.99999745  0.56163844  1.0
  C  C87  1  0.37696739  0.99999662  0.62303650  1.0
  C  C88  1  0.32382908  0.00000079  0.67616596  1.0
  C  C89  1  0.26283209  0.00000636  0.73715344  1.0
  C  C90  1  0.56163687  0.99999948  0.43836328  1.0
  C  C91  1  0.62304140  0.99999978  0.37695883  1.0
  C  C92  1  0.67617671  0.99999505  0.32383333  1.0
  C  C93  1  0.73717584  0.99999227  0.26284165  1.0
  C  C94  1  0.43837208  0.99999684  0.99999832  1.0
  C  C95  1  0.37698280  0.99999680  0.99999886  1.0
  C  C96  1  0.32383778  0.00000203  0.00000407  1.0
  C  C97  1  0.26284995  0.00000822  0.00000945  1.0
  C  C98  1  0.56163265  0.00000035  0.00000040  1.0
  C  C99  1  0.62302353  0.00000036  0.00000081  1.0
  C  C100  1  0.67616429  0.99999555  0.99999621  1.0
  C  C101  1  0.73715265  0.99999119  0.99999096  1.0
  C  C102  1  0.00000255  0.56163377  0.43836442  1.0
  C  C103  1  0.00000207  0.62303517  0.37696357  1.0
  C  C104  1  0.99999794  0.67617238  0.32383295  1.0
  C  C105  1  0.99999214  0.73716845  0.26284696  1.0
  C  C106  1  0.00000029  0.43836422  0.56163585  1.0
  C  C107  1  0.99999969  0.37696368  0.62303724  1.0
  C  C108  1  0.00000094  0.32382877  0.67616975  1.0
  C  C109  1  0.00000034  0.26283734  0.73715967  1.0
  C  C110  1  0.03733077  0.03732888  0.43253678  1.0
  C  C111  1  0.03416013  0.03416026  0.19078584  1.0
  C  C112  1  0.03733117  0.03732908  0.49280508  1.0
  C  C113  1  0.03415375  0.03415446  0.74090233  1.0
  C  C114  1  0.49280722  0.43253639  0.03732787  1.0
  C  C115  1  0.74090365  0.19078475  0.03415801  1.0
  C  C116  1  0.43254184  0.49280331  0.03732758  1.0
  C  C117  1  0.19078761  0.74088860  0.03416406  1.0
  C  C118  1  0.03733255  0.43253428  0.03733123  1.0
  C  C119  1  0.03416479  0.19079684  0.03416711  1.0
  C  C120  1  0.03733355  0.49280157  0.03733086  1.0
  C  C121  1  0.03414835  0.74089268  0.03415194  1.0
  C  C122  1  0.43254158  0.03732610  0.49280484  1.0
  C  C123  1  0.19077650  0.03416994  0.74088815  1.0
  C  C124  1  0.49280758  0.03732776  0.43253614  1.0
  C  C125  1  0.74091656  0.03415335  0.19078189  1.0
  C  C126  1  0.43253880  0.03732901  0.03733002  1.0
  C  C127  1  0.19079378  0.03417116  0.03417403  1.0
  C  C128  1  0.49280465  0.03733105  0.03733111  1.0
  C  C129  1  0.74089497  0.03415056  0.03415179  1.0
  C  C130  1  0.03733115  0.49280206  0.43253753  1.0
  C  C131  1  0.03415397  0.74090832  0.19078708  1.0
  C  C132  1  0.03733001  0.43253565  0.49280526  1.0
  C  C133  1  0.03416295  0.19077893  0.74089663  1.0
  C  C134  1  0.96267090  0.96266850  0.50719433  1.0
  C  C135  1  0.96583820  0.96584398  0.25910041  1.0
  C  C136  1  0.96267077  0.96266887  0.56746325  1.0
  C  C137  1  0.96583235  0.96583901  0.80921926  1.0
  C  C138  1  0.50719857  0.56745995  0.96267074  1.0
  C  C139  1  0.25910001  0.80921431  0.96584031  1.0
  C  C140  1  0.56746502  0.50719317  0.96267043  1.0
  C  C141  1  0.80922032  0.25910953  0.96583302  1.0
  C  C142  1  0.96267259  0.56746225  0.50719460  1.0
  C  C143  1  0.96582739  0.80922607  0.25911190  1.0
  C  C144  1  0.96267145  0.50719534  0.56746258  1.0
  C  C145  1  0.96583640  0.25909918  0.80922018  1.0
  C  C146  1  0.56746647  0.96266850  0.96266914  1.0
  C  C147  1  0.80920883  0.96582925  0.96582761  1.0
  C  C148  1  0.50720062  0.96266696  0.96266823  1.0
  C  C149  1  0.25910442  0.96585142  0.96584894  1.0
  C  C150  1  0.56746527  0.96267089  0.50719205  1.0
  C  C151  1  0.80923036  0.96583056  0.25910654  1.0
  C  C152  1  0.50719928  0.96266972  0.56746006  1.0
  C  C153  1  0.25908604  0.96584706  0.80921541  1.0
  C  C154  1  0.96266852  0.50719751  0.96266737  1.0
  C  C155  1  0.96584149  0.25911249  0.96584545  1.0
  C  C156  1  0.96266952  0.56746329  0.96266776  1.0
  C  C157  1  0.96582769  0.80920795  0.96582915  1.0
  N  N158  1  0.02079548  0.02080139  0.14892403  1.0
  N  N159  1  0.02079772  0.02080469  0.80947751  1.0
  N  N160  1  0.80948654  0.14891656  0.02080062  1.0
  N  N161  1  0.14891581  0.80947113  0.02080917  1.0
  N  N162  1  0.02080302  0.14892673  0.02080853  1.0
  N  N163  1  0.02078903  0.80947373  0.02080023  1.0
  N  N164  1  0.14890853  0.02081595  0.80946533  1.0
  N  N165  1  0.80949551  0.02079274  0.14892144  1.0
  N  N166  1  0.14892028  0.02081319  0.02081397  1.0
  N  N167  1  0.80947915  0.02079386  0.02079671  1.0
  N  N168  1  0.02078942  0.80948998  0.14892687  1.0
  N  N169  1  0.02080459  0.14891451  0.80947464  1.0
  N  N170  1  0.97919103  0.97919933  0.19052622  1.0
  N  N171  1  0.97919275  0.97920281  0.85108074  1.0
  N  N172  1  0.19051659  0.85108217  0.97919856  1.0
  N  N173  1  0.85108573  0.19052712  0.97919148  1.0
  N  N174  1  0.97918257  0.85109155  0.19053321  1.0
  N  N175  1  0.97919827  0.19051791  0.85107893  1.0
  N  N176  1  0.85108020  0.97918994  0.97918781  1.0
  N  N177  1  0.19052080  0.97920894  0.97920420  1.0
  N  N178  1  0.85109408  0.97918797  0.19052847  1.0
  N  N179  1  0.19050549  0.97921021  0.85107539  1.0
  N  N180  1  0.97919919  0.19053097  0.97920125  1.0
  N  N181  1  0.97918520  0.85107797  0.97919251  1.0
  O  O182  1  0.93798061  0.06206896  0.93793558  1.0
  O  O183  1  0.06201508  0.93793326  0.06206688  1.0
  O  O184  1  0.06206271  0.93799094  0.93793504  1.0
  O  O185  1  0.93792977  0.06201234  0.06206676  1.0
  O  O186  1  0.93795101  0.93796192  0.06209887  1.0
  O  O187  1  0.06204519  0.06204163  0.93790224  1.0
