# generated using pymatgen
data_CoH11C17N3O4
_symmetry_space_group_name_H-M   'P 1'
_cell_length_a   10.52814640
_cell_length_b   14.23212975
_cell_length_c   21.24096809
_cell_angle_alpha   89.99995041
_cell_angle_beta   103.11406307
_cell_angle_gamma   89.99909360
_symmetry_Int_Tables_number   1
_chemical_formula_structural   CoH11C17N3O4
_chemical_formula_sum   'Co4 H44 C68 N12 O16'
_cell_volume   3099.69910314
_cell_formula_units_Z   4
loop_
 _symmetry_equiv_pos_site_id
 _symmetry_equiv_pos_as_xyz
  1  'x, y, z'
loop_
 _atom_site_type_symbol
 _atom_site_label
 _atom_site_symmetry_multiplicity
 _atom_site_fract_x
 _atom_site_fract_y
 _atom_site_fract_z
 _atom_site_occupancy
  Co  Co0  1  0.42757340  0.54263482  0.02277660  1.0
  Co  Co1  1  0.57265195  0.04264800  0.47722033  1.0
  Co  Co2  1  0.57268284  0.45733959  0.97722738  1.0
  Co  Co3  1  0.42764749  0.95739948  0.52275967  1.0
  H  H4  1  0.23850534  0.75666759  0.36794502  1.0
  H  H5  1  0.76146066  0.25663409  0.13205768  1.0
  H  H6  1  0.76143184  0.24335038  0.63207265  1.0
  H  H7  1  0.23857214  0.74331502  0.86792093  1.0
  H  H8  1  0.17795895  0.66622760  0.26337157  1.0
  H  H9  1  0.82194073  0.16616933  0.23662276  1.0
  H  H10  1  0.82192194  0.33382691  0.73662829  1.0
  H  H11  1  0.17804904  0.83374817  0.76334924  1.0
  H  H12  1  0.38439642  0.86862271  0.17378270  1.0
  H  H13  1  0.61558159  0.36859697  0.32621921  1.0
  H  H14  1  0.61548545  0.13140861  0.82621726  1.0
  H  H15  1  0.38451357  0.63134160  0.67378157  1.0
  H  H16  1  0.45050563  0.95496771  0.27935804  1.0
  H  H17  1  0.54953073  0.45497103  0.22066370  1.0
  H  H18  1  0.54944595  0.04505588  0.72065728  1.0
  H  H19  1  0.45060842  0.54500268  0.77936027  1.0
  H  H20  1  0.66101690  0.79654829  0.09200072  1.0
  H  H21  1  0.33899621  0.29635919  0.40799388  1.0
  H  H22  1  0.33895914  0.20364042  0.90800195  1.0
  H  H23  1  0.66106046  0.70348594  0.59199509  1.0
  H  H24  1  0.84481356  0.90006645  0.14813338  1.0
  H  H25  1  0.15521921  0.39987610  0.35182212  1.0
  H  H26  1  0.15517144  0.10012578  0.85184004  1.0
  H  H27  1  0.84484463  0.59996340  0.64812329  1.0
  H  H28  1  0.07300118  0.85078325  0.15661834  1.0
  H  H29  1  0.92703464  0.35062591  0.34333749  1.0
  H  H30  1  0.92698449  0.14937595  0.84334996  1.0
  H  H31  1  0.07302237  0.64922624  0.65660724  1.0
  H  H32  1  0.93721023  0.59725747  0.05027595  1.0
  H  H33  1  0.06272105  0.09712990  0.44973521  1.0
  H  H34  1  0.06269430  0.40286660  0.94974697  1.0
  H  H35  1  0.93729384  0.90274614  0.55025199  1.0
  H  H36  1  0.55563198  0.60464294  0.16276432  1.0
  H  H37  1  0.44427956  0.10465294  0.33726042  1.0
  H  H38  1  0.44423071  0.39535044  0.83728931  1.0
  H  H39  1  0.55566873  0.89534114  0.66274845  1.0
  H  H40  1  0.49770611  0.64672056  0.23092311  1.0
  H  H41  1  0.50221848  0.14668009  0.26909206  1.0
  H  H42  1  0.50218941  0.35335011  0.76911164  1.0
  H  H43  1  0.49774013  0.85331048  0.73091077  1.0
  H  H44  1  0.54874380  0.72721633  0.17802325  1.0
  H  H45  1  0.45122654  0.22722136  0.32197613  1.0
  H  H46  1  0.45119060  0.27277986  0.82198001  1.0
  H  H47  1  0.54880070  0.77278397  0.67804008  1.0
  C  C48  1  0.39895884  0.90856237  0.39293380  1.0
  C  C49  1  0.60109224  0.40860740  0.10708990  1.0
  C  C50  1  0.60110301  0.09141204  0.60709430  1.0
  C  C51  1  0.39895797  0.59142603  0.89293800  1.0
  C  C52  1  0.34990478  0.85975975  0.32970472  1.0
  C  C53  1  0.65010568  0.35976335  0.17030181  1.0
  C  C54  1  0.65008279  0.14024276  0.67031274  1.0
  C  C55  1  0.34996229  0.64021106  0.82969817  1.0
  C  C56  1  0.27000023  0.78009260  0.32505496  1.0
  C  C57  1  0.72995929  0.28007909  0.17494519  1.0
  C  C58  1  0.72993489  0.21991694  0.67496062  1.0
  C  C59  1  0.27008042  0.71988127  0.82503551  1.0
  C  C60  1  0.23599475  0.73028653  0.26708749  1.0
  C  C61  1  0.76394124  0.23025214  0.23290567  1.0
  C  C62  1  0.76391060  0.26974409  0.73291620  1.0
  C  C63  1  0.23608747  0.76968362  0.76706924  1.0
  C  C64  1  0.28012137  0.76209603  0.21352632  1.0
  C  C65  1  0.71983217  0.26204311  0.28648079  1.0
  C  C66  1  0.71978706  0.23795076  0.78648050  1.0
  C  C67  1  0.28020002  0.73787720  0.71350388  1.0
  C  C68  1  0.35334745  0.84459554  0.21667349  1.0
  C  C69  1  0.64664104  0.34456036  0.28333277  1.0
  C  C70  1  0.64655438  0.15544703  0.78333644  1.0
  C  C71  1  0.35344743  0.65536838  0.71666971  1.0
  C  C72  1  0.38917876  0.89265485  0.27490242  1.0
  C  C73  1  0.61083617  0.39264478  0.22511019  1.0
  C  C74  1  0.61076694  0.10737156  0.72511185  1.0
  C  C75  1  0.38926558  0.60731488  0.77490396  1.0
  C  C76  1  0.68021418  0.62677532  0.03731022  1.0
  C  C77  1  0.31975553  0.12665521  0.46270660  1.0
  C  C78  1  0.31969478  0.37338248  0.96273904  1.0
  C  C79  1  0.68031105  0.87324823  0.53728618  1.0
  C  C80  1  0.78873440  0.69122600  0.06786675  1.0
  C  C81  1  0.21123076  0.19107491  0.43212979  1.0
  C  C82  1  0.21119222  0.30893812  0.93215270  1.0
  C  C83  1  0.78880474  0.80879832  0.56784532  1.0
  C  C84  1  0.76225124  0.77637010  0.09562696  1.0
  C  C85  1  0.23774893  0.27620399  0.40435414  1.0
  C  C86  1  0.23770996  0.22381580  0.90437048  1.0
  C  C87  1  0.76230429  0.72365238  0.59562555  1.0
  C  C88  1  0.86484714  0.83334759  0.12704814  1.0
  C  C89  1  0.13515505  0.33316939  0.37292274  1.0
  C  C90  1  0.13512357  0.16684112  0.87292951  1.0
  C  C91  1  0.86489186  0.66666667  0.62704831  1.0
  C  C92  1  0.99385648  0.80549013  0.13187779  1.0
  C  C93  1  0.00615443  0.30534439  0.36809916  1.0
  C  C94  1  0.00611242  0.19466204  0.86810204  1.0
  C  C95  1  0.99390239  0.69451830  0.63187570  1.0
  C  C96  1  0.02113971  0.72004070  0.10440773  1.0
  C  C97  1  0.97883203  0.21991357  0.39557954  1.0
  C  C98  1  0.97880174  0.28009251  0.89558351  1.0
  C  C99  1  0.02119791  0.77995404  0.60439972  1.0
  C  C100  1  0.91755036  0.66362220  0.07180410  1.0
  C  C101  1  0.08239982  0.16348107  0.42819098  1.0
  C  C102  1  0.08236005  0.33651733  0.92820339  1.0
  C  C103  1  0.91763488  0.83637951  0.57178687  1.0
  C  C104  1  0.15403417  0.68721137  0.10752266  1.0
  C  C105  1  0.84594463  0.18711252  0.39247334  1.0
  C  C106  1  0.84590177  0.31287757  0.89247369  1.0
  C  C107  1  0.15408024  0.81277054  0.60750213  1.0
  C  C108  1  0.36516824  0.66002442  0.13934420  1.0
  C  C109  1  0.63478717  0.15997099  0.36065611  1.0
  C  C110  1  0.63474264  0.34000972  0.86067134  1.0
  C  C111  1  0.36520561  0.83996337  0.63931760  1.0
  C  C112  1  0.49965464  0.65954720  0.18009672  1.0
  C  C113  1  0.50028222  0.15953057  0.31991777  1.0
  C  C114  1  0.50023860  0.34047921  0.81993215  1.0
  C  C115  1  0.49968513  0.84045298  0.68008545  1.0
  N  N116  1  0.31960963  0.61578891  0.08385819  1.0
  N  N117  1  0.68036238  0.11572080  0.41612731  1.0
  N  N118  1  0.68032343  0.38425085  0.91613882  1.0
  N  N119  1  0.31963372  0.88420232  0.58383683  1.0
  N  N120  1  0.18852571  0.63251243  0.06379421  1.0
  N  N121  1  0.81144086  0.13240128  0.43618745  1.0
  N  N122  1  0.81139722  0.36757933  0.93619521  1.0
  N  N123  1  0.18858557  0.86748179  0.56378158  1.0
  N  N124  1  0.26318097  0.70669125  0.15610651  1.0
  N  N125  1  0.73678042  0.20662259  0.34389765  1.0
  N  N126  1  0.73672178  0.29336045  0.84390257  1.0
  N  N127  1  0.26324930  0.79327875  0.65607783  1.0
  O  O128  1  0.48739099  0.97047668  0.39459258  1.0
  O  O129  1  0.51269710  0.47055157  0.10540788  1.0
  O  O130  1  0.51269005  0.02946682  0.60539880  1.0
  O  O131  1  0.48740737  0.52951910  0.89461972  1.0
  O  O132  1  0.35205512  0.88541850  0.44090791  1.0
  O  O133  1  0.64803223  0.38544478  0.05913070  1.0
  O  O134  1  0.64805811  0.11456645  0.55913705  1.0
  O  O135  1  0.35200149  0.61456336  0.94089698  1.0
  O  O136  1  0.56713278  0.64308556  0.04731690  1.0
  O  O137  1  0.43280687  0.14300277  0.45267244  1.0
  O  O138  1  0.43276609  0.35704484  0.95270875  1.0
  O  O139  1  0.56722824  0.85694775  0.54731252  1.0
  O  O140  1  0.70686392  0.55712573  0.00483081  1.0
  O  O141  1  0.29318362  0.05702627  0.49523096  1.0
  O  O142  1  0.29311697  0.44300607  0.99525523  1.0
  O  O143  1  0.70693801  0.94288630  0.50479175  1.0
