# generated using pymatgen
data_ZnH12C14INO4
_symmetry_space_group_name_H-M   'P 1'
_cell_length_a   10.16338479
_cell_length_b   11.34124024
_cell_length_c   17.12882141
_cell_angle_alpha   87.35680461
_cell_angle_beta   74.70784051
_cell_angle_gamma   76.54502473
_symmetry_Int_Tables_number   1
_chemical_formula_structural   ZnH12C14INO4
_chemical_formula_sum   'Zn2 H24 C28 I2 N2 O8'
_cell_volume   1851.93886836
_cell_formula_units_Z   2
loop_
 _symmetry_equiv_pos_site_id
 _symmetry_equiv_pos_as_xyz
  1  'x, y, z'
loop_
 _atom_site_type_symbol
 _atom_site_label
 _atom_site_symmetry_multiplicity
 _atom_site_fract_x
 _atom_site_fract_y
 _atom_site_fract_z
 _atom_site_occupancy
  Zn  Zn0  1  0.87629427  0.50018306  0.47813330  1.0
  Zn  Zn1  1  0.12046172  0.49088945  0.52193999  1.0
  H  H2  1  0.39208464  0.50056342  0.28349802  1.0
  H  H3  1  0.88533581  0.10952940  0.48410171  1.0
  H  H4  1  0.81364609  0.91066413  0.48554991  1.0
  H  H5  1  0.17540075  0.07988573  0.51688854  1.0
  H  H6  1  0.69530997  0.40860373  0.42927499  1.0
  H  H7  1  0.29695183  0.58786821  0.57182625  1.0
  H  H8  1  0.30961853  0.23217094  0.00517854  1.0
  H  H9  1  0.16909069  0.20540457  0.08537071  1.0
  H  H10  1  0.14233840  0.24194132  0.98771690  1.0
  H  H11  1  0.03879656  0.42225631  0.08120985  1.0
  H  H12  1  0.17525366  0.45074023  0.00065990  1.0
  H  H13  1  0.63729553  0.41281426  0.70680102  1.0
  H  H14  1  0.83382226  0.64743009  0.95111330  1.0
  H  H15  1  0.70508273  0.58923102  0.02297483  1.0
  H  H16  1  0.87168397  0.58060203  0.04105253  1.0
  H  H17  1  0.86297617  0.37707572  0.99466198  1.0
  H  H18  1  0.98776002  0.43731710  0.92290731  1.0
  H  H19  1  0.97832390  0.47419563  0.78999477  1.0
  H  H20  1  0.03581152  0.44198951  0.21506010  1.0
  H  H21  1  0.64849187  0.39033661  0.03030137  1.0
  H  H22  1  0.38726325  0.44108184  0.96548146  1.0
  H  H23  1  0.51141256  0.37742795  0.84792477  1.0
  H  H24  1  0.53131079  0.47337629  0.14058233  1.0
  H  H25  1  0.10354125  0.88150206  0.51852650  1.0
  C  C26  1  0.04910221  0.25771144  0.49608336  1.0
  C  C27  1  0.88810667  0.47352520  0.65539250  1.0
  C  C28  1  0.20514916  0.47207663  0.25821742  1.0
  C  C29  1  0.81395957  0.44947426  0.74020052  1.0
  C  C30  1  0.34618861  0.47909491  0.23674001  1.0
  C  C31  1  0.68231773  0.42076035  0.75687973  1.0
  C  C32  1  0.42371186  0.46231721  0.15674850  1.0
  C  C33  1  0.61237611  0.40203671  0.83593023  1.0
  C  C34  1  0.36529097  0.43621398  0.09515637  1.0
  C  C35  1  0.66913895  0.41327910  0.90132642  1.0
  C  C36  1  0.22265583  0.42814321  0.11681054  1.0
  C  C37  1  0.94098882  0.73255674  0.50456820  1.0
  C  C38  1  0.80532851  0.43672066  0.88421338  1.0
  C  C39  1  0.14573341  0.44682869  0.19772281  1.0
  C  C40  1  0.87453419  0.45451874  0.80403700  1.0
  C  C41  1  0.44728860  0.42584441  0.01083323  1.0
  C  C42  1  0.58865611  0.40648468  0.98493646  1.0
  C  C43  1  0.15290232  0.39635704  0.05554830  1.0
  C  C44  1  0.19607739  0.26120212  0.03192960  1.0
  C  C45  1  0.87449251  0.45000643  0.95031429  1.0
  C  C46  1  0.81801396  0.57379862  0.99406824  1.0
  C  C47  1  0.07651442  0.12412957  0.50341442  1.0
  C  C48  1  0.91271316  0.86636401  0.49876078  1.0
  C  C49  1  0.98322055  0.05999763  0.49686461  1.0
  C  C50  1  0.00540353  0.93078634  0.50589511  1.0
  C  C51  1  0.43739456  0.46746940  0.50133433  1.0
  C  C52  1  0.55819344  0.51930957  0.50802112  1.0
  C  C53  1  0.12078952  0.49055119  0.34445271  1.0
  I  I54  1  0.50654716  0.66407277  0.59135181  1.0
  I  I55  1  0.49156935  0.31234733  0.42630158  1.0
  N  N56  1  0.30988398  0.51172878  0.53690650  1.0
  N  N57  1  0.68394746  0.48137332  0.46684216  1.0
  O  O58  1  0.94070811  0.31212090  0.47381471  1.0
  O  O59  1  0.05074513  0.67723101  0.52523535  1.0
  O  O60  1  0.13818796  0.30803677  0.51390674  1.0
  O  O61  1  0.85132119  0.68268523  0.48699862  1.0
  O  O62  1  0.98965930  0.49622440  0.35967785  1.0
  O  O63  1  0.01412445  0.48484978  0.64152244  1.0
  O  O64  1  0.18723194  0.49838357  0.39706709  1.0
  O  O65  1  0.81863848  0.48098816  0.60241628  1.0
