# generated using pymatgen
data_Zn2H18C37S2N2(O5F2)2
_symmetry_space_group_name_H-M   'P 1'
_cell_length_a   12.74735015
_cell_length_b   16.37961532
_cell_length_c   17.71231563
_cell_angle_alpha   95.74301750
_cell_angle_beta   90.37432455
_cell_angle_gamma   92.69774061
_symmetry_Int_Tables_number   1
_chemical_formula_structural   Zn2H18C37S2N2(O5F2)2
_chemical_formula_sum   'Zn2 H18 C37 S2 N2 O10 F4'
_cell_volume   3675.39694912
_cell_formula_units_Z   1
loop_
 _symmetry_equiv_pos_site_id
 _symmetry_equiv_pos_as_xyz
  1  'x, y, z'
loop_
 _atom_site_type_symbol
 _atom_site_label
 _atom_site_symmetry_multiplicity
 _atom_site_fract_x
 _atom_site_fract_y
 _atom_site_fract_z
 _atom_site_occupancy
  Zn  Zn0  1  0.49639733  0.41255730  0.49655137  1.0
  Zn  Zn1  1  0.50418530  0.58603277  0.50120153  1.0
  H  H2  1  0.39213669  0.71200579  0.42918742  1.0
  H  H3  1  0.39333780  0.86423060  0.42933772  1.0
  H  H4  1  0.63761797  0.87919963  0.60308641  1.0
  H  H5  1  0.37998404  0.11950995  0.38488804  1.0
  H  H6  1  0.58169597  0.13603958  0.58517926  1.0
  H  H7  1  0.58462231  0.28822206  0.58426096  1.0
  H  H8  1  0.58177260  0.00427918  0.56427021  1.0
  H  H9  1  0.41703536  0.99525069  0.43528290  1.0
  H  H10  1  0.50482643  0.62107923  0.26147157  1.0
  H  H11  1  0.50361083  0.61398051  0.12125692  1.0
  H  H12  1  0.49523054  0.34861638  0.11219404  1.0
  H  H13  1  0.51031195  0.65430854  0.88673895  1.0
  H  H14  1  0.49246678  0.38884588  0.87655271  1.0
  H  H15  1  0.49389009  0.38244740  0.73639308  1.0
  H  H16  1  0.49566659  0.40696164  0.99674723  1.0
  H  H17  1  0.50465648  0.59552481  0.00169998  1.0
  H  H18  1  0.86632821  0.62760501  0.49823028  1.0
  H  H19  1  0.05084964  0.34128226  0.58670696  1.0
  C  C20  1  0.49990957  0.50116191  0.35185903  1.0
  C  C21  1  0.29588388  0.49784320  0.49821342  1.0
  C  C22  1  0.50210617  0.50308151  0.64648317  1.0
  C  C23  1  0.70503324  0.49771567  0.49814029  1.0
  C  C24  1  0.44476907  0.75254612  0.46629868  1.0
  C  C25  1  0.44652777  0.83709578  0.46700434  1.0
  C  C26  1  0.51664091  0.88630191  0.51646205  1.0
  C  C27  1  0.58153644  0.84582791  0.56335563  1.0
  C  C28  1  0.57356315  0.76061569  0.55804853  1.0
  C  C29  1  0.52540326  0.97570419  0.52171925  1.0
  C  C30  1  0.47184759  0.02375531  0.47893766  1.0
  C  C31  1  0.42719341  0.15306997  0.43025593  1.0
  C  C32  1  0.48042387  0.11320657  0.48430980  1.0
  C  C33  1  0.53903776  0.16277777  0.54104052  1.0
  C  C34  1  0.54147886  0.24727630  0.54131141  1.0
  C  C35  1  0.43552594  0.23837532  0.43514162  1.0
  C  C36  1  0.50013825  0.49131383  0.26684804  1.0
  C  C37  1  0.50243486  0.56185750  0.22730354  1.0
  C  C38  1  0.50185500  0.55738761  0.14883213  1.0
  C  C39  1  0.49907785  0.48047634  0.10480265  1.0
  C  C40  1  0.49715544  0.40954985  0.14341015  1.0
  C  C41  1  0.49785181  0.41545089  0.22218536  1.0
  C  C42  1  0.49851084  0.47068567  0.02218912  1.0
  C  C43  1  0.50150548  0.53184930  0.97614846  1.0
  C  C44  1  0.50629930  0.59351616  0.85522985  1.0
  C  C45  1  0.50130745  0.52235058  0.89355678  1.0
  C  C46  1  0.49668274  0.44561202  0.84922601  1.0
  C  C47  1  0.49742853  0.44155636  0.77076999  1.0
  C  C48  1  0.50221691  0.51234788  0.73151400  1.0
  C  C49  1  0.50656264  0.58797769  0.77649760  1.0
  C  C50  1  0.10821834  0.42810791  0.49658442  1.0
  C  C51  1  0.89157757  0.56508998  0.49805803  1.0
  C  C52  1  0.17950693  0.49493821  0.49585939  1.0
  C  C53  1  0.82106153  0.49849866  0.49800378  1.0
  C  C54  1  0.99621113  0.53988073  0.49773352  1.0
  C  C55  1  0.00337624  0.45427329  0.49794272  1.0
  C  C56  1  0.13221984  0.33942534  0.49497185  1.0
  S  S57  1  0.11926566  0.58791099  0.49637425  1.0
  S  S58  1  0.88059905  0.40498498  0.49707820  1.0
  N  N59  1  0.50829255  0.71403084  0.51154416  1.0
  N  N60  1  0.48994319  0.28525879  0.48863237  1.0
  O  O61  1  0.49151254  0.43637574  0.38560847  1.0
  O  O62  1  0.50770382  0.57452292  0.38405396  1.0
  O  O63  1  0.34138169  0.56737183  0.48950807  1.0
  O  O64  1  0.33931976  0.43190105  0.50943079  1.0
  O  O65  1  0.49125774  0.56736093  0.61298634  1.0
  O  O66  1  0.51210332  0.43078933  0.61416852  1.0
  O  O67  1  0.65811074  0.42683650  0.49413735  1.0
  O  O68  1  0.66299990  0.56687258  0.50217969  1.0
  O  O69  1  0.08622843  0.30081242  0.55273207  1.0
  O  O70  1  0.18151349  0.30033306  0.44689692  1.0
  F  F71  1  0.63574124  0.72135083  0.60221637  1.0
  F  F72  1  0.38720230  0.27695839  0.38320060  1.0
  F  F73  1  0.49697070  0.34338988  0.25396919  1.0
  F  F74  1  0.51252634  0.66031364  0.74491087  1.0
