# generated using pymatgen
data_ZnH4C12SNO6F
_symmetry_space_group_name_H-M   'P 1'
_cell_length_a   7.39747084
_cell_length_b   12.53599422
_cell_length_c   35.02605522
_cell_angle_alpha   89.60444126
_cell_angle_beta   89.76335725
_cell_angle_gamma   89.85640980
_symmetry_Int_Tables_number   1
_chemical_formula_structural   ZnH4C12SNO6F
_chemical_formula_sum   'Zn4 H16 C48 S4 N4 O24 F4'
_cell_volume   3248.01395123
_cell_formula_units_Z   4
loop_
 _symmetry_equiv_pos_site_id
 _symmetry_equiv_pos_as_xyz
  1  'x, y, z'
loop_
 _atom_site_type_symbol
 _atom_site_label
 _atom_site_symmetry_multiplicity
 _atom_site_fract_x
 _atom_site_fract_y
 _atom_site_fract_z
 _atom_site_occupancy
  Zn  Zn0  1  0.71861926  0.99736477  0.49975179  1.0
  Zn  Zn1  1  0.34754467  0.00106263  0.50004870  1.0
  Zn  Zn2  1  0.19059649  0.99690313  0.00020790  1.0
  Zn  Zn3  1  0.56162860  0.99941871  0.99992624  1.0
  H  H4  1  0.72815401  0.98169337  0.87686513  1.0
  H  H5  1  0.70808143  0.97737469  0.80627058  1.0
  H  H6  1  0.12916511  0.01745317  0.81462050  1.0
  H  H7  1  0.78047403  0.01926967  0.68513623  1.0
  H  H8  1  0.20222366  0.97750804  0.69388216  1.0
  H  H9  1  0.18139230  0.98189930  0.62328138  1.0
  H  H10  1  0.24852962  0.99846352  0.75461331  1.0
  H  H11  1  0.66170594  0.99978277  0.74532480  1.0
  H  H12  1  0.72804864  0.01633319  0.12284686  1.0
  H  H13  1  0.70693959  0.01942754  0.19345178  1.0
  H  H14  1  0.12921386  0.97588543  0.18576159  1.0
  H  H15  1  0.77966590  0.97586033  0.31436071  1.0
  H  H16  1  0.20184305  0.02095036  0.30640167  1.0
  H  H17  1  0.18081949  0.01868707  0.37702862  1.0
  H  H18  1  0.24784027  0.99598355  0.24574375  1.0
  H  H19  1  0.66105898  0.99579292  0.25427017  1.0
  C  C20  1  0.59867341  0.79814905  0.49964449  1.0
  C  C21  1  0.45615039  0.00074908  0.57169100  1.0
  C  C22  1  0.61137109  0.19876090  0.49970087  1.0
  C  C23  1  0.45522072  0.99932781  0.42825921  1.0
  C  C24  1  0.31052807  0.79728704  0.00055105  1.0
  C  C25  1  0.45296444  0.00022084  0.92826695  1.0
  C  C26  1  0.29790316  0.19794629  0.99992637  1.0
  C  C27  1  0.45378797  0.99716167  0.07172648  1.0
  C  C28  1  0.44329612  0.00200088  0.88576802  1.0
  C  C29  1  0.59788559  0.99052846  0.86269426  1.0
  C  C30  1  0.58532370  0.98835833  0.82313959  1.0
  C  C31  1  0.41663605  0.99824573  0.80469047  1.0
  C  C32  1  0.26200939  0.00961311  0.82773214  1.0
  C  C33  1  0.27664408  0.01142818  0.86710947  1.0
  C  C34  1  0.39000428  0.99747198  0.76355113  1.0
  C  C35  1  0.52022270  0.99801247  0.73640985  1.0
  C  C36  1  0.64761963  0.01099928  0.67211938  1.0
  C  C37  1  0.49336227  0.99905690  0.69526460  1.0
  C  C38  1  0.32467796  0.98879971  0.67692597  1.0
  C  C39  1  0.31172588  0.99100853  0.63736287  1.0
  C  C40  1  0.46600451  0.00274616  0.61417885  1.0
  C  C41  1  0.63261167  0.01266647  0.63274044  1.0
  C  C42  1  0.44371454  0.99471386  0.11423158  1.0
  C  C43  1  0.59777015  0.00654364  0.13714150  1.0
  C  C44  1  0.58470862  0.00792924  0.17671764  1.0
  C  C45  1  0.41609788  0.99675879  0.19536482  1.0
  C  C46  1  0.26199402  0.98476300  0.17250204  1.0
  C  C47  1  0.27712840  0.98391728  0.13309804  1.0
  C  C48  1  0.38929214  0.99736242  0.23655382  1.0
  C  C49  1  0.51957567  0.99742626  0.26345455  1.0
  C  C50  1  0.64687798  0.98532419  0.32755684  1.0
  C  C51  1  0.49272278  0.99745566  0.30463247  1.0
  C  C52  1  0.32414430  0.00937588  0.32321031  1.0
  C  C53  1  0.31108290  0.00839621  0.36279442  1.0
  C  C54  1  0.46522785  0.99659519  0.38577335  1.0
  C  C55  1  0.63183522  0.98512879  0.36696700  1.0
  C  C56  1  0.75798792  0.38592851  0.49944726  1.0
  C  C57  1  0.45912803  0.61074897  0.49941678  1.0
  C  C58  1  0.61377093  0.31547738  0.49957587  1.0
  C  C59  1  0.60334996  0.68144752  0.49938228  1.0
  C  C60  1  0.51389190  0.50290222  0.49941039  1.0
  C  C61  1  0.70342397  0.49395631  0.49932826  1.0
  C  C62  1  0.15117566  0.38551225  0.00032973  1.0
  C  C63  1  0.45004268  0.60946606  0.00055469  1.0
  C  C64  1  0.29544462  0.31465518  0.00008653  1.0
  C  C65  1  0.30584998  0.68059575  0.00070551  1.0
  C  C66  1  0.39526029  0.50178233  0.00045688  1.0
  C  C67  1  0.20572266  0.49338620  0.00051010  1.0
  S  S68  1  0.40585676  0.38143359  0.49960497  1.0
  S  S69  1  0.81114827  0.61554986  0.49920780  1.0
  S  S70  1  0.50334639  0.38004265  0.00010075  1.0
  S  S71  1  0.09802120  0.61530574  0.00077791  1.0
  N  N72  1  0.10290030  0.02409122  0.88767586  1.0
  N  N73  1  0.80595125  0.02575247  0.61202610  1.0
  N  N74  1  0.10378011  0.97147530  0.11269341  1.0
  N  N75  1  0.80528877  0.97250715  0.38740839  1.0
  O  O76  1  0.75471683  0.84506894  0.49961596  1.0
  O  O77  1  0.44576705  0.84427696  0.49990047  1.0
  O  O78  1  0.30070367  0.00194189  0.55545599  1.0
  O  O79  1  0.60661242  0.99718222  0.55423282  1.0
  O  O80  1  0.45547071  0.15556265  0.49989715  1.0
  O  O81  1  0.76418601  0.14888368  0.49957553  1.0
  O  O82  1  0.60569240  0.99961007  0.44549348  1.0
  O  O83  1  0.29973777  0.00154872  0.44474366  1.0
  O  O84  1  0.15453251  0.84468439  0.00059782  1.0
  O  O85  1  0.46343659  0.84296103  0.00033922  1.0
  O  O86  1  0.60838626  0.00091377  0.94451187  1.0
  O  O87  1  0.30242051  0.99739688  0.94571735  1.0
  O  O88  1  0.45376417  0.15424389  0.99967374  1.0
  O  O89  1  0.14508067  0.14854483  0.00010968  1.0
  O  O90  1  0.30337945  0.99774267  0.05446687  1.0
  O  O91  1  0.60929853  0.99893751  0.05524125  1.0
  O  O92  1  0.05631252  0.11539821  0.89625880  1.0
  O  O93  1  0.01146548  0.94218081  0.89187293  1.0
  O  O94  1  0.85075519  0.11713315  0.60284763  1.0
  O  O95  1  0.89880183  0.94410836  0.60827770  1.0
  O  O96  1  0.05719644  0.88018052  0.10433576  1.0
  O  O97  1  0.01258252  0.05363893  0.10840674  1.0
  O  O98  1  0.85248034  0.88120690  0.39623015  1.0
  O  O99  1  0.89591858  0.05462631  0.39128955  1.0
  F  F100  1  0.93276564  0.35651923  0.49942470  1.0
  F  F101  1  0.28399665  0.63946545  0.49952617  1.0
  F  F102  1  0.97638579  0.35660626  0.00034569  1.0
  F  F103  1  0.62517264  0.63770577  0.00050238  1.0
