# generated using pymatgen
data_ZnH12C13(NO2)2
_symmetry_space_group_name_H-M   'P 1'
_cell_length_a   9.59471715
_cell_length_b   11.00780333
_cell_length_c   11.17892966
_cell_angle_alpha   90.83954073
_cell_angle_beta   92.82055106
_cell_angle_gamma   91.11782732
_symmetry_Int_Tables_number   1
_chemical_formula_structural   ZnH12C13(NO2)2
_chemical_formula_sum   'Zn2 H24 C26 N4 O8'
_cell_volume   1178.88346450
_cell_formula_units_Z   2
loop_
 _symmetry_equiv_pos_site_id
 _symmetry_equiv_pos_as_xyz
  1  'x, y, z'
loop_
 _atom_site_type_symbol
 _atom_site_label
 _atom_site_symmetry_multiplicity
 _atom_site_fract_x
 _atom_site_fract_y
 _atom_site_fract_z
 _atom_site_occupancy
  Zn  Zn0  1  0.63698873  0.50620407  0.50550601  1.0
  Zn  Zn1  1  0.35384536  0.50670219  0.49196792  1.0
  H  H2  1  0.77328817  0.34808431  0.90007642  1.0
  H  H3  1  0.84845805  0.59446816  0.34192537  1.0
  H  H4  1  0.25273931  0.56396655  0.19200952  1.0
  H  H5  1  0.16740230  0.56269412  0.05276935  1.0
  H  H6  1  0.26992463  0.59558904  0.77631116  1.0
  H  H7  1  0.21578016  0.66515838  0.90354095  1.0
  H  H8  1  0.85041349  0.25089395  0.29103952  1.0
  H  H9  1  0.87944954  0.10183428  0.34261633  1.0
  H  H10  1  0.82326580  0.21601587  0.44295696  1.0
  H  H11  1  0.65099359  0.10149374  0.22984376  1.0
  H  H12  1  0.60306990  0.23454632  0.30386037  1.0
  H  H13  1  0.83918898  0.50326100  0.12796421  1.0
  H  H14  1  0.87876245  0.94674737  0.43498500  1.0
  H  H15  1  0.90692147  0.82293445  0.33654271  1.0
  H  H16  1  0.82164737  0.79886125  0.47323294  1.0
  H  H17  1  0.64585418  0.79133596  0.30436851  1.0
  H  H18  1  0.70566624  0.93217227  0.25192941  1.0
  H  H19  1  0.84161855  0.50048736  0.90309795  1.0
  H  H20  1  0.77116607  0.35133729  0.12410784  1.0
  H  H21  1  0.33479723  0.88875640  0.60819112  1.0
  H  H22  1  0.33068910  0.11654967  0.61169315  1.0
  H  H23  1  0.14051089  0.40900737  0.65575232  1.0
  H  H24  1  0.11534910  0.60278865  0.33979535  1.0
  H  H25  1  0.87372062  0.41257239  0.66414139  1.0
  C  C26  1  0.49373991  0.74470611  0.49074954  1.0
  C  C27  1  0.61689242  0.48653065  0.94239255  1.0
  C  C28  1  0.49651234  0.51860750  0.12795384  1.0
  C  C29  1  0.50180855  0.51828196  0.86807042  1.0
  C  C30  1  0.37809407  0.55216698  0.05536128  1.0
  C  C31  1  0.38171775  0.55467872  0.92726313  1.0
  C  C32  1  0.76404601  0.43903273  0.94083634  1.0
  C  C33  1  0.76224770  0.44084492  0.08229353  1.0
  C  C34  1  0.40456175  0.94197521  0.55442619  1.0
  C  C35  1  0.40145803  0.06775775  0.55563703  1.0
  C  C36  1  0.48974403  0.13352341  0.48343339  1.0
  C  C37  1  0.48651569  0.26935400  0.49289123  1.0
  C  C38  1  0.49871900  0.88086028  0.48419759  1.0
  C  C39  1  0.58065291  0.07425675  0.40693042  1.0
  C  C40  1  0.58872033  0.94577191  0.41013607  1.0
  C  C41  1  0.65823238  0.14907236  0.31730739  1.0
  C  C42  1  0.81203523  0.18050172  0.35071806  1.0
  C  C43  1  0.69020813  0.88025344  0.33357729  1.0
  C  C44  1  0.83299732  0.86106966  0.39856888  1.0
  C  C45  1  0.07414449  0.45100700  0.58672893  1.0
  C  C46  1  0.06026135  0.55757041  0.41008115  1.0
  C  C47  1  0.92932789  0.45214721  0.59093542  1.0
  C  C48  1  0.91546100  0.55550570  0.41226627  1.0
  C  C49  1  0.49600726  0.51014199  0.26020515  1.0
  C  C50  1  0.50784986  0.51369462  0.73590865  1.0
  C  C51  1  0.61512193  0.48802704  0.06613472  1.0
  N  N52  1  0.85176424  0.50390486  0.50330452  1.0
  N  N53  1  0.13815071  0.50457743  0.49664799  1.0
  N  N54  1  0.25443297  0.58725809  0.10390126  1.0
  N  N55  1  0.25919959  0.59064201  0.86645524  1.0
  O  O56  1  0.60889225  0.68826197  0.49406881  1.0
  O  O57  1  0.60421722  0.32429235  0.50957229  1.0
  O  O58  1  0.37332920  0.69446439  0.49500226  1.0
  O  O59  1  0.36816347  0.32003350  0.48682573  1.0
  O  O60  1  0.61288993  0.49691468  0.31725359  1.0
  O  O61  1  0.62716919  0.51177217  0.69100700  1.0
  O  O62  1  0.37823264  0.51517895  0.31072586  1.0
  O  O63  1  0.39091817  0.51113317  0.67401955  1.0
