# generated using pymatgen
data_ZnH4C8O5
_symmetry_space_group_name_H-M   'P 1'
_cell_length_a   11.82774814
_cell_length_b   15.54264430
_cell_length_c   15.98321836
_cell_angle_alpha   78.69092794
_cell_angle_beta   89.99967992
_cell_angle_gamma   89.99910262
_symmetry_Int_Tables_number   1
_chemical_formula_structural   ZnH4C8O5
_chemical_formula_sum   'Zn8 H32 C64 O40'
_cell_volume   2881.21617063
_cell_formula_units_Z   8
loop_
 _symmetry_equiv_pos_site_id
 _symmetry_equiv_pos_as_xyz
  1  'x, y, z'
loop_
 _atom_site_type_symbol
 _atom_site_label
 _atom_site_symmetry_multiplicity
 _atom_site_fract_x
 _atom_site_fract_y
 _atom_site_fract_z
 _atom_site_occupancy
  Zn  Zn0  1  0.48515939  0.15255152  0.28300085  1.0
  Zn  Zn1  1  0.53923012  0.66519317  0.59665802  1.0
  Zn  Zn2  1  0.98515599  0.84746302  0.21699942  1.0
  Zn  Zn3  1  0.03923269  0.33481301  0.90333877  1.0
  Zn  Zn4  1  0.51485398  0.84744209  0.71700255  1.0
  Zn  Zn5  1  0.46075873  0.33480234  0.40334288  1.0
  Zn  Zn6  1  0.01484385  0.15254032  0.78300633  1.0
  Zn  Zn7  1  0.96076207  0.66519222  0.09666191  1.0
  H  H8  1  0.68238110  0.48015492  0.26137455  1.0
  H  H9  1  0.95671395  0.49168019  0.08065000  1.0
  H  H10  1  0.74347528  0.26413506  0.13310413  1.0
  H  H11  1  0.68233139  0.91965739  0.24225143  1.0
  H  H12  1  0.74820651  0.69361370  0.44109071  1.0
  H  H13  1  0.57536289  0.91910481  0.50025282  1.0
  H  H14  1  0.80822499  0.61060119  0.21947185  1.0
  H  H15  1  0.32649115  0.20967729  0.38777250  1.0
  H  H16  1  0.18237353  0.51984957  0.23862364  1.0
  H  H17  1  0.45671402  0.50830870  0.41935459  1.0
  H  H18  1  0.24348520  0.73587339  0.36689172  1.0
  H  H19  1  0.18230826  0.08037372  0.25775112  1.0
  H  H20  1  0.24820801  0.30638838  0.05888613  1.0
  H  H21  1  0.07533091  0.08089354  0.99975746  1.0
  H  H22  1  0.30822506  0.38939845  0.28052623  1.0
  H  H23  1  0.82648826  0.79031859  0.11223168  1.0
  H  H24  1  0.31762465  0.51984586  0.73862851  1.0
  H  H25  1  0.04328673  0.50831693  0.91935484  1.0
  H  H26  1  0.25651610  0.73586569  0.86689378  1.0
  H  H27  1  0.31767859  0.08034340  0.75775421  1.0
  H  H28  1  0.25180009  0.30637123  0.55889556  1.0
  H  H29  1  0.42465216  0.08087370  0.49975702  1.0
  H  H30  1  0.19177316  0.38940292  0.78052813  1.0
  H  H31  1  0.67351884  0.79030960  0.61222416  1.0
  H  H32  1  0.81763645  0.48015622  0.76136160  1.0
  H  H33  1  0.54329258  0.49169314  0.58063628  1.0
  H  H34  1  0.75651463  0.26413214  0.63310511  1.0
  H  H35  1  0.81768482  0.91964523  0.74225401  1.0
  H  H36  1  0.75179774  0.69361153  0.94110208  1.0
  H  H37  1  0.92461736  0.91911448  0.00026073  1.0
  H  H38  1  0.69178661  0.61060483  0.71946663  1.0
  H  H39  1  0.17350566  0.20967963  0.88776869  1.0
  C  C40  1  0.61168629  0.31702730  0.25204193  1.0
  C  C41  1  0.70533339  0.36701144  0.20275129  1.0
  C  C42  1  0.73209720  0.45134565  0.21644704  1.0
  C  C43  1  0.82187632  0.49646074  0.17129925  1.0
  C  C44  1  0.88627062  0.45710050  0.11602347  1.0
  C  C45  1  0.85793592  0.37386872  0.10206781  1.0
  C  C46  1  0.92285435  0.33711194  0.03696053  1.0
  C  C47  1  0.76637116  0.32854620  0.14477369  1.0
  C  C48  1  0.56699926  0.01292161  0.33735339  1.0
  C  C49  1  0.62418475  0.92759169  0.36822199  1.0
  C  C50  1  0.67866759  0.88665172  0.30886139  1.0
  C  C51  1  0.72394642  0.80259006  0.33490907  1.0
  C  C52  1  0.77517252  0.75689309  0.27017989  1.0
  C  C53  1  0.71628875  0.76015175  0.42059020  1.0
  C  C54  1  0.66708416  0.80401660  0.47951985  1.0
  C  C55  1  0.61948115  0.88719063  0.45467986  1.0
  C  C56  1  0.11169317  0.68298479  0.24794887  1.0
  C  C57  1  0.20533446  0.63299380  0.29724735  1.0
  C  C58  1  0.23209057  0.54866397  0.28355540  1.0
  C  C59  1  0.32187141  0.50353617  0.32870631  1.0
  C  C60  1  0.38626494  0.54288867  0.38397471  1.0
  C  C61  1  0.35793627  0.62613656  0.39794034  1.0
  C  C62  1  0.42286419  0.66287205  0.46304030  1.0
  C  C63  1  0.26638503  0.67145079  0.35523046  1.0
  C  C64  1  0.06697180  0.98710019  0.16265371  1.0
  C  C65  1  0.12415973  0.07243030  0.13178007  1.0
  C  C66  1  0.17864776  0.11336685  0.19114001  1.0
  C  C67  1  0.22394323  0.19741771  0.16508049  1.0
  C  C68  1  0.27517197  0.24311483  0.22980790  1.0
  C  C69  1  0.21628606  0.23985233  0.07940185  1.0
  C  C70  1  0.16707125  0.19598667  0.02047392  1.0
  C  C71  1  0.11945241  0.11281899  0.04531784  1.0
  C  C72  1  0.38831440  0.68297728  0.74795614  1.0
  C  C73  1  0.29467237  0.63299315  0.79724936  1.0
  C  C74  1  0.26790772  0.54865720  0.78355546  1.0
  C  C75  1  0.17812859  0.50353862  0.82870697  1.0
  C  C76  1  0.11373260  0.54289677  0.88397815  1.0
  C  C77  1  0.14205631  0.62613397  0.89793533  1.0
  C  C78  1  0.07714549  0.66288596  0.96304112  1.0
  C  C79  1  0.23361515  0.67145300  0.85523059  1.0
  C  C80  1  0.43301918  0.98707456  0.66265270  1.0
  C  C81  1  0.37582693  0.07240383  0.63178149  1.0
  C  C82  1  0.32134239  0.11334540  0.69114345  1.0
  C  C83  1  0.27605173  0.19740176  0.66508587  1.0
  C  C84  1  0.22482986  0.24310252  0.72980749  1.0
  C  C85  1  0.28371447  0.23983165  0.57941018  1.0
  C  C86  1  0.33292921  0.19596459  0.52048430  1.0
  C  C87  1  0.38053222  0.11279819  0.54531946  1.0
  C  C88  1  0.88831259  0.31702150  0.75204219  1.0
  C  C89  1  0.79467467  0.36701009  0.70274038  1.0
  C  C90  1  0.76791942  0.45134680  0.71643843  1.0
  C  C91  1  0.67814196  0.49646232  0.67128506  1.0
  C  C92  1  0.61374166  0.45711508  0.61601624  1.0
  C  C93  1  0.64206780  0.37387312  0.60205794  1.0
  C  C94  1  0.57713903  0.33711869  0.53696168  1.0
  C  C95  1  0.73362158  0.32854694  0.64476667  1.0
  C  C96  1  0.93300352  0.01291975  0.83735790  1.0
  C  C97  1  0.87581305  0.92759311  0.86822525  1.0
  C  C98  1  0.82133771  0.88664636  0.80886487  1.0
  C  C99  1  0.77605238  0.80258668  0.83491307  1.0
  C  C100  1  0.72483633  0.75688891  0.77018047  1.0
  C  C101  1  0.78371293  0.76015144  0.92059425  1.0
  C  C102  1  0.83291168  0.80402206  0.97952562  1.0
  C  C103  1  0.88050684  0.88719804  0.95468463  1.0
  O  O104  1  0.57558319  0.34505301  0.31652218  1.0
  O  O105  1  0.57588258  0.24899447  0.22609227  1.0
  O  O106  1  0.85128557  0.58084264  0.17782040  1.0
  O  O107  1  0.00728744  0.38588788  0.00176474  1.0
  O  O108  1  0.89647090  0.26699936  0.01479485  1.0
  O  O109  1  0.53606182  0.06184606  0.38941898  1.0
  O  O110  1  0.54811268  0.03834674  0.25707470  1.0
  O  O111  1  0.82818798  0.80836764  0.20594700  1.0
  O  O112  1  0.76461305  0.67609136  0.27714857  1.0
  O  O113  1  0.66077165  0.75775080  0.56358011  1.0
  O  O114  1  0.07559317  0.65495696  0.18347209  1.0
  O  O115  1  0.07589998  0.75102458  0.27390174  1.0
  O  O116  1  0.35127640  0.41915032  0.32218857  1.0
  O  O117  1  0.50729318  0.61410532  0.49822688  1.0
  O  O118  1  0.39646161  0.73299928  0.48521910  1.0
  O  O119  1  0.03601918  0.93817515  0.11059547  1.0
  O  O120  1  0.04810479  0.96166313  0.24294044  1.0
  O  O121  1  0.32819022  0.19164198  0.29404037  1.0
  O  O122  1  0.26462259  0.32391893  0.22283556  1.0
  O  O123  1  0.16075856  0.24224101  0.93641104  1.0
  O  O124  1  0.42441580  0.65494473  0.68347753  1.0
  O  O125  1  0.42410711  0.75101300  0.77390979  1.0
  O  O126  1  0.14871596  0.41915099  0.82218815  1.0
  O  O127  1  0.99270733  0.61410475  0.99823217  1.0
  O  O128  1  0.10353571  0.73300476  0.98520771  1.0
  O  O129  1  0.46396169  0.93814825  0.61059733  1.0
  O  O130  1  0.45189731  0.96164101  0.74293424  1.0
  O  O131  1  0.17181017  0.19163390  0.79405030  1.0
  O  O132  1  0.23537495  0.32390283  0.72284197  1.0
  O  O133  1  0.33924003  0.24222606  0.43641806  1.0
  O  O134  1  0.92441174  0.34504711  0.81652016  1.0
  O  O135  1  0.92411000  0.24898014  0.72609311  1.0
  O  O136  1  0.64872598  0.58085122  0.67780615  1.0
  O  O137  1  0.49270581  0.38588904  0.50176560  1.0
  O  O138  1  0.60353231  0.26699290  0.51478488  1.0
  O  O139  1  0.96393416  0.06183719  0.88942612  1.0
  O  O140  1  0.95188829  0.03833548  0.75707413  1.0
  O  O141  1  0.67181892  0.80836669  0.70594886  1.0
  O  O142  1  0.73540176  0.67607910  0.77716030  1.0
  O  O143  1  0.83922521  0.75775087  0.06359679  1.0
