# generated using pymatgen
data_Cu4H12C21N20
_symmetry_space_group_name_H-M   'P 1'
_cell_length_a   22.85134948
_cell_length_b   23.12315676
_cell_length_c   23.22339421
_cell_angle_alpha   89.74960054
_cell_angle_beta   89.65671356
_cell_angle_gamma   90.70187334
_symmetry_Int_Tables_number   1
_chemical_formula_structural   Cu4H12C21N20
_chemical_formula_sum   'Cu12 H36 C63 N60'
_cell_volume   12269.87108182
_cell_formula_units_Z   3
loop_
 _symmetry_equiv_pos_site_id
 _symmetry_equiv_pos_as_xyz
  1  'x, y, z'
loop_
 _atom_site_type_symbol
 _atom_site_label
 _atom_site_symmetry_multiplicity
 _atom_site_fract_x
 _atom_site_fract_y
 _atom_site_fract_z
 _atom_site_occupancy
  Cu  Cu0  1  0.81672266  0.86841275  0.21680942  1.0
  Cu  Cu1  1  0.91919245  0.77618342  0.22419359  1.0
  Cu  Cu2  1  0.81157449  0.75621288  0.14109335  1.0
  Cu  Cu3  1  0.74019485  0.12493735  0.79045150  1.0
  Cu  Cu4  1  0.84013673  0.22355334  0.78454236  1.0
  Cu  Cu5  1  0.75062548  0.22201241  0.88724188  1.0
  Cu  Cu6  1  0.20714860  0.12980245  0.22433391  1.0
  Cu  Cu7  1  0.12443158  0.23381187  0.19850897  1.0
  Cu  Cu8  1  0.22533923  0.19961357  0.10733589  1.0
  Cu  Cu9  1  0.21603426  0.90255294  0.78848619  1.0
  Cu  Cu10  1  0.11474927  0.81100566  0.76686085  1.0
  Cu  Cu11  1  0.22970741  0.77246681  0.83030076  1.0
  H  H12  1  0.85509891  0.95445848  0.31553661  1.0
  H  H13  1  0.98441581  0.82060391  0.33689643  1.0
  H  H14  1  0.68026772  0.76360159  0.09390770  1.0
  H  H15  1  0.70073077  0.93125597  0.17447510  1.0
  H  H16  1  0.00713982  0.67994959  0.17700452  1.0
  H  H17  1  0.85933084  0.65538325  0.06322048  1.0
  H  H18  1  0.76867077  0.05655259  0.67467356  1.0
  H  H19  1  0.90684217  0.18662012  0.67231881  1.0
  H  H20  1  0.65881207  0.17490012  0.97829402  1.0
  H  H21  1  0.64556195  0.04048894  0.84934168  1.0
  H  H22  1  0.92493598  0.32734634  0.82231919  1.0
  H  H23  1  0.79445949  0.33194642  0.95844170  1.0
  H  H24  1  0.15397291  0.08295960  0.34111740  1.0
  H  H25  1  0.03540196  0.22375998  0.30686238  1.0
  H  H26  1  0.32978007  0.12844325  0.05123522  1.0
  H  H27  1  0.30464163  0.03440021  0.21150786  1.0
  H  H28  1  0.07043568  0.34016341  0.13574372  1.0
  H  H29  1  0.20393843  0.29606266  0.01072618  1.0
  H  H30  1  0.17968132  0.00218746  0.69987592  1.0
  H  H31  1  0.04040921  0.87633110  0.67345403  1.0
  H  H32  1  0.35732342  0.77938468  0.88489410  1.0
  H  H33  1  0.32009460  0.96093519  0.85976854  1.0
  H  H34  1  0.02957866  0.70457886  0.79761957  1.0
  H  H35  1  0.19053507  0.64874393  0.87717009  1.0
  H  H36  1  0.90702117  0.01331715  0.41370647  1.0
  H  H37  1  0.96088172  0.12672150  0.58081011  1.0
  H  H38  1  0.08461081  0.04802202  0.43320039  1.0
  H  H39  1  0.99218867  0.94943977  0.59003901  1.0
  H  H40  1  0.61033242  0.96796497  0.08791264  1.0
  H  H41  1  0.37932709  0.94148742  0.99787795  1.0
  H  H42  1  0.56085491  0.98108133  0.92706348  1.0
  H  H43  1  0.42753813  0.05463903  0.02739973  1.0
  H  H44  1  0.92822299  0.57937127  0.99642076  1.0
  H  H45  1  0.02651887  0.42007425  0.06199615  1.0
  H  H46  1  0.11862172  0.56280885  0.94019890  1.0
  H  H47  1  0.98760658  0.41956659  0.88239287  1.0
  C  C48  1  0.88315094  0.91704132  0.31259345  1.0
  C  C49  1  0.92974215  0.90019440  0.34769036  1.0
  C  C50  1  0.94910608  0.84832324  0.32328862  1.0
  C  C51  1  0.69482156  0.80169542  0.11712273  1.0
  C  C52  1  0.66625076  0.85449403  0.12487318  1.0
  C  C53  1  0.70529233  0.88779653  0.15772768  1.0
  C  C54  1  0.96591708  0.68153817  0.15418278  1.0
  C  C55  1  0.94705674  0.64894572  0.10677606  1.0
  C  C56  1  0.89050601  0.66894697  0.09569027  1.0
  C  C57  1  0.79821430  0.09266583  0.68257211  1.0
  C  C58  1  0.84807681  0.11046003  0.65132857  1.0
  C  C59  1  0.86909055  0.15897877  0.68117238  1.0
  C  C60  1  0.66238288  0.14752251  0.94066751  1.0
  C  C61  1  0.63477004  0.09420738  0.92965405  1.0
  C  C62  1  0.65528010  0.07857687  0.87487604  1.0
  C  C63  1  0.88805497  0.32071897  0.85135948  1.0
  C  C64  1  0.87282943  0.35028935  0.90180125  1.0
  C  C65  1  0.82105556  0.32283564  0.92080858  1.0
  C  C66  1  0.13049396  0.11996418  0.32461849  1.0
  C  C67  1  0.08007486  0.14676830  0.34585169  1.0
  C  C68  1  0.07002459  0.19209762  0.30686709  1.0
  C  C69  1  0.31622087  0.11174050  0.09304051  1.0
  C  C70  1  0.33714791  0.06449441  0.12468553  1.0
  C  C71  1  0.30304394  0.06385757  0.17512104  1.0
  C  C72  1  0.10584811  0.32149006  0.11096125  1.0
  C  C73  1  0.12903237  0.33810336  0.05722219  1.0
  C  C74  1  0.17433217  0.29892933  0.04724781  1.0
  C  C75  1  0.14949781  0.96563411  0.70113680  1.0
  C  C76  1  0.09963651  0.95505572  0.66762031  1.0
  C  C77  1  0.07806032  0.90148463  0.68750770  1.0
  C  C78  1  0.33955814  0.82114240  0.87340978  1.0
  C  C79  1  0.36060602  0.87670184  0.88645640  1.0
  C  C80  1  0.32010549  0.91401154  0.86123899  1.0
  C  C81  1  0.07385620  0.69951983  0.81324469  1.0
  C  C82  1  0.09714243  0.65468396  0.84663495  1.0
  C  C83  1  0.15596181  0.67076961  0.85432272  1.0
  C  C84  1  0.01632338  0.49781113  0.97083931  1.0
  C  C85  1  0.98576559  0.03593977  0.50473592  1.0
  C  C86  1  0.49972190  0.95568384  0.03290220  1.0
  C  C87  1  0.95351344  0.92875689  0.39774021  1.0
  C  C88  1  0.93908615  0.98065073  0.42331637  1.0
  C  C89  1  0.87455462  0.08223303  0.60244332  1.0
  C  C90  1  0.92741913  0.09372028  0.57522238  1.0
  C  C91  1  0.04489273  0.12864119  0.39477771  1.0
  C  C92  1  0.05190891  0.08137075  0.43058821  1.0
  C  C93  1  0.07736831  0.98947434  0.62069269  1.0
  C  C94  1  0.02740225  0.98113197  0.58834655  1.0
  C  C95  1  0.61047594  0.87102516  0.10099077  1.0
  C  C96  1  0.59109693  0.92508387  0.08513102  1.0
  C  C97  1  0.41164897  0.89268969  0.92036402  1.0
  C  C98  1  0.41347502  0.92385553  0.97096428  1.0
  C  C99  1  0.59553203  0.06345076  0.96837951  1.0
  C  C100  1  0.56426450  0.01230705  0.96149387  1.0
  C  C101  1  0.38319217  0.02482749  0.10976856  1.0
  C  C102  1  0.42110265  0.02516385  0.06323102  1.0
  C  C103  1  0.97827159  0.60412408  0.07673989  1.0
  C  C104  1  0.96403105  0.57560191  0.02639678  1.0
  C  C105  1  0.10911054  0.38512177  0.02141479  1.0
  C  C106  1  0.06059206  0.41929809  0.02946747  1.0
  C  C107  1  0.06514296  0.60583104  0.87065055  1.0
  C  C108  1  0.07985791  0.56787134  0.91422756  1.0
  C  C109  1  0.90337903  0.39723544  0.93006761  1.0
  C  C110  1  0.95593381  0.42462681  0.91680064  1.0
  N  N111  1  0.91631998  0.83540268  0.27700761  1.0
  N  N112  1  0.87534593  0.87793366  0.27035712  1.0
  N  N113  1  0.75373522  0.85698339  0.16866983  1.0
  N  N114  1  0.74730796  0.80370330  0.14325178  1.0
  N  N115  1  0.87670921  0.71048963  0.13373485  1.0
  N  N116  1  0.92348879  0.71837496  0.16991922  1.0
  N  N117  1  0.83436545  0.16916909  0.72701404  1.0
  N  N118  1  0.79043898  0.12800956  0.72793719  1.0
  N  N119  1  0.69263608  0.11969588  0.85486583  1.0
  N  N120  1  0.69694742  0.16236865  0.89571609  1.0
  N  N121  1  0.80671200  0.27995417  0.88427565  1.0
  N  N122  1  0.84814464  0.27863584  0.84118448  1.0
  N  N123  1  0.11154137  0.19195067  0.26534049  1.0
  N  N124  1  0.14897295  0.14725043  0.27640483  1.0
  N  N125  1  0.26472249  0.10762236  0.17347631  1.0
  N  N126  1  0.27276192  0.13732514  0.12260545  1.0
  N  N127  1  0.17762053  0.26162172  0.09195852  1.0
  N  N128  1  0.13512551  0.27570233  0.13144934  1.0
  N  N129  1  0.11271803  0.88152577  0.72968169  1.0
  N  N130  1  0.15695691  0.92133990  0.73822274  1.0
  N  N131  1  0.27780307  0.88282583  0.83510824  1.0
  N  N132  1  0.28966086  0.82517465  0.84297938  1.0
  N  N133  1  0.16682790  0.72165743  0.82751665  1.0
  N  N134  1  0.11583265  0.73950905  0.80225195  1.0
  N  N135  1  0.01266171  0.93848622  0.47146829  1.0
  N  N136  1  0.99848520  0.90486424  0.42901376  1.0
  N  N137  1  0.97577551  0.98488452  0.46918672  1.0
  N  N138  1  0.88471530  0.01432458  0.53726184  1.0
  N  N139  1  0.85013027  0.03368599  0.57721223  1.0
  N  N140  1  0.93208901  0.05143299  0.53485830  1.0
  N  N141  1  0.96988914  0.12901489  0.45457169  1.0
  N  N142  1  0.99444306  0.15641848  0.41158683  1.0
  N  N143  1  0.00537266  0.08321525  0.46737780  1.0
  N  N144  1  0.07896620  0.05793917  0.55466281  1.0
  N  N145  1  0.10706922  0.03698910  0.59846797  1.0
  N  N146  1  0.03027641  0.02346048  0.54753443  1.0
  N  N147  1  0.52391841  0.85665916  0.06241834  1.0
  N  N148  1  0.56770507  0.83096064  0.08635205  1.0
  N  N149  1  0.53757202  0.91461488  0.06120973  1.0
  N  N150  1  0.50430937  0.89859448  0.94396584  1.0
  N  N151  1  0.46820970  0.87822764  0.90577202  1.0
  N  N152  1  0.47140491  0.92698503  0.98423572  1.0
  N  N153  1  0.54786838  0.04933826  0.04981936  1.0
  N  N154  1  0.58395029  0.08410091  0.02294609  1.0
  N  N155  1  0.53463842  0.00531893  0.01234509  1.0
  N  N156  1  0.43944115  0.94900132  0.12107435  1.0
  N  N157  1  0.39643281  0.97749312  0.14374726  1.0
  N  N158  1  0.45529370  0.97786630  0.07173128  1.0
  N  N159  1  0.04755227  0.54044225  0.06315380  1.0
  N  N160  1  0.02965605  0.58112499  0.09717554  1.0
  N  N161  1  0.00693431  0.53578995  0.01992749  1.0
  N  N162  1  0.10919934  0.44681656  0.94905802  1.0
  N  N163  1  0.13725161  0.40371139  0.97179996  1.0
  N  N164  1  0.06245340  0.45730159  0.98468523  1.0
  N  N165  1  0.98811776  0.54924680  0.88348300  1.0
  N  N166  1  0.00889174  0.59216481  0.85322622  1.0
  N  N167  1  0.03186238  0.53256726  0.92036455  1.0
  N  N168  1  0.91761089  0.46165818  0.99804659  1.0
  N  N169  1  0.88180420  0.42172351  0.97988220  1.0
  N  N170  1  0.96291040  0.46465334  0.95915507  1.0
