# generated using pymatgen
data_Zn2H17C36Br2N10Cl3
_symmetry_space_group_name_H-M   'P 1'
_cell_length_a   19.95092753
_cell_length_b   20.48761407
_cell_length_c   21.37342283
_cell_angle_alpha   107.00923880
_cell_angle_beta   108.33202411
_cell_angle_gamma   110.72740856
_symmetry_Int_Tables_number   1
_chemical_formula_structural   Zn2H17C36Br2N10Cl3
_chemical_formula_sum   'Zn4 H34 C72 Br4 N20 Cl6'
_cell_volume   6907.31303091
_cell_formula_units_Z   2
loop_
 _symmetry_equiv_pos_site_id
 _symmetry_equiv_pos_as_xyz
  1  'x, y, z'
loop_
 _atom_site_type_symbol
 _atom_site_label
 _atom_site_symmetry_multiplicity
 _atom_site_fract_x
 _atom_site_fract_y
 _atom_site_fract_z
 _atom_site_occupancy
  Zn  Zn0  1  0.37030474  0.38169948  0.48316604  1.0
  Zn  Zn1  1  0.60003734  0.60768435  0.51658944  1.0
  Zn  Zn2  1  0.39803320  0.49430032  0.38560341  1.0
  Zn  Zn3  1  0.57641338  0.49821941  0.60796031  1.0
  H  H4  1  0.29199143  0.21689450  0.34211268  1.0
  H  H5  1  0.34816209  0.91146019  0.52685076  1.0
  H  H6  1  0.71583023  0.56893018  0.46631326  1.0
  H  H7  1  0.44388394  0.06249733  0.64937350  1.0
  H  H8  1  0.57584165  0.03348852  0.69049949  1.0
  H  H9  1  0.62887525  0.09720552  0.60273172  1.0
  H  H10  1  0.01010796  0.49159245  0.61655684  1.0
  H  H11  1  0.16555739  0.62709688  0.70485727  1.0
  H  H12  1  0.12374255  0.69863987  0.54855179  1.0
  H  H13  1  0.96768598  0.56304943  0.45940709  1.0
  H  H14  1  0.40412780  0.58528841  0.21036075  1.0
  H  H15  1  0.56750304  0.72886528  0.61496616  1.0
  H  H16  1  0.42477379  0.48075319  0.24846569  1.0
  H  H17  1  0.32030359  0.47680658  0.87118250  1.0
  H  H18  1  0.32091161  0.43456290  0.74988012  1.0
  H  H19  1  0.65736487  0.66994552  0.27029617  1.0
  H  H20  1  0.54682037  0.68708241  0.96539417  1.0
  H  H21  1  0.63265494  0.68986595  0.15723511  1.0
  H  H22  1  0.54771248  0.64706987  0.84457104  1.0
  H  H23  1  0.86545989  0.74896828  0.87289377  1.0
  H  H24  1  0.61668545  0.35924266  0.58553228  1.0
  H  H25  1  0.90879691  0.81280591  0.70777532  1.0
  H  H26  1  0.27908046  0.56278167  0.42096471  1.0
  H  H27  1  0.15097420  0.09302438  0.00533062  1.0
  H  H28  1  0.21958064  0.22001078  0.11868079  1.0
  H  H29  1  0.76151132  0.50794226  0.64752998  1.0
  H  H30  1  0.34730264  0.35312424  0.22654426  1.0
  H  H31  1  0.33080565  0.38959073  0.64145672  1.0
  H  H32  1  0.77393176  0.76635167  0.64170515  1.0
  H  H33  1  0.31736534  0.48072320  0.58686396  1.0
  H  H34  1  0.56533499  0.59692127  0.74367727  1.0
  H  H35  1  0.38635391  0.66573961  0.39870853  1.0
  H  H36  1  0.40082102  0.97514517  0.43855029  1.0
  H  H37  1  0.53330742  0.94582343  0.47986435  1.0
  C  C38  1  0.30886439  0.26183717  0.32419111  1.0
  C  C39  1  0.31321433  0.49291098  0.54022092  1.0
  C  C40  1  0.50899029  0.54186383  0.70875613  1.0
  C  C41  1  0.71369299  0.55123212  0.50912222  1.0
  C  C42  1  0.43035357  0.66856685  0.44637102  1.0
  C  C43  1  0.44357112  0.50735395  0.72170900  1.0
  C  C44  1  0.47545418  0.72816690  0.52028074  1.0
  C  C45  1  0.28267572  0.53882364  0.51785652  1.0
  C  C46  1  0.78853785  0.72556861  0.72995107  1.0
  C  C47  1  0.51337095  0.97268400  0.51720239  1.0
  C  C48  1  0.43960725  0.98711830  0.49434292  1.0
  C  C49  1  0.77293466  0.54457833  0.55980867  1.0
  C  C50  1  0.49683025  0.19586170  0.54630950  1.0
  C  C51  1  0.47749817  0.80080116  0.54601307  1.0
  C  C52  1  0.56643908  0.05529999  0.58566951  1.0
  C  C53  1  0.48022032  0.52766915  0.29791999  1.0
  C  C54  1  0.49303835  0.07212013  0.56244247  1.0
  C  C55  1  0.53707510  0.02074779  0.63436788  1.0
  C  C56  1  0.48389817  0.93606929  0.56585769  1.0
  C  C57  1  0.46364580  0.03608122  0.61157271  1.0
  C  C58  1  0.41048378  0.95309766  0.54329904  1.0
  C  C59  1  0.49635713  0.14011027  0.55648258  1.0
  C  C60  1  0.53777644  0.59712866  0.30481526  1.0
  C  C61  1  0.47950052  0.86393259  0.56060992  1.0
  C  C62  1  0.04856053  0.52546623  0.53169250  1.0
  C  C63  1  0.03560674  0.53758834  0.60145752  1.0
  C  C64  1  0.85113742  0.56123873  0.56907711  1.0
  C  C65  1  0.55129654  0.33394154  0.55677705  1.0
  C  C66  1  0.24266256  0.57295102  0.54734119  1.0
  C  C67  1  0.01216114  0.57750488  0.51383829  1.0
  C  C68  1  0.99533170  0.58818665  0.58275871  1.0
  C  C69  1  0.09784150  0.65200319  0.56281262  1.0
  C  C70  1  0.13716878  0.60050166  0.58042505  1.0
  C  C71  1  0.49070757  0.25785204  0.53440214  1.0
  C  C72  1  0.08334022  0.66340299  0.63200284  1.0
  C  C73  1  0.12138177  0.61218187  0.65005594  1.0
  C  C74  1  0.91982948  0.57725183  0.57891991  1.0
  C  C75  1  0.20275064  0.59642006  0.57059453  1.0
  C  C76  1  0.43622587  0.53607121  0.78880460  1.0
  C  C77  1  0.59721709  0.63276599  0.37903415  1.0
  C  C78  1  0.49773661  0.60913236  0.85003819  1.0
  C  C79  1  0.49756194  0.63227660  0.91761370  1.0
  C  C80  1  0.43459512  0.58274367  0.92600600  1.0
  C  C81  1  0.36932423  0.51347715  0.86388612  1.0
  C  C82  1  0.39001555  0.43547736  0.65643168  1.0
  C  C83  1  0.37037279  0.49033332  0.79645227  1.0
  C  C84  1  0.44115505  0.61725752  0.13510426  1.0
  C  C85  1  0.45443434  0.60604702  0.19802919  1.0
  C  C86  1  0.50525994  0.64379867  0.11759045  1.0
  C  C87  1  0.53123329  0.62118091  0.24611806  1.0
  C  C88  1  0.59674747  0.65548252  0.23308177  1.0
  C  C89  1  0.41847110  0.25878556  0.49855166  1.0
  C  C90  1  0.58337773  0.66700167  0.17037115  1.0
  C  C91  1  0.28148571  0.18327917  0.19132009  1.0
  C  C92  1  0.23173142  0.17276339  0.12140308  1.0
  C  C93  1  0.52230855  0.70094997  0.55750428  1.0
  C  C94  1  0.19341492  0.10261353  0.05833528  1.0
  C  C95  1  0.20307582  0.03886753  0.06206827  1.0
  C  C96  1  0.25859108  0.05025073  0.13003670  1.0
  C  C97  1  0.29725405  0.12164738  0.19380136  1.0
  C  C98  1  0.98558063  0.83537940  0.90763922  1.0
  C  C99  1  0.90472793  0.78310256  0.85569400  1.0
  C  C100  1  0.03916438  0.88684872  0.89135229  1.0
  C  C101  1  0.73698598  0.52013516  0.60197604  1.0
  C  C102  1  0.87402502  0.77561091  0.78369656  1.0
  C  C103  1  0.92849434  0.81999759  0.76410864  1.0
  C  C104  1  0.29345023  0.53454336  0.45492374  1.0
  C  C105  1  0.00789413  0.87431542  0.81665865  1.0
  C  C106  1  0.33610731  0.33112879  0.26474926  1.0
  C  C107  1  0.30976600  0.25462164  0.25698485  1.0
  C  C108  1  0.72418705  0.66461344  0.72774257  1.0
  C  C109  1  0.74921435  0.72770922  0.66374998  1.0
  Br  Br110  1  0.10622123  0.76124291  0.70315520  1.0
  Br  Br111  1  0.33605474  0.60021537  0.07862814  1.0
  Br  Br112  1  0.27747748  0.96648320  0.13164769  1.0
  Br  Br113  1  0.37223062  0.13589851  0.28448259  1.0
  N  N114  1  0.33177780  0.33606710  0.36794007  1.0
  N  N115  1  0.50155038  0.64454051  0.05086467  1.0
  N  N116  1  0.15082229  0.96191824  0.00505869  1.0
  N  N117  1  0.64823992  0.53320117  0.52099117  1.0
  N  N118  1  0.11018708  0.95667194  0.94286555  1.0
  N  N119  1  0.50263435  0.52265240  0.36214227  1.0
  N  N120  1  0.51748194  0.37596655  0.53674654  1.0
  N  N121  1  0.57560071  0.58856872  0.41251811  1.0
  N  N122  1  0.43546267  0.32883844  0.50015700  1.0
  N  N123  1  0.66343782  0.51409536  0.57815884  1.0
  N  N124  1  0.34929652  0.37934313  0.33108715  1.0
  N  N125  1  0.50692306  0.63128761  0.50913028  1.0
  N  N126  1  0.42057923  0.42765470  0.60890765  1.0
  N  N127  1  0.32654627  0.48893054  0.44055500  1.0
  N  N128  1  0.65385863  0.63342857  0.66666667  1.0
  N  N129  1  0.67025253  0.67334630  0.62699976  1.0
  N  N130  1  0.33881471  0.46323804  0.49339245  1.0
  N  N131  1  0.49489115  0.49367270  0.64177473  1.0
  N  N132  1  0.45019368  0.61190755  0.44053217  1.0
  N  N133  1  0.43480503  0.59176729  0.99386125  1.0
  Cl  Cl134  1  0.72626460  0.62196345  0.78606692  1.0
  Cl  Cl135  1  0.02735361  0.43656970  0.46712394  1.0
  Cl  Cl136  1  0.01506581  0.83900103  0.99415274  1.0
  Cl  Cl137  1  0.07168874  0.92975582  0.79121457  1.0
  Cl  Cl138  1  0.68603028  0.71984795  0.42788265  1.0
  Cl  Cl139  1  0.32099011  0.18611319  0.46001269  1.0
