# generated using pymatgen
data_Zn4H46C59(NO5)4
_symmetry_space_group_name_H-M   'P 1'
_cell_length_a   9.77850105
_cell_length_b   11.05369857
_cell_length_c   22.20684326
_cell_angle_alpha   89.94934949
_cell_angle_beta   90.73650289
_cell_angle_gamma   89.99948826
_symmetry_Int_Tables_number   1
_chemical_formula_structural   Zn4H46C59(NO5)4
_chemical_formula_sum   'Zn4 H46 C59 N4 O20'
_cell_volume   2400.10742298
_cell_formula_units_Z   1
loop_
 _symmetry_equiv_pos_site_id
 _symmetry_equiv_pos_as_xyz
  1  'x, y, z'
loop_
 _atom_site_type_symbol
 _atom_site_label
 _atom_site_symmetry_multiplicity
 _atom_site_fract_x
 _atom_site_fract_y
 _atom_site_fract_z
 _atom_site_occupancy
  Zn  Zn0  1  0.34392932  0.50073149  0.49337737  1.0
  Zn  Zn1  1  0.62869511  0.49982809  0.50147848  1.0
  Zn  Zn2  1  0.65837387  0.48147622  0.99636949  1.0
  Zn  Zn3  1  0.37303474  0.48972987  0.99855953  1.0
  H  H4  1  0.83859879  0.62692558  0.43633260  1.0
  H  H5  1  0.89119034  0.37769679  0.63484312  1.0
  H  H6  1  0.88081327  0.25796535  0.58113314  1.0
  H  H7  1  0.13916022  0.26467132  0.57061169  1.0
  H  H8  1  0.14704036  0.38590437  0.62363195  1.0
  H  H9  1  0.28287637  0.11497497  0.53076255  1.0
  H  H10  1  0.77623398  0.11080853  0.42943966  1.0
  H  H11  1  0.82531996  0.11186401  0.50699193  1.0
  H  H12  1  0.82194685  0.88447002  0.50896393  1.0
  H  H13  1  0.77256453  0.88300147  0.43115885  1.0
  H  H14  1  0.32086176  0.68191701  0.86250255  1.0
  H  H15  1  0.27292882  0.66722989  0.64053950  1.0
  H  H16  1  0.72490280  0.47536473  0.19244942  1.0
  H  H17  1  0.18474764  0.54911374  0.18832578  1.0
  H  H18  1  0.18834750  0.38812936  0.19271201  1.0
  H  H19  1  0.19105097  0.40211950  0.30663675  1.0
  H  H20  1  0.18949880  0.56287726  0.30071168  1.0
  H  H21  1  0.15023288  0.60789582  0.06943062  1.0
  H  H22  1  0.14316239  0.39188146  0.86243336  1.0
  H  H23  1  0.14794390  0.26346890  0.91136459  1.0
  H  H24  1  0.88697985  0.26136024  0.91131766  1.0
  H  H25  1  0.88857360  0.38916142  0.86200900  1.0
  H  H26  1  0.72438436  0.10167022  0.96201662  1.0
  H  H27  1  0.21878132  0.10018239  0.05104311  1.0
  H  H28  1  0.17864806  0.08773570  0.97273671  1.0
  H  H29  1  0.18733962  0.86079352  0.98095158  1.0
  H  H30  1  0.23390676  0.87286407  0.05839734  1.0
  H  H31  1  0.10313399  0.75161535  0.42660211  1.0
  H  H32  1  0.21306765  0.63379705  0.40270733  1.0
  H  H33  1  0.04599127  0.65078365  0.36974887  1.0
  H  H34  1  0.18223151  0.84140834  0.50235250  1.0
  H  H35  1  0.26059427  0.80169838  0.57111227  1.0
  H  H36  1  0.17493264  0.94458178  0.56382816  1.0
  H  H37  1  0.79025133  0.57665482  0.33257969  1.0
  H  H38  1  0.78604426  0.41954074  0.34410795  1.0
  H  H39  1  0.85327695  0.47832345  0.27556434  1.0
  H  H40  1  0.95074855  0.68110483  0.11209253  1.0
  H  H41  1  0.80297810  0.69279970  0.06373670  1.0
  H  H42  1  0.81585013  0.57090522  0.11383628  1.0
  H  H43  1  0.82060274  0.81493456  0.98951548  1.0
  H  H44  1  0.75874714  0.80496026  0.91509397  1.0
  H  H45  1  0.84421898  0.93905838  0.93940295  1.0
  H  H46  1  0.65965165  0.40960655  0.64101440  1.0
  H  H47  1  0.68538751  0.41014195  0.84672876  1.0
  H  H48  1  0.17245993  0.83678527  0.85770343  1.0
  H  H49  1  0.12293219  0.82169710  0.65158656  1.0
  C  C50  1  0.48897405  0.26617657  0.50012255  1.0
  C  C51  1  0.46769677  0.50736153  0.61665041  1.0
  C  C52  1  0.49211230  0.73549772  0.50239277  1.0
  C  C53  1  0.50153761  0.49765940  0.37991745  1.0
  C  C54  1  0.51734216  0.25133436  0.98756089  1.0
  C  C55  1  0.50087567  0.50629716  0.87768534  1.0
  C  C56  1  0.51729275  0.72170022  0.99513771  1.0
  C  C57  1  0.50567984  0.47312277  0.11541095  1.0
  C  C58  1  0.92420070  0.43634025  0.54052266  1.0
  C  C59  1  0.04706740  0.57586796  0.45848903  1.0
  C  C60  1  0.06587608  0.43949556  0.53455402  1.0
  C  C61  1  0.90449639  0.57200833  0.46531945  1.0
  C  C62  1  0.92906676  0.34533786  0.59141331  1.0
  C  C63  1  0.09059248  0.34928714  0.58470064  1.0
  C  C64  1  0.49145755  0.13157778  0.50358299  1.0
  C  C65  1  0.48949484  0.87035138  0.50619888  1.0
  C  C66  1  0.60771612  0.06365464  0.49129109  1.0
  C  C67  1  0.37087119  0.93789374  0.52136160  1.0
  C  C68  1  0.60586707  0.93745811  0.49275512  1.0
  C  C69  1  0.37497717  0.06457864  0.51947062  1.0
  C  C70  1  0.75669951  0.06964444  0.47352982  1.0
  C  C71  1  0.75473787  0.92658902  0.47487303  1.0
  C  C72  1  0.49471571  0.52100028  0.81135292  1.0
  C  C73  1  0.39395406  0.59564270  0.78155065  1.0
  C  C74  1  0.59009255  0.45729264  0.77746133  1.0
  C  C75  1  0.31132268  0.67809904  0.81361122  1.0
  C  C76  1  0.22116657  0.75598095  0.78506525  1.0
  C  C77  1  0.47516940  0.51869918  0.68309495  1.0
  C  C78  1  0.58124754  0.45684020  0.71327337  1.0
  C  C79  1  0.38226364  0.59301865  0.71709433  1.0
  C  C80  1  0.28473689  0.67049187  0.68929756  1.0
  C  C81  1  0.20651578  0.75124548  0.72160146  1.0
  C  C82  1  0.50664568  0.47405800  0.18260125  1.0
  C  C83  1  0.50963740  0.48808544  0.31284196  1.0
  C  C84  1  0.38687172  0.47455859  0.21574284  1.0
  C  C85  1  0.63404091  0.48543606  0.27987909  1.0
  C  C86  1  0.38924108  0.48101270  0.27848017  1.0
  C  C87  1  0.62873630  0.47814088  0.21675617  1.0
  C  C88  1  0.23216632  0.47160548  0.21156381  1.0
  C  C89  1  0.23438237  0.47975835  0.28257144  1.0
  C  C90  1  0.08800739  0.43317264  0.95596695  1.0
  C  C91  1  0.94744927  0.55781666  0.03786334  1.0
  C  C92  1  0.94547448  0.43267612  0.95662107  1.0
  C  C93  1  0.09089405  0.55667620  0.03634870  1.0
  C  C94  1  0.09748697  0.35036042  0.90234923  1.0
  C  C95  1  0.93502017  0.34922696  0.90256984  1.0
  C  C96  1  0.51281966  0.11674688  0.98397053  1.0
  C  C97  1  0.52064764  0.85564097  0.98715604  1.0
  C  C98  1  0.39591134  0.04845118  0.99442120  1.0
  C  C99  1  0.63906476  0.92365136  0.97136904  1.0
  C  C100  1  0.40166782  0.92242061  0.99691443  1.0
  C  C101  1  0.63191948  0.05036517  0.97166204  1.0
  C  C102  1  0.24499099  0.05314115  0.00921149  1.0
  C  C103  1  0.25208787  0.91050148  0.01338579  1.0
  C  C104  1  0.10650009  0.65683124  0.41165506  1.0
  C  C105  1  0.23990788  0.87836263  0.54088416  1.0
  C  C106  1  0.77359116  0.48988913  0.30950234  1.0
  C  C107  1  0.87657336  0.63012598  0.08477857  1.0
  C  C108  1  0.77286586  0.86764925  0.95302323  1.0
  N  N109  1  0.83991549  0.50148207  0.50592316  1.0
  N  N110  1  0.13103997  0.50649221  0.49410044  1.0
  N  N111  1  0.16374940  0.49340151  0.99567964  1.0
  N  N112  1  0.87154994  0.49229879  0.99690422  1.0
  O  O113  1  0.37465894  0.31959317  0.50765702  1.0
  O  O114  1  0.60287744  0.31777342  0.48945338  1.0
  O  O115  1  0.57809301  0.47018149  0.59020727  1.0
  O  O116  1  0.35867176  0.53061135  0.58725231  1.0
  O  O117  1  0.60551112  0.68309897  0.51424500  1.0
  O  O118  1  0.38165522  0.68284005  0.48615043  1.0
  O  O119  1  0.38417523  0.47853846  0.40284316  1.0
  O  O120  1  0.60960674  0.52463864  0.40975727  1.0
  O  O121  1  0.63546260  0.29971189  0.99272801  1.0
  O  O122  1  0.40328106  0.30714297  0.98622100  1.0
  O  O123  1  0.39308454  0.52093328  0.90800677  1.0
  O  O124  1  0.61705876  0.47484029  0.90166243  1.0
  O  O125  1  0.40229712  0.67473967  0.00799535  1.0
  O  O126  1  0.62897374  0.66291143  0.98935543  1.0
  O  O127  1  0.62011383  0.47691774  0.08858172  1.0
  O  O128  1  0.38831176  0.47048168  0.08975148  1.0
  O  O129  1  0.67836662  0.39230616  0.68528214  1.0
  O  O130  1  0.69247096  0.39153356  0.80227246  1.0
  O  O131  1  0.14466600  0.83991052  0.81543077  1.0
  O  O132  1  0.11515025  0.82984731  0.69510017  1.0
