# generated using pymatgen
data_ZnH4C14N(O2F)3
_symmetry_space_group_name_H-M   'P 1'
_cell_length_a   7.47756245
_cell_length_b   10.92332093
_cell_length_c   34.73243120
_cell_angle_alpha   89.83642851
_cell_angle_beta   88.11191320
_cell_angle_gamma   89.90857839
_symmetry_Int_Tables_number   1
_chemical_formula_structural   ZnH4C14N(O2F)3
_chemical_formula_sum   'Zn4 H16 C56 N4 O24 F12'
_cell_volume   2835.38357250
_cell_formula_units_Z   4
loop_
 _symmetry_equiv_pos_site_id
 _symmetry_equiv_pos_as_xyz
  1  'x, y, z'
loop_
 _atom_site_type_symbol
 _atom_site_label
 _atom_site_symmetry_multiplicity
 _atom_site_fract_x
 _atom_site_fract_y
 _atom_site_fract_z
 _atom_site_occupancy
  Zn  Zn0  1  0.63715990  0.99315368  0.49876785  1.0
  Zn  Zn1  1  0.27463452  0.99536495  0.50279064  1.0
  Zn  Zn2  1  0.27223803  0.99424792  0.00128596  1.0
  Zn  Zn3  1  0.63470383  0.99573740  0.99734805  1.0
  H  H4  1  0.63073993  0.91810611  0.11786426  1.0
  H  H5  1  0.63027917  0.91558691  0.18838211  1.0
  H  H6  1  0.12765738  0.11459893  0.19178931  1.0
  H  H7  1  0.12048339  0.10050370  0.12076610  1.0
  H  H8  1  0.77998227  0.11444228  0.30795134  1.0
  H  H9  1  0.27746750  0.91632271  0.31191651  1.0
  H  H10  1  0.27754204  0.91898392  0.38237359  1.0
  H  H11  1  0.78759084  0.10062534  0.37896844  1.0
  H  H12  1  0.60385860  0.11099538  0.88063581  1.0
  H  H13  1  0.60365245  0.12177968  0.80976527  1.0
  H  H14  1  0.13446883  0.88982381  0.81019134  1.0
  H  H15  1  0.12492159  0.89309131  0.88165244  1.0
  H  H16  1  0.77524004  0.88833671  0.69017641  1.0
  H  H17  1  0.30642297  0.12151109  0.69004762  1.0
  H  H18  1  0.30605146  0.11010889  0.61921115  1.0
  H  H19  1  0.78458782  0.89075990  0.61870961  1.0
  C  C20  1  0.37012857  0.22644924  0.49962251  1.0
  C  C21  1  0.53086673  0.00335207  0.42790863  1.0
  C  C22  1  0.37231263  0.76332772  0.49934498  1.0
  C  C23  1  0.53764138  0.99436763  0.57195878  1.0
  C  C24  1  0.53953712  0.22698738  0.00043633  1.0
  C  C25  1  0.37781730  0.00319220  0.07212498  1.0
  C  C26  1  0.53739305  0.76383057  0.00077458  1.0
  C  C27  1  0.37195376  0.99589783  0.92813766  1.0
  C  C28  1  0.37662147  0.01004909  0.11484856  1.0
  C  C29  1  0.52132058  0.96089758  0.13431446  1.0
  C  C30  1  0.52249500  0.96258617  0.17419652  1.0
  C  C31  1  0.38323743  0.02024048  0.19567960  1.0
  C  C32  1  0.23805772  0.07028939  0.17589966  1.0
  C  C33  1  0.23374569  0.06333913  0.13595581  1.0
  C  C34  1  0.38475314  0.02609161  0.23781855  1.0
  C  C35  1  0.52264657  0.02645318  0.26214508  1.0
  C  C36  1  0.66971397  0.07033688  0.32392834  1.0
  C  C37  1  0.52450342  0.02046612  0.30428830  1.0
  C  C38  1  0.38538858  0.96318442  0.32595190  1.0
  C  C39  1  0.38689526  0.96147186  0.36583066  1.0
  C  C40  1  0.53174598  0.01031901  0.38515637  1.0
  C  C41  1  0.67431394  0.06346147  0.36388946  1.0
  C  C42  1  0.36646940  0.99961411  0.88543850  1.0
  C  C43  1  0.50171562  0.06296127  0.86492452  1.0
  C  C44  1  0.50329336  0.06654638  0.82501101  1.0
  C  C45  1  0.37486236  0.00104593  0.80463566  1.0
  C  C46  1  0.23679917  0.93956684  0.82542547  1.0
  C  C47  1  0.23142359  0.94053987  0.86551389  1.0
  C  C48  1  0.38343433  0.99672920  0.76243732  1.0
  C  C49  1  0.52670790  0.99650491  0.73768129  1.0
  C  C50  1  0.67297632  0.93817734  0.67481320  1.0
  C  C51  1  0.53519487  0.00028076  0.69546919  1.0
  C  C52  1  0.40668509  0.06589672  0.67493902  1.0
  C  C53  1  0.40819931  0.06196855  0.63503796  1.0
  C  C54  1  0.54330589  0.99813621  0.61466148  1.0
  C  C55  1  0.67818716  0.93873689  0.63471909  1.0
  C  C56  1  0.36037499  0.36426852  0.49699270  1.0
  C  C57  1  0.34518574  0.42893006  0.46154723  1.0
  C  C58  1  0.37407095  0.43014011  0.53046985  1.0
  C  C59  1  0.33168574  0.36852370  0.42570046  1.0
  C  C60  1  0.31810385  0.43140622  0.39143243  1.0
  C  C61  1  0.36133771  0.62546093  0.49692298  1.0
  C  C62  1  0.37467030  0.55919644  0.53044965  1.0
  C  C63  1  0.34538471  0.56097837  0.46157503  1.0
  C  C64  1  0.33124427  0.62210007  0.42582529  1.0
  C  C65  1  0.31760116  0.56034683  0.39150934  1.0
  C  C66  1  0.54955759  0.36472653  0.00306487  1.0
  C  C67  1  0.56468165  0.42870326  0.03851385  1.0
  C  C68  1  0.53599629  0.43125422  0.96959846  1.0
  C  C69  1  0.57815791  0.36759654  0.07435138  1.0
  C  C70  1  0.59122891  0.42979495  0.10863459  1.0
  C  C71  1  0.54849652  0.62591902  0.00315073  1.0
  C  C72  1  0.53537182  0.56033584  0.96961582  1.0
  C  C73  1  0.56421616  0.56075734  0.03849844  1.0
  C  C74  1  0.57781890  0.62118377  0.07427137  1.0
  C  C75  1  0.59121795  0.55871423  0.10858377  1.0
  N  N76  1  0.20313289  0.02681527  0.25654632  1.0
  N  N77  1  0.70408019  0.02878635  0.24333253  1.0
  N  N78  1  0.20619736  0.99480450  0.74436871  1.0
  N  N79  1  0.70396359  0.99445187  0.75576535  1.0
  O  O80  1  0.52402164  0.17940380  0.49983635  1.0
  O  O81  1  0.22008304  0.16927433  0.50214576  1.0
  O  O82  1  0.38117657  0.99478624  0.44596237  1.0
  O  O83  1  0.68407494  0.00546468  0.44425000  1.0
  O  O84  1  0.22295174  0.82116517  0.50282517  1.0
  O  O85  1  0.52671010  0.80957422  0.49853553  1.0
  O  O86  1  0.68788891  0.98729552  0.55256236  1.0
  O  O87  1  0.38489126  0.99899883  0.55708679  1.0
  O  O88  1  0.38558186  0.18036398  0.00017873  1.0
  O  O89  1  0.68952206  0.16939664  0.99793280  1.0
  O  O90  1  0.52759701  0.99438984  0.05411265  1.0
  O  O91  1  0.22479670  0.00582073  0.05571050  1.0
  O  O92  1  0.68670187  0.82151112  0.99735705  1.0
  O  O93  1  0.38292694  0.81029810  0.00156442  1.0
  O  O94  1  0.22159045  0.98912981  0.94751004  1.0
  O  O95  1  0.52462483  0.00015217  0.94303597  1.0
  O  O96  1  0.12753388  0.92646336  0.25852180  1.0
  O  O97  1  0.14253594  0.12532955  0.26854756  1.0
  O  O98  1  0.78214286  0.92914239  0.24153437  1.0
  O  O99  1  0.76217653  0.12779001  0.23110651  1.0
  O  O100  1  0.13030637  0.09497319  0.74234121  1.0
  O  O101  1  0.14943418  0.89568421  0.73292817  1.0
  O  O102  1  0.77988452  0.09446830  0.75756766  1.0
  O  O103  1  0.76074322  0.89531383  0.76744879  1.0
  F  F104  1  0.39045987  0.61708253  0.56451296  1.0
  F  F105  1  0.38884652  0.37166958  0.56459032  1.0
  F  F106  1  0.33134892  0.74585369  0.42462534  1.0
  F  F107  1  0.30422184  0.62158906  0.35805464  1.0
  F  F108  1  0.30569043  0.37132074  0.35788989  1.0
  F  F109  1  0.33236308  0.24485191  0.42420240  1.0
  F  F110  1  0.51988384  0.61894954  0.93556276  1.0
  F  F111  1  0.52155343  0.37348741  0.93545868  1.0
  F  F112  1  0.57747090  0.74490841  0.07553227  1.0
  F  F113  1  0.60406940  0.61926363  0.14206975  1.0
  F  F114  1  0.60367948  0.36898986  0.14216562  1.0
  F  F115  1  0.57800872  0.24391629  0.07582614  1.0
