# generated using pymatgen
data_ZnH16C26N3O4
_symmetry_space_group_name_H-M   'P 1'
_cell_length_a   18.28535507
_cell_length_b   19.26381865
_cell_length_c   19.67610838
_cell_angle_alpha   90.25034002
_cell_angle_beta   90.00005874
_cell_angle_gamma   89.93329519
_symmetry_Int_Tables_number   1
_chemical_formula_structural   ZnH16C26N3O4
_chemical_formula_sum   'Zn2 H32 C52 N6 O8'
_cell_volume   6930.75497614
_cell_formula_units_Z   2
loop_
 _symmetry_equiv_pos_site_id
 _symmetry_equiv_pos_as_xyz
  1  'x, y, z'
loop_
 _atom_site_type_symbol
 _atom_site_label
 _atom_site_symmetry_multiplicity
 _atom_site_fract_x
 _atom_site_fract_y
 _atom_site_fract_z
 _atom_site_occupancy
  Zn  Zn0  1  0.57665125  0.50001534  0.50075776  1.0
  Zn  Zn1  1  0.42335581  0.50011623  0.50073705  1.0
  H  H2  1  0.61718319  0.27845106  0.48609652  1.0
  H  H3  1  0.61723486  0.50138086  0.28343837  1.0
  H  H4  1  0.38280021  0.49782279  0.28340106  1.0
  H  H5  1  0.61719330  0.50213003  0.71773935  1.0
  H  H6  1  0.38220307  0.49850463  0.84449910  1.0
  H  H7  1  0.61779204  0.50151979  0.15663273  1.0
  H  H8  1  0.38229809  0.49793009  0.15658722  1.0
  H  H9  1  0.61769488  0.50201184  0.84455927  1.0
  H  H10  1  0.58175018  0.58046057  0.93826932  1.0
  H  H11  1  0.41826575  0.41949589  0.06287770  1.0
  H  H12  1  0.58178307  0.58011725  0.06396760  1.0
  H  H13  1  0.38282091  0.72138920  0.48661828  1.0
  H  H14  1  0.41823120  0.41985684  0.93717232  1.0
  H  H15  1  0.69334919  0.57585355  0.57499535  1.0
  H  H16  1  0.30711833  0.42434798  0.42564115  1.0
  H  H17  1  0.69305840  0.42435440  0.42564143  1.0
  H  H18  1  0.30647340  0.57585434  0.57497827  1.0
  H  H19  1  0.93269049  0.38919661  0.48438866  1.0
  H  H20  1  0.06730354  0.61088059  0.51534457  1.0
  H  H21  1  0.93249113  0.61092317  0.51531804  1.0
  H  H22  1  0.06751111  0.38915506  0.48441417  1.0
  H  H23  1  0.83026389  0.57887216  0.57859132  1.0
  H  H24  1  0.61722502  0.72123561  0.48663934  1.0
  H  H25  1  0.17019987  0.42127358  0.42137171  1.0
  H  H26  1  0.82996896  0.42127517  0.42133668  1.0
  H  H27  1  0.16957274  0.57888402  0.57861718  1.0
  H  H28  1  0.38278072  0.27860219  0.48611409  1.0
  H  H29  1  0.61771298  0.14958269  0.46663569  1.0
  H  H30  1  0.38229567  0.85004260  0.46697898  1.0
  H  H31  1  0.61765192  0.84987495  0.46699142  1.0
  H  H32  1  0.38235126  0.14974837  0.46665476  1.0
  H  H33  1  0.38277115  0.49869545  0.71768793  1.0
  C  C34  1  0.50002791  0.49909091  0.36724980  1.0
  C  C35  1  0.45330924  0.45596075  0.96491900  1.0
  C  C36  1  0.50002376  0.49977818  0.07267984  1.0
  C  C37  1  0.49996645  0.50020371  0.92846365  1.0
  C  C38  1  0.72637216  0.54273965  0.54193533  1.0
  C  C39  1  0.27388048  0.45741838  0.45854356  1.0
  C  C40  1  0.72622452  0.45741866  0.45854522  1.0
  C  C41  1  0.27352935  0.54275050  0.54192299  1.0
  C  C42  1  0.80227067  0.54435100  0.54313956  1.0
  C  C43  1  0.19797105  0.45579897  0.45696323  1.0
  C  C44  1  0.80213223  0.45581267  0.45692924  1.0
  C  C45  1  0.49999341  0.50098376  0.63385617  1.0
  C  C46  1  0.19762276  0.54434274  0.54316490  1.0
  C  C47  1  0.84213534  0.50006854  0.49995630  1.0
  C  C48  1  0.15786414  0.50004318  0.50000262  1.0
  C  C49  1  0.96205052  0.43809599  0.49010120  1.0
  C  C50  1  0.03794134  0.56198013  0.50962034  1.0
  C  C51  1  0.96193174  0.56199898  0.50959796  1.0
  C  C52  1  0.03807378  0.43807608  0.49012155  1.0
  C  C53  1  0.07729201  0.50001993  0.49989294  1.0
  C  C54  1  0.92270859  0.50005782  0.49984943  1.0
  C  C55  1  0.49994293  0.36354670  0.49531463  1.0
  C  C56  1  0.49995317  0.50037613  0.85345668  1.0
  C  C57  1  0.50004867  0.63656375  0.49708940  1.0
  C  C58  1  0.56621108  0.24953634  0.48173640  1.0
  C  C59  1  0.43378953  0.75032654  0.48267998  1.0
  C  C60  1  0.56622784  0.75023094  0.48269232  1.0
  C  C61  1  0.43377660  0.24963044  0.48173830  1.0
  C  C62  1  0.56647614  0.17818333  0.47113767  1.0
  C  C63  1  0.43352821  0.82154642  0.47179403  1.0
  C  C64  1  0.56644669  0.82144482  0.47180130  1.0
  C  C65  1  0.43356314  0.17827768  0.47113650  1.0
  C  C66  1  0.50003447  0.14190288  0.46517461  1.0
  C  C67  1  0.50003925  0.49958139  0.14769238  1.0
  C  C68  1  0.49997372  0.85775482  0.46580795  1.0
  C  C69  1  0.49998036  0.28600831  0.48656656  1.0
  C  C70  1  0.50002029  0.71396682  0.48791601  1.0
  C  C71  1  0.49998200  0.93268405  0.45341407  1.0
  C  C72  1  0.50002626  0.06680362  0.45308011  1.0
  C  C73  1  0.43391383  0.49919916  0.74612542  1.0
  C  C74  1  0.56609331  0.50080449  0.25500741  1.0
  C  C75  1  0.43395432  0.49794514  0.25498566  1.0
  C  C76  1  0.56603317  0.50200301  0.74615424  1.0
  C  C77  1  0.43392917  0.49865932  0.81682070  1.0
  C  C78  1  0.49997931  0.50079508  0.71000715  1.0
  C  C79  1  0.56607141  0.50135160  0.18431214  1.0
  C  C80  1  0.43400287  0.49775091  0.18428664  1.0
  C  C81  1  0.56599721  0.50218270  0.81685477  1.0
  C  C82  1  0.50002786  0.49917583  0.29111396  1.0
  C  C83  1  0.54665892  0.54422702  0.96551796  1.0
  C  C84  1  0.45335153  0.45573568  0.03563059  1.0
  C  C85  1  0.54667823  0.54403261  0.03623365  1.0
  N  N86  1  0.43517407  0.03391334  0.44433726  1.0
  N  N87  1  0.56483392  0.96546278  0.44450180  1.0
  N  N88  1  0.43515077  0.96563428  0.44450895  1.0
  N  N89  1  0.56485175  0.03374080  0.44432808  1.0
  N  N90  1  0.68896136  0.50004319  0.50037408  1.0
  N  N91  1  0.31103972  0.50007065  0.50034566  1.0
  O  O92  1  0.56209047  0.49919021  0.39682320  1.0
  O  O93  1  0.43793465  0.50093688  0.60427875  1.0
  O  O94  1  0.56206506  0.50109660  0.60429255  1.0
  O  O95  1  0.43797154  0.49903314  0.39683075  1.0
  O  O96  1  0.56202730  0.39331685  0.49828849  1.0
  O  O97  1  0.43795527  0.60682795  0.50013153  1.0
  O  O98  1  0.56218426  0.60676543  0.50014156  1.0
  O  O99  1  0.43781145  0.39336445  0.49831757  1.0
