# generated using pymatgen
data_MgH7C11SN2O3
_symmetry_space_group_name_H-M   'P 1'
_cell_length_a   6.77980234
_cell_length_b   36.46965017
_cell_length_c   36.47713830
_cell_angle_alpha   119.61823354
_cell_angle_beta   93.50770456
_cell_angle_gamma   93.58285795
_symmetry_Int_Tables_number   1
_chemical_formula_structural   MgH7C11SN2O3
_chemical_formula_sum   'Mg6 H42 C66 S6 N12 O18'
_cell_volume   7781.24884563
_cell_formula_units_Z   6
loop_
 _symmetry_equiv_pos_site_id
 _symmetry_equiv_pos_as_xyz
  1  'x, y, z'
loop_
 _atom_site_type_symbol
 _atom_site_label
 _atom_site_symmetry_multiplicity
 _atom_site_fract_x
 _atom_site_fract_y
 _atom_site_fract_z
 _atom_site_occupancy
  Mg  Mg0  1  0.54003201  0.31955685  0.68637398  1.0
  Mg  Mg1  1  0.22053086  0.36682782  0.68048289  1.0
  Mg  Mg2  1  0.85381623  0.31371132  0.63324877  1.0
  Mg  Mg3  1  0.78863326  0.67007822  0.36377381  1.0
  Mg  Mg4  1  0.11873213  0.69366144  0.32987421  1.0
  Mg  Mg5  1  0.42504941  0.63617210  0.30629704  1.0
  H  H6  1  0.47618566  0.92677195  0.51718399  1.0
  H  H7  1  0.54904632  0.59037807  0.07307117  1.0
  H  H8  1  0.95849669  0.48283358  0.40964607  1.0
  H  H9  1  0.48434090  0.00016096  0.52788690  1.0
  H  H10  1  0.48422319  0.52769510  0.99975799  1.0
  H  H11  1  0.95656757  0.47216505  0.47232497  1.0
  H  H12  1  0.61438039  0.06056408  0.53275102  1.0
  H  H13  1  0.55483028  0.47213989  0.93937131  1.0
  H  H14  1  0.08201945  0.46742036  0.52787350  1.0
  H  H15  1  0.72693505  0.12532991  0.55030691  1.0
  H  H16  1  0.60178021  0.42490184  0.87459533  1.0
  H  H17  1  0.17714884  0.44986144  0.57508911  1.0
  H  H18  1  0.77560237  0.19996279  0.59065842  1.0
  H  H19  1  0.57551578  0.39065928  0.79995075  1.0
  H  H20  1  0.18504955  0.40938091  0.60934037  1.0
  H  H21  1  0.06769420  0.19980718  0.54782167  1.0
  H  H22  1  0.86738087  0.34809653  0.80032429  1.0
  H  H23  1  0.51957049  0.45222031  0.65194910  1.0
  H  H24  1  0.22620372  0.13303336  0.51141301  1.0
  H  H25  1  0.09299965  0.37847844  0.86703114  1.0
  H  H26  1  0.71471827  0.48859070  0.62156461  1.0
  H  H27  1  0.57256210  0.00717657  0.41524750  1.0
  H  H28  1  0.56528280  0.40805074  0.99277655  1.0
  H  H29  1  0.15455389  0.58497228  0.59200852  1.0
  H  H30  1  0.46582934  0.92997723  0.37151388  1.0
  H  H31  1  0.53582331  0.44150286  0.06996762  1.0
  H  H32  1  0.09135118  0.62864200  0.55849546  1.0
  H  H33  1  0.37348128  0.88730641  0.40479878  1.0
  H  H34  1  0.48635645  0.51744716  0.11261500  1.0
  H  H35  1  0.96685699  0.59523714  0.48251858  1.0
  H  H36  1  0.08429763  0.90019941  0.44350536  1.0
  H  H37  1  0.18422477  0.54323847  0.09982354  1.0
  H  H38  1  0.63945853  0.55650305  0.45670555  1.0
  H  H39  1  0.17169353  0.79357177  0.41811367  1.0
  H  H40  1  0.37842831  0.62441687  0.20643386  1.0
  H  H41  1  0.75337222  0.58193752  0.37556233  1.0
  H  H42  1  0.47998881  0.81429670  0.38598747  1.0
  H  H43  1  0.66571064  0.57158466  0.18573252  1.0
  H  H44  1  0.09272344  0.61382576  0.42810905  1.0
  H  H45  1  0.73258486  0.87736315  0.42566424  1.0
  H  H46  1  0.85531971  0.54823097  0.12268157  1.0
  H  H47  1  0.30522490  0.57409035  0.45146430  1.0
  C  C48  1  0.26052212  0.88211032  0.47770618  1.0
  C  C49  1  0.37854964  0.59554065  0.11782032  1.0
  C  C50  1  0.78198816  0.52223536  0.40444843  1.0
  C  C51  1  0.42596627  0.94097657  0.46888835  1.0
  C  C52  1  0.48501688  0.52786888  0.05893635  1.0
  C  C53  1  0.95603172  0.53116118  0.47213653  1.0
  C  C54  1  0.48416660  0.98467145  0.49346453  1.0
  C  C55  1  0.49950823  0.50875470  0.01524392  1.0
  C  C56  1  0.98999917  0.50661214  0.49126968  1.0
  C  C57  1  0.53521061  0.00867342  0.47439679  1.0
  C  C58  1  0.52666308  0.46569840  0.99126460  1.0
  C  C59  1  0.05957770  0.52574679  0.53434540  1.0
  C  C60  1  0.53972036  0.08576005  0.49592725  1.0
  C  C61  1  0.45381311  0.41014834  0.91420928  1.0
  C  C62  1  0.04353036  0.50418624  0.58989837  1.0
  C  C63  1  0.51122580  0.16187970  0.54907837  1.0
  C  C64  1  0.34921605  0.38720119  0.83810793  1.0
  C  C65  1  0.96239343  0.45101871  0.61286632  1.0
  C  C66  1  0.61917410  0.19938430  0.58104845  1.0
  C  C67  1  0.41961615  0.38165998  0.80059120  1.0
  C  C68  1  0.03833526  0.41906657  0.61842621  1.0
  C  C69  1  0.53097340  0.23744561  0.60238923  1.0
  C  C70  1  0.29321721  0.36495593  0.76257676  1.0
  C  C71  1  0.92865345  0.39773777  0.63515943  1.0
  C  C72  1  0.32584457  0.23705288  0.58992946  1.0
  C  C73  1  0.08840701  0.35291372  0.76301530  1.0
  C  C74  1  0.73591107  0.41018579  0.64720481  1.0
  C  C75  1  0.22293604  0.19905233  0.55687176  1.0
  C  C76  1  0.02346846  0.35787186  0.80102424  1.0
  C  C77  1  0.66600393  0.44320889  0.64221803  1.0
  C  C78  1  0.31012630  0.16185220  0.53657179  1.0
  C  C79  1  0.14802835  0.37476793  0.83818623  1.0
  C  C80  1  0.77361001  0.46348832  0.62529794  1.0
  C  C81  1  0.21318442  0.27374652  0.61054986  1.0
  C  C82  1  0.93912032  0.33684306  0.72632898  1.0
  C  C83  1  0.60249374  0.38954849  0.66326884  1.0
  C  C84  1  0.53098065  0.98884486  0.43015818  1.0
  C  C85  1  0.54211419  0.44128776  0.01109774  1.0
  C  C86  1  0.09856184  0.57000986  0.55876028  1.0
  C  C87  1  0.46947395  0.94549949  0.40592729  1.0
  C  C88  1  0.52402791  0.46039051  0.05443783  1.0
  C  C89  1  0.06121138  0.59420574  0.53961308  1.0
  C  C90  1  0.41627603  0.92128754  0.42444449  1.0
  C  C91  1  0.49511998  0.50312584  0.07864789  1.0
  C  C92  1  0.99013000  0.57562716  0.49686658  1.0
  C  C93  1  0.96835402  0.83929942  0.42495192  1.0
  C  C94  1  0.12927497  0.58558017  0.16069443  1.0
  C  C95  1  0.54240905  0.57492771  0.41428265  1.0
  C  C96  1  0.02055127  0.79864506  0.41149291  1.0
  C  C97  1  0.22212993  0.61275249  0.20135335  1.0
  C  C98  1  0.60858249  0.58845579  0.38715391  1.0
  C  C99  1  0.88025083  0.76284302  0.38890145  1.0
  C  C100  1  0.11749489  0.62596852  0.23713427  1.0
  C  C101  1  0.49098972  0.61103883  0.37393087  1.0
  C  C102  1  0.67966551  0.76890112  0.38008717  1.0
  C  C103  1  0.91081609  0.61110723  0.23109130  1.0
  C  C104  1  0.29901871  0.61981911  0.38874176  1.0
  C  C105  1  0.63309909  0.81049044  0.39331490  1.0
  C  C106  1  0.82259302  0.58273591  0.18951709  1.0
  C  C107  1  0.23866783  0.60651496  0.41701538  1.0
  C  C108  1  0.77320568  0.84542913  0.41516727  1.0
  C  C109  1  0.92784693  0.56967840  0.15458652  1.0
  C  C110  1  0.35663751  0.58462354  0.43008311  1.0
  C  C111  1  0.52009898  0.73372709  0.35764430  1.0
  C  C112  1  0.78634765  0.62385062  0.26625995  1.0
  C  C113  1  0.16219219  0.64229072  0.37602805  1.0
  S  S114  1  0.29376194  0.85368994  0.50120661  1.0
  S  S115  1  0.44035648  0.64746799  0.14619487  1.0
  S  S116  1  0.79203128  0.49867152  0.35253394  1.0
  S  S117  1  0.42498752  0.08120372  0.45245904  1.0
  S  S118  1  0.34290476  0.37131146  0.91883196  1.0
  S  S119  1  0.97188486  0.54760963  0.62883764  1.0
  N  N120  1  0.38723683  0.91846240  0.49024304  1.0
  N  N121  1  0.46869303  0.57172867  0.08143506  1.0
  N  N122  1  0.89623297  0.50976091  0.42828076  1.0
  N  N123  1  0.58725685  0.05255149  0.50180478  1.0
  N  N124  1  0.53510226  0.44921318  0.94738745  1.0
  N  N125  1  0.08486451  0.49834875  0.55081162  1.0
  N  N126  1  0.60346563  0.12441426  0.53245380  1.0
  N  N127  1  0.47906376  0.40799249  0.87553717  1.0
  N  N128  1  0.07127532  0.46766324  0.59202128  1.0
  N  N129  1  0.10928056  0.87507008  0.44745287  1.0
  N  N130  1  0.23442846  0.57231687  0.12493645  1.0
  N  N131  1  0.66070131  0.55247600  0.42760966  1.0
  O  O132  1  0.03457640  0.27235578  0.59635469  1.0
  O  O133  1  0.76196203  0.32398334  0.72771326  1.0
  O  O134  1  0.43817089  0.40376936  0.67611035  1.0
  O  O135  1  0.29685637  0.30738891  0.64442327  1.0
  O  O136  1  0.98918527  0.33714279  0.69270594  1.0
  O  O137  1  0.65217571  0.35562794  0.66297488  1.0
  O  O138  1  0.64157165  0.27205835  0.63338841  1.0
  O  O139  1  0.36920683  0.36129191  0.72794298  1.0
  O  O140  1  0.00820819  0.36673865  0.63877704  1.0
  O  O141  1  0.34550040  0.74017047  0.34877614  1.0
  O  O142  1  0.60528068  0.60850813  0.25982567  1.0
  O  O143  1  0.99631651  0.65117301  0.39133179  1.0
  O  O144  1  0.55996720  0.69572469  0.34750195  1.0
  O  O145  1  0.86411100  0.65176286  0.30422817  1.0
  O  O146  1  0.21246399  0.65244437  0.34818577  1.0
  O  O147  1  0.94417421  0.72473888  0.37637108  1.0
  O  O148  1  0.21943672  0.65155795  0.27522123  1.0
  O  O149  1  0.56769760  0.62359547  0.34839227  1.0
