# generated using pymatgen
data_CuH11C17BrN2O3
_symmetry_space_group_name_H-M   'P 1'
_cell_length_a   10.56720817
_cell_length_b   19.08977497
_cell_length_c   19.09034055
_cell_angle_alpha   116.67304939
_cell_angle_beta   100.63436528
_cell_angle_gamma   100.63436643
_symmetry_Int_Tables_number   1
_chemical_formula_structural   CuH11C17BrN2O3
_chemical_formula_sum   'Cu6 H66 C102 Br6 N12 O18'
_cell_volume   3221.53684274
_cell_formula_units_Z   6
loop_
 _symmetry_equiv_pos_site_id
 _symmetry_equiv_pos_as_xyz
  1  'x, y, z'
loop_
 _atom_site_type_symbol
 _atom_site_label
 _atom_site_symmetry_multiplicity
 _atom_site_fract_x
 _atom_site_fract_y
 _atom_site_fract_z
 _atom_site_occupancy
  Cu  Cu0  1  0.04884994  0.59815166  0.23096632  1.0
  Cu  Cu1  1  0.45080429  0.63283135  0.40187826  1.0
  Cu  Cu2  1  0.81802854  0.76901694  0.36713273  1.0
  Cu  Cu3  1  0.95114986  0.40184789  0.76903348  1.0
  Cu  Cu4  1  0.54919643  0.36717005  0.59812246  1.0
  Cu  Cu5  1  0.18197222  0.23098261  0.63286769  1.0
  H  H6  1  0.43343199  0.29111640  0.91822075  1.0
  H  H7  1  0.14229376  0.62705492  0.70884803  1.0
  H  H8  1  0.51524311  0.08177179  0.37291104  1.0
  H  H9  1  0.56656685  0.70888315  0.08177947  1.0
  H  H10  1  0.85770635  0.37294525  0.29115155  1.0
  H  H11  1  0.48475669  0.91822776  0.62708771  1.0
  H  H12  1  0.57923327  0.47523424  0.85473765  1.0
  H  H13  1  0.10399272  0.37947713  0.52469300  1.0
  H  H14  1  0.72455029  0.14520229  0.62048856  1.0
  H  H15  1  0.42076653  0.52476531  0.14526268  1.0
  H  H16  1  0.89600642  0.62052304  0.47530701  1.0
  H  H17  1  0.27545078  0.85479787  0.37951165  1.0
  H  H18  1  0.73173145  0.48170554  0.17480885  1.0
  H  H19  1  0.25011363  0.69308753  0.51830758  1.0
  H  H20  1  0.55701839  0.82517918  0.30688875  1.0
  H  H21  1  0.26826738  0.51829401  0.82519033  1.0
  H  H22  1  0.74988552  0.30691264  0.48169190  1.0
  H  H23  1  0.44298141  0.17482037  0.69311105  1.0
  H  H24  1  0.53312899  0.40313887  0.04917747  1.0
  H  H25  1  0.13011119  0.64602812  0.59687147  1.0
  H  H26  1  0.48408373  0.95080291  0.35394955  1.0
  H  H27  1  0.46687304  0.59686130  0.95082178  1.0
  H  H28  1  0.86988796  0.35397205  0.40312802  1.0
  H  H29  1  0.51591638  0.04919726  0.64605055  1.0
  H  H30  1  0.78042559  0.47867255  0.92257074  1.0
  H  H31  1  0.30179750  0.44387463  0.52132733  1.0
  H  H32  1  0.85791624  0.07740218  0.55609490  1.0
  H  H33  1  0.21957355  0.52132762  0.07742979  1.0
  H  H34  1  0.69820099  0.55612615  0.47867184  1.0
  H  H35  1  0.14208544  0.92259922  0.44390697  1.0
  H  H36  1  0.96642681  0.55786644  0.05608582  1.0
  H  H37  1  0.40864878  0.49820228  0.44211511  1.0
  H  H38  1  0.91042014  0.94387141  0.50179341  1.0
  H  H39  1  0.03357202  0.44213311  0.94391388  1.0
  H  H40  1  0.59135037  0.50179789  0.55788437  1.0
  H  H41  1  0.08958062  0.05612814  0.49820597  1.0
  H  H42  1  0.25375518  0.21629708  0.78274454  1.0
  H  H43  1  0.03745159  0.56635324  0.78362586  1.0
  H  H44  1  0.47114096  0.21725316  0.43361419  1.0
  H  H45  1  0.74624396  0.78370309  0.21725599  1.0
  H  H46  1  0.96254978  0.43364754  0.21637413  1.0
  H  H47  1  0.52885914  0.78274701  0.56638592  1.0
  H  H48  1  0.39726480  0.39070496  0.72074885  1.0
  H  H49  1  0.00648318  0.32996533  0.60917350  1.0
  H  H50  1  0.67663426  0.27923329  0.66999423  1.0
  H  H51  1  0.60273500  0.60929459  0.27925147  1.0
  H  H52  1  0.99351693  0.67003483  0.39082609  1.0
  H  H53  1  0.32336681  0.72076688  0.33000545  1.0
  H  H54  1  0.07250540  0.90083155  0.28607310  1.0
  H  H55  1  0.17172127  0.38525696  0.09921257  1.0
  H  H56  1  0.78641822  0.71395732  0.61469730  1.0
  H  H57  1  0.92749567  0.09916862  0.71392711  1.0
  H  H58  1  0.82827883  0.61474321  0.90078753  1.0
  H  H59  1  0.21358442  0.28604408  0.38530257  1.0
  H  H60  1  0.36681339  0.85728763  0.15452008  1.0
  H  H61  1  0.50957546  0.29722537  0.14270147  1.0
  H  H62  1  0.21232153  0.84546100  0.70274824  1.0
  H  H63  1  0.63318768  0.14271254  0.84547961  1.0
  H  H64  1  0.49042338  0.70277418  0.85729876  1.0
  H  H65  1  0.78767954  0.15453916  0.29725249  1.0
  H  H66  1  0.31882748  0.71600769  0.13421523  1.0
  H  H67  1  0.60299951  0.41822822  0.28401276  1.0
  H  H68  1  0.18475087  0.86577835  0.58176580  1.0
  H  H69  1  0.68117262  0.28399248  0.86578435  1.0
  H  H70  1  0.39699867  0.58177195  0.71598663  1.0
  H  H71  1  0.81524989  0.13422120  0.41823463  1.0
  C  C72  1  0.42969001  0.31625343  0.87694981  1.0
  C  C73  1  0.11343178  0.56064430  0.68369528  1.0
  C  C74  1  0.55278557  0.12301222  0.43932465  1.0
  C  C75  1  0.57030979  0.68374612  0.12305052  1.0
  C  C76  1  0.88656767  0.43935648  0.31630451  1.0
  C  C77  1  0.44721808  0.87698733  0.56067554  1.0
  C  C78  1  0.52538219  0.38953469  0.89776774  1.0
  C  C79  1  0.13592813  0.50820316  0.61044374  1.0
  C  C80  1  0.62770290  0.10220493  0.49177393  1.0
  C  C81  1  0.47461761  0.61046486  0.10223206  1.0
  C  C82  1  0.86407132  0.49179762  0.38955553  1.0
  C  C83  1  0.37229405  0.89779277  0.50822580  1.0
  C  C84  1  0.51130825  0.41741009  0.84113209  1.0
  C  C85  1  0.09389096  0.42368295  0.58252067  1.0
  C  C86  1  0.67021845  0.15881817  0.57628898  1.0
  C  C87  1  0.48869058  0.58258946  0.15886866  1.0
  C  C88  1  0.90611011  0.57631722  0.41748006  1.0
  C  C89  1  0.32978104  0.84118076  0.42371104  1.0
  C  C90  1  0.73847032  0.47992846  0.11765583  1.0
  C  C91  1  0.25868971  0.63772151  0.52010713  1.0
  C  C92  1  0.62095934  0.88233875  0.36225613  1.0
  C  C93  1  0.26153014  0.52007047  0.88234376  1.0
  C  C94  1  0.74130943  0.36227865  0.47989183  1.0
  C  C95  1  0.37903949  0.11766080  0.63774410  1.0
  C  C96  1  0.62744331  0.43557236  0.04699957  1.0
  C  C97  1  0.19204390  0.61143439  0.56449246  1.0
  C  C98  1  0.58061181  0.95300419  0.38854806  1.0
  C  C99  1  0.37255653  0.56442535  0.95299836  1.0
  C  C100  1  0.80795555  0.38856639  0.43550681  1.0
  C  C101  1  0.41938864  0.04699475  0.61145205  1.0
  C  C102  1  0.63869600  0.43526434  0.97479759  1.0
  C  C103  1  0.20359667  0.53954437  0.56478569  1.0
  C  C104  1  0.66402066  0.02518510  0.46045506  1.0
  C  C105  1  0.36130441  0.56473644  0.02519968  1.0
  C  C106  1  0.79640375  0.46045641  0.43521368  1.0
  C  C107  1  0.33597818  0.97481446  0.53954569  1.0
  C  C108  1  0.76315715  0.47961191  0.97750561  1.0
  C  C109  1  0.28365369  0.49787973  0.52040464  1.0
  C  C110  1  0.78574153  0.02245929  0.50211246  1.0
  C  C111  1  0.23684457  0.52038764  0.02249387  1.0
  C  C112  1  0.71634545  0.50212043  0.47959432  1.0
  C  C113  1  0.21425762  0.97754088  0.49788808  1.0
  C  C114  1  0.86818089  0.52225861  0.05107184  1.0
  C  C115  1  0.34605546  0.52880044  0.47776038  1.0
  C  C116  1  0.81722035  0.94889663  0.47118691  1.0
  C  C117  1  0.13181795  0.47774094  0.94892890  1.0
  C  C118  1  0.65394496  0.47120034  0.52223899  1.0
  C  C119  1  0.18277941  0.05110476  0.52881528  1.0
  C  C120  1  0.32935882  0.27371809  0.80140381  1.0
  C  C121  1  0.05562752  0.52760345  0.72620226  1.0
  C  C122  1  0.52805825  0.19857049  0.47236192  1.0
  C  C123  1  0.67064032  0.72628208  0.19859673  1.0
  C  C124  1  0.94437451  0.47239672  0.27379752  1.0
  C  C125  1  0.47194221  0.80142845  0.52763715  1.0
  C  C126  1  0.40885713  0.37145773  0.76671400  1.0
  C  C127  1  0.03736122  0.39519079  0.62844950  1.0
  C  C128  1  0.64222715  0.23326071  0.60477826  1.0
  C  C129  1  0.59114329  0.62854305  0.23328694  1.0
  C  C130  1  0.96263792  0.60480938  0.37154999  1.0
  C  C131  1  0.35777489  0.76673945  0.39522204  1.0
  C  C132  1  0.00490472  0.75973493  0.28204749  1.0
  C  C133  1  0.24541240  0.52238236  0.24030818  1.0
  C  C134  1  0.72295760  0.71793697  0.47758416  1.0
  C  C135  1  0.99509570  0.24026585  0.71795292  1.0
  C  C136  1  0.75458801  0.47761842  0.75969276  1.0
  C  C137  1  0.27704251  0.28206320  0.52241594  1.0
  C  C138  1  0.10021369  0.78123171  0.24218192  1.0
  C  C139  1  0.31910573  0.46095571  0.21880640  1.0
  C  C140  1  0.85809975  0.75783967  0.53899813  1.0
  C  C141  1  0.89978418  0.21876784  0.75781716  1.0
  C  C142  1  0.68089596  0.53904569  0.78119495  1.0
  C  C143  1  0.14189685  0.24215927  0.46100159  1.0
  C  C144  1  0.12730176  0.86105817  0.25242146  1.0
  C  C145  1  0.26628629  0.39138401  0.13898573  1.0
  C  C146  1  0.87487696  0.74761926  0.60859040  1.0
  C  C147  1  0.87269870  0.13894077  0.74757813  1.0
  C  C148  1  0.73371128  0.60861493  0.86101671  1.0
  C  C149  1  0.12512376  0.25238214  0.39141032  1.0
  C  C150  1  0.22192382  0.88801862  0.22164504  1.0
  C  C151  1  0.33395005  0.33364332  0.11203679  1.0
  C  C152  1  0.00026633  0.77839945  0.66632683  1.0
  C  C153  1  0.77807694  0.11198093  0.77835539  1.0
  C  C154  1  0.66604844  0.66635746  0.88796396  1.0
  C  C155  1  0.99973601  0.22160133  0.33367379  1.0
  C  C156  1  0.29215126  0.83594848  0.17880396  1.0
  C  C157  1  0.45629991  0.34287228  0.16406297  1.0
  C  C158  1  0.11340690  0.82118456  0.65709374  1.0
  C  C159  1  0.70784889  0.16404984  0.82119480  1.0
  C  C160  1  0.54370147  0.65712850  0.83593649  1.0
  C  C161  1  0.88659352  0.17881622  0.34290615  1.0
  C  C162  1  0.26555988  0.75722186  0.16746720  1.0
  C  C163  1  0.50853151  0.41027087  0.24280046  1.0
  C  C164  1  0.09821637  0.83251705  0.58970502  1.0
  C  C165  1  0.73443865  0.24277708  0.83253271  1.0
  C  C166  1  0.49146794  0.58972991  0.75720038  1.0
  C  C167  1  0.90178120  0.16748189  0.41029427  1.0
  C  C168  1  0.16919332  0.72637361  0.19821959  1.0
  C  C169  1  0.44296532  0.47185371  0.27365280  1.0
  C  C170  1  0.97107572  0.80178431  0.52811574  1.0
  C  C171  1  0.83080617  0.27362533  0.80178042  1.0
  C  C172  1  0.55703606  0.52814707  0.72634772  1.0
  C  C173  1  0.02892354  0.19821031  0.47188075  1.0
  Br  Br174  1  0.25655603  0.99663191  0.23669075  1.0
  Br  Br175  1  0.26013011  0.24013985  0.00336321  1.0
  Br  Br176  1  0.01970290  0.76326229  0.75982240  1.0
  Br  Br177  1  0.74344504  0.00336826  0.76330998  1.0
  Br  Br178  1  0.73986999  0.75986031  0.99663690  1.0
  Br  Br179  1  0.98029751  0.23673850  0.24017801  1.0
  N  N180  1  0.85701983  0.52263703  0.12021007  1.0
  N  N181  1  0.33450845  0.59757201  0.47740117  1.0
  N  N182  1  0.73690520  0.87976861  0.40242895  1.0
  N  N183  1  0.14298028  0.47736314  0.87979056  1.0
  N  N184  1  0.66549069  0.40242816  0.52259779  1.0
  N  N185  1  0.26309714  0.12023217  0.59757218  1.0
  N  N186  1  0.31989262  0.29996873  0.74637441  1.0
  N  N187  1  0.01991437  0.44632360  0.69995449  1.0
  N  N188  1  0.57362549  0.25360708  0.55363283  1.0
  N  N189  1  0.68010718  0.70003082  0.25362591  1.0
  N  N190  1  0.98008604  0.55367718  0.30004540  1.0
  N  N191  1  0.42637400  0.74639185  0.44636666  1.0
  O  O192  1  0.15253562  0.65104137  0.18442552  1.0
  O  O193  1  0.50157036  0.53336513  0.34901466  1.0
  O  O194  1  0.96822683  0.81566846  0.46661687  1.0
  O  O195  1  0.84746387  0.34895757  0.81557345  1.0
  O  O196  1  0.49843102  0.46663566  0.65098637  1.0
  O  O197  1  0.03177297  0.18433110  0.53338240  1.0
  O  O198  1  0.98115467  0.69157373  0.28244839  1.0
  O  O199  1  0.29010993  0.59098062  0.30839999  1.0
  O  O200  1  0.69903754  0.71744973  0.40900157  1.0
  O  O201  1  0.01884320  0.30842582  0.71755069  1.0
  O  O202  1  0.70988952  0.40902016  0.69160032  1.0
  O  O203  1  0.30096257  0.28255043  0.59099801  1.0
  O  O204  1  0.94599025  0.81236208  0.31871305  1.0
  O  O205  1  0.13381792  0.50646921  0.18775471  1.0
  O  O206  1  0.62731156  0.68131808  0.49353327  1.0
  O  O207  1  0.05400889  0.18763808  0.68128644  1.0
  O  O208  1  0.86618250  0.49353158  0.81224571  1.0
  O  O209  1  0.37268855  0.31868209  0.50646684  1.0
