# generated using pymatgen
data_Zn4H12C27O13
_symmetry_space_group_name_H-M   'P 1'
_cell_length_a   16.10454841
_cell_length_b   16.13420061
_cell_length_c   16.13675902
_cell_angle_alpha   84.22914454
_cell_angle_beta   83.89225645
_cell_angle_gamma   89.80513150
_symmetry_Int_Tables_number   1
_chemical_formula_structural   Zn4H12C27O13
_chemical_formula_sum   'Zn4 H12 C27 O13'
_cell_volume   4147.83651065
_cell_formula_units_Z   1
loop_
 _symmetry_equiv_pos_site_id
 _symmetry_equiv_pos_as_xyz
  1  'x, y, z'
loop_
 _atom_site_type_symbol
 _atom_site_label
 _atom_site_symmetry_multiplicity
 _atom_site_fract_x
 _atom_site_fract_y
 _atom_site_fract_z
 _atom_site_occupancy
  Zn  Zn0  1  0.57130992  0.42894587  0.42995664  1.0
  Zn  Zn1  1  0.43679661  0.57756904  0.42876523  1.0
  Zn  Zn2  1  0.57154484  0.56297787  0.56423391  1.0
  Zn  Zn3  1  0.42212436  0.42910346  0.57867908  1.0
  H  H4  1  0.42772750  0.99181837  0.57206680  1.0
  H  H5  1  0.92788710  0.41079173  0.32811428  1.0
  H  H6  1  0.06782134  0.45193275  0.36972748  1.0
  H  H7  1  0.05944420  0.37083166  0.45104020  1.0
  H  H8  1  0.57177030  0.00813782  0.42842608  1.0
  H  H9  1  0.98893747  0.56072665  0.56119555  1.0
  H  H10  1  0.42776886  0.43491819  0.01537208  1.0
  H  H11  1  0.57167823  0.56442080  0.98471629  1.0
  H  H12  1  0.05906746  0.34609284  0.26164115  1.0
  H  H13  1  0.05068290  0.26390815  0.34393542  1.0
  H  H14  1  0.97305117  0.27581902  0.27344301  1.0
  H  H15  1  0.91959619  0.32943567  0.40954819  1.0
  C  C16  1  0.27530313  0.51092223  0.51080024  1.0
  C  C17  1  0.81475114  0.48430811  0.48392295  1.0
  C  C18  1  0.51775754  0.51593498  0.18442755  1.0
  C  C19  1  0.72550671  0.48911340  0.48872944  1.0
  C  C20  1  0.52497655  0.52235058  0.02078598  1.0
  C  C21  1  0.47449367  0.47701242  0.97946631  1.0
  C  C22  1  0.47964189  0.48164802  0.89185462  1.0
  C  C23  1  0.52072641  0.51856284  0.10829903  1.0
  C  C24  1  0.48286469  0.48461910  0.81569828  1.0
  C  C25  1  0.51244917  0.51126016  0.27458452  1.0
  C  C26  1  0.48779621  0.48909385  0.72599752  1.0
  C  C27  1  0.47962653  0.11024658  0.52018206  1.0
  C  C28  1  0.51241214  0.72413097  0.48756572  1.0
  C  C29  1  0.48773406  0.27532678  0.51189694  1.0
  C  C30  1  0.51780692  0.81376301  0.48231511  1.0
  C  C31  1  0.52500782  0.97672434  0.47507339  1.0
  C  C32  1  0.47449734  0.02310732  0.52539449  1.0
  C  C33  1  0.02186601  0.41477642  0.41381841  1.0
  C  C34  1  0.96505366  0.36664842  0.36526442  1.0
  C  C35  1  0.01461325  0.31006001  0.30796705  1.0
  C  C36  1  0.52077399  0.88960468  0.47935432  1.0
  C  C37  1  0.48292257  0.18610080  0.51679503  1.0
  C  C38  1  0.18557563  0.51458462  0.51485225  1.0
  C  C39  1  0.02237490  0.51951887  0.51956624  1.0
  C  C40  1  0.97834810  0.47291501  0.47247568  1.0
  C  C41  1  0.89075439  0.47976015  0.47944240  1.0
  C  C42  1  0.10952686  0.51706456  0.51720842  1.0
  O  O43  1  0.50014980  0.50035556  0.49986349  1.0
  O  O44  1  0.46247931  0.69455865  0.44153888  1.0
  O  O45  1  0.43647292  0.31066555  0.56302846  1.0
  O  O46  1  0.55778913  0.68420051  0.53771780  1.0
  O  O47  1  0.54285272  0.31048972  0.45675015  1.0
  O  O48  1  0.55791455  0.45667325  0.31001702  1.0
  O  O49  1  0.43665478  0.44302050  0.69565088  1.0
  O  O50  1  0.31549270  0.56224250  0.45564841  1.0
  O  O51  1  0.69025218  0.53884655  0.53837635  1.0
  O  O52  1  0.30516887  0.45669657  0.56233451  1.0
  O  O53  1  0.68988191  0.44304494  0.44270708  1.0
  O  O54  1  0.46246210  0.56219206  0.30915907  1.0
  O  O55  1  0.54294102  0.53880190  0.68547588  1.0
