# generated using pymatgen
data_CuH12C14N2(ClO)2
_symmetry_space_group_name_H-M   'P 1'
_cell_length_a   6.80010634
_cell_length_b   13.15646564
_cell_length_c   19.92500000
_cell_angle_alpha   90.00000000
_cell_angle_beta   90.00000000
_cell_angle_gamma   90.00000000
_symmetry_Int_Tables_number   1
_chemical_formula_structural   CuH12C14N2(ClO)2
_chemical_formula_sum   'Cu4 H48 C56 N8 Cl8 O8'
_cell_volume   1782.59740581
_cell_formula_units_Z   4
loop_
 _symmetry_equiv_pos_site_id
 _symmetry_equiv_pos_as_xyz
  1  'x, y, z'
loop_
 _atom_site_type_symbol
 _atom_site_label
 _atom_site_symmetry_multiplicity
 _atom_site_fract_x
 _atom_site_fract_y
 _atom_site_fract_z
 _atom_site_occupancy
  Cu  Cu0  1  0.24999903  0.00000152  0.02971593  1.0
  Cu  Cu1  1  0.74999562  0.49999979  0.47027905  1.0
  Cu  Cu2  1  0.75000445  0.00000076  0.97028407  1.0
  Cu  Cu3  1  0.25000050  0.50000131  0.52972045  1.0
  H  H4  1  0.39142623  0.09698273  0.28221129  1.0
  H  H5  1  0.89143753  0.40302085  0.21776863  1.0
  H  H6  1  0.60856107  0.59698024  0.21776763  1.0
  H  H7  1  0.10857183  0.90301760  0.28221029  1.0
  H  H8  1  0.60857284  0.90302444  0.71778871  1.0
  H  H9  1  0.10854683  0.59698328  0.78222886  1.0
  H  H10  1  0.39145123  0.40301857  0.78222886  1.0
  H  H11  1  0.89142577  0.09697589  0.71778921  1.0
  H  H12  1  0.25347692  0.17839138  0.38428306  1.0
  H  H13  1  0.75346763  0.32160005  0.11570389  1.0
  H  H14  1  0.74653538  0.67839724  0.11570238  1.0
  H  H15  1  0.24651820  0.82160668  0.38428306  1.0
  H  H16  1  0.74651333  0.82161428  0.61571794  1.0
  H  H17  1  0.24652409  0.67839648  0.88429812  1.0
  H  H18  1  0.25347986  0.32160385  0.88429812  1.0
  H  H19  1  0.75348969  0.17838301  0.61571694  1.0
  H  H20  1  0.89762861  0.22096740  0.38956085  1.0
  H  H21  1  0.39763643  0.27900274  0.11043664  1.0
  H  H22  1  0.10236605  0.72099531  0.11043363  1.0
  H  H23  1  0.60236852  0.77902989  0.38955985  1.0
  H  H24  1  0.10234840  0.77901469  0.61044316  1.0
  H  H25  1  0.60236264  0.72097175  0.88957641  1.0
  H  H26  1  0.89763890  0.27902479  0.88957591  1.0
  H  H27  1  0.39765113  0.22097956  0.61044166  1.0
  H  H28  1  0.68083788  0.18492581  0.29214655  1.0
  H  H29  1  0.18084276  0.31507854  0.20784793  1.0
  H  H30  1  0.31915971  0.68492103  0.20784743  1.0
  H  H31  1  0.81915631  0.81506845  0.29214555  1.0
  H  H32  1  0.31914354  0.81507301  0.70785144  1.0
  H  H33  1  0.81914601  0.68493091  0.79215859  1.0
  H  H34  1  0.68085259  0.31507018  0.79215759  1.0
  H  H35  1  0.18085452  0.18491820  0.70784893  1.0
  H  H36  1  0.81924307  0.10690333  0.18878595  1.0
  H  H37  1  0.31927001  0.39309721  0.31120753  1.0
  H  H38  1  0.18072953  0.60690464  0.31120703  1.0
  H  H39  1  0.68076288  0.89309092  0.18878444  1.0
  H  H40  1  0.18076629  0.89308636  0.81121706  1.0
  H  H41  1  0.68073494  0.60691908  0.68879548  1.0
  H  H42  1  0.81926807  0.39308809  0.68879649  1.0
  H  H43  1  0.31923177  0.10691017  0.81121656  1.0
  H  H44  1  0.05345799  0.17620614  0.04937716  1.0
  H  H45  1  0.55340311  0.32377009  0.45058018  1.0
  H  H46  1  0.94659402  0.67623101  0.45058118  1.0
  H  H47  1  0.44653713  0.82379647  0.04937566  1.0
  H  H48  1  0.94659990  0.82380255  0.95061782  1.0
  H  H49  1  0.44654449  0.67623405  0.54941280  1.0
  H  H50  1  0.05345505  0.32376628  0.54941481  1.0
  H  H51  1  0.55339723  0.17619778  0.95061932  1.0
  C  C52  1  0.19169994  0.04783732  0.16781681  1.0
  C  C53  1  0.69168624  0.45217387  0.33216612  1.0
  C  C54  1  0.80830795  0.54783178  0.33216612  1.0
  C  C55  1  0.30830547  0.95216606  0.16781681  1.0
  C  C56  1  0.80830501  0.95216910  0.83218469  1.0
  C  C57  1  0.30830988  0.54783482  0.66783689  1.0
  C  C58  1  0.19169112  0.45216855  0.66783739  1.0
  C  C59  1  0.69169948  0.04783808  0.83218419  1.0
  C  C60  1  0.11408939  0.09563815  0.22918243  1.0
  C  C61  1  0.61409334  0.40435556  0.27080100  1.0
  C  C62  1  0.88590526  0.59564705  0.27080050  1.0
  C  C63  1  0.38591308  0.90435914  0.22918243  1.0
  C  C64  1  0.88591703  0.90435914  0.77081706  1.0
  C  C65  1  0.38590279  0.59564857  0.72920251  1.0
  C  C66  1  0.11409822  0.40435328  0.72920100  1.0
  C  C67  1  0.61408598  0.09564423  0.77081656  1.0
  C  C68  1  0.23573161  0.11572941  0.28458570  1.0
  C  C69  1  0.73574732  0.38427266  0.21539875  1.0
  C  C70  1  0.76425717  0.61572768  0.21539875  1.0
  C  C71  1  0.26427675  0.88426864  0.28458570  1.0
  C  C72  1  0.76427775  0.88428080  0.71541531  1.0
  C  C73  1  0.26425910  0.61573224  0.78460025  1.0
  C  C74  1  0.23574778  0.38426810  0.78460075  1.0
  C  C75  1  0.73571791  0.11572029  0.71541631  1.0
  C  C76  1  0.15785488  0.16076430  0.34198896  1.0
  C  C77  1  0.65786324  0.33923092  0.15799598  1.0
  C  C78  1  0.84213977  0.66076713  0.15799398  1.0
  C  C79  1  0.34214318  0.83923375  0.34198795  1.0
  C  C80  1  0.84212801  0.83923983  0.65800853  1.0
  C  C81  1  0.34212259  0.66076865  0.84200703  1.0
  C  C82  1  0.15787400  0.33923092  0.84200602  1.0
  C  C83  1  0.65787501  0.16075822  0.65800803  1.0
  C  C84  1  0.95804678  0.18491668  0.34487880  1.0
  C  C85  1  0.45804872  0.31507398  0.15511117  1.0
  C  C86  1  0.04195081  0.68492407  0.15511267  1.0
  C  C87  1  0.54194741  0.81508137  0.34487829  1.0
  C  C88  1  0.04194199  0.81507757  0.65511970  1.0
  C  C89  1  0.54194741  0.68492255  0.84489686  1.0
  C  C90  1  0.95805855  0.31508006  0.84489335  1.0
  C  C91  1  0.45805460  0.18491744  0.65511870  1.0
  C  C92  1  0.83600604  0.16448034  0.29007378  1.0
  C  C93  1  0.33601533  0.33552096  0.20991719  1.0
  C  C94  1  0.16398126  0.66447785  0.20991669  1.0
  C  C95  1  0.66399991  0.83551315  0.29007428  1.0
  C  C96  1  0.16400185  0.83551543  0.70992422  1.0
  C  C97  1  0.66399109  0.66449153  0.79008532  1.0
  C  C98  1  0.83601781  0.33551336  0.79008582  1.0
  C  C99  1  0.33598886  0.16447806  0.70992221  1.0
  C  C100  1  0.91327101  0.12087821  0.23209435  1.0
  C  C101  1  0.41329501  0.37912006  0.26788708  1.0
  C  C102  1  0.08670453  0.62088180  0.26788557  1.0
  C  C103  1  0.58673200  0.87911680  0.23209335  1.0
  C  C104  1  0.08672217  0.87911680  0.76790263  1.0
  C  C105  1  0.58669965  0.62088940  0.73211343  1.0
  C  C106  1  0.91329748  0.37911322  0.73211343  1.0
  C  C107  1  0.41327736  0.12087973  0.76790314  1.0
  N  N108  1  0.16063866  0.08295009  0.10757641  1.0
  N  N109  1  0.66053967  0.41707858  0.39240301  1.0
  N  N110  1  0.83945599  0.58292327  0.39240301  1.0
  N  N111  1  0.33936234  0.91705328  0.10757541  1.0
  N  N112  1  0.83939570  0.91706240  0.89242560  1.0
  N  N113  1  0.33943881  0.58292935  0.60759900  1.0
  N  N114  1  0.16056219  0.41707326  0.60759950  1.0
  N  N115  1  0.66060732  0.08294173  0.89242660  1.0
  Cl  Cl116  1  0.11895990  0.11288594  0.95657064  1.0
  Cl  Cl117  1  0.61902708  0.38707508  0.54338570  1.0
  Cl  Cl118  1  0.88097446  0.61292145  0.54338670  1.0
  Cl  Cl119  1  0.38103816  0.88711819  0.95657014  1.0
  Cl  Cl120  1  0.88107887  0.88712503  0.04342384  1.0
  Cl  Cl121  1  0.38092493  0.61293589  0.45660728  1.0
  Cl  Cl122  1  0.11906873  0.38706596  0.45660828  1.0
  Cl  Cl123  1  0.61892120  0.11287378  0.04342484  1.0
  O  O124  1  0.06417988  0.17275460  0.09972647  1.0
  O  O125  1  0.56418971  0.32723682  0.40023438  1.0
  O  O126  1  0.93580742  0.67276579  0.40023639  1.0
  O  O127  1  0.43582260  0.82724725  0.09972547  1.0
  O  O128  1  0.93582507  0.82724877  0.90026951  1.0
  O  O129  1  0.43581965  0.67276199  0.59976010  1.0
  O  O130  1  0.06417988  0.32724062  0.59976211  1.0
  O  O131  1  0.56417794  0.17275460  0.90027102  1.0
