# generated using pymatgen
data_Zn4H28(C12O5)3
_symmetry_space_group_name_H-M   'P 1'
_cell_length_a   18.63516887
_cell_length_b   18.64051498
_cell_length_c   21.74169255
_cell_angle_alpha   115.35740049
_cell_angle_beta   115.37281829
_cell_angle_gamma   90.01047805
_symmetry_Int_Tables_number   1
_chemical_formula_structural   Zn4H28(C12O5)3
_chemical_formula_sum   'Zn8 H56 C72 O30'
_cell_volume   6008.33326973
_cell_formula_units_Z   2
loop_
 _symmetry_equiv_pos_site_id
 _symmetry_equiv_pos_as_xyz
  1  'x, y, z'
loop_
 _atom_site_type_symbol
 _atom_site_label
 _atom_site_symmetry_multiplicity
 _atom_site_fract_x
 _atom_site_fract_y
 _atom_site_fract_z
 _atom_site_occupancy
  Zn  Zn0  1  0.94805063  0.53335131  0.06711627  1.0
  Zn  Zn1  1  0.38172798  0.96748312  0.93464428  1.0
  Zn  Zn2  1  0.96703896  0.55259595  0.93437540  1.0
  Zn  Zn3  1  0.55297538  0.96744532  0.93469000  1.0
  Zn  Zn4  1  0.96711614  0.38182103  0.93444071  1.0
  Zn  Zn5  1  0.53316853  0.11910332  0.06684108  1.0
  Zn  Zn6  1  0.11899754  0.53365881  0.06692753  1.0
  Zn  Zn7  1  0.53354429  0.94764299  0.06668332  1.0
  H  H8  1  0.68688167  0.78011290  0.08038297  1.0
  H  H9  1  0.78913827  0.39242052  0.08821799  1.0
  H  H10  1  0.48131471  0.66392731  0.47296763  1.0
  H  H11  1  0.44488423  0.63810471  0.31226106  1.0
  H  H12  1  0.53530051  0.69803743  0.39926311  1.0
  H  H13  1  0.56454656  0.57227586  0.41555649  1.0
  H  H14  1  0.55526841  0.55872308  0.32643358  1.0
  H  H15  1  0.47374695  0.51237709  0.32842000  1.0
  H  H16  1  0.60139322  0.99471367  0.38526465  1.0
  H  H17  1  0.66397100  0.99167643  0.47297968  1.0
  H  H18  1  0.63807600  0.86747585  0.31226074  1.0
  H  H19  1  0.69797517  0.86400593  0.39924756  1.0
  H  H20  1  0.39216587  0.29918133  0.08824011  1.0
  H  H21  1  0.57213086  0.85105228  0.41547257  1.0
  H  H22  1  0.55855668  0.77127950  0.32634931  1.0
  H  H23  1  0.51229296  0.85480096  0.32836287  1.0
  H  H24  1  0.29878618  0.69598387  0.08809259  1.0
  H  H25  1  0.39336336  0.78012977  0.08049863  1.0
  H  H26  1  0.30038428  0.39370055  0.08044640  1.0
  H  H27  1  0.68689622  0.30065980  0.08063304  1.0
  H  H28  1  0.78908231  0.69599647  0.08836840  1.0
  H  H29  1  0.72467069  0.80673204  0.96579282  1.0
  H  H30  1  0.78808129  0.24412556  0.94993651  1.0
  H  H31  1  0.24391595  0.16188667  0.94992849  1.0
  H  H32  1  0.16147239  0.70580956  0.94967347  1.0
  H  H33  1  0.24128246  0.80688378  0.96577382  1.0
  H  H34  1  0.15895724  0.24161498  0.96598628  1.0
  H  H35  1  0.72443461  0.15928350  0.96605424  1.0
  H  H36  1  0.78836268  0.70573899  0.95005523  1.0
  H  H37  1  0.46321228  0.85950689  0.69663727  1.0
  H  H38  1  0.85968388  0.23345138  0.69650256  1.0
  H  H39  1  0.23367542  0.83706413  0.69671779  1.0
  H  H40  1  0.83698158  0.46289009  0.69643792  1.0
  H  H41  1  0.10352158  0.76893624  0.57164087  1.0
  H  H42  1  0.76891755  0.46794910  0.57136660  1.0
  H  H43  1  0.46825101  0.80269118  0.57168779  1.0
  H  H44  1  0.80274499  0.10346089  0.57161095  1.0
  H  H45  1  0.03755433  0.64153573  0.30488259  1.0
  H  H46  1  0.64150187  0.26719543  0.30464341  1.0
  H  H47  1  0.26763229  0.66315446  0.30494083  1.0
  H  H48  1  0.66332378  0.03731080  0.30482421  1.0
  H  H49  1  0.99459364  0.78383677  0.38523134  1.0
  H  H50  1  0.99172581  0.80893716  0.47300871  1.0
  H  H51  1  0.86740828  0.67409063  0.31235950  1.0
  H  H52  1  0.86405357  0.70114420  0.39939031  1.0
  H  H53  1  0.85097382  0.84314485  0.41556239  1.0
  H  H54  1  0.77114095  0.76758102  0.32645026  1.0
  H  H55  1  0.85465723  0.81590951  0.32844145  1.0
  H  H56  1  0.78381096  0.39046917  0.38503592  1.0
  H  H57  1  0.80891260  0.48108561  0.47278803  1.0
  H  H58  1  0.67412044  0.44487389  0.31211948  1.0
  H  H59  1  0.70124328  0.53519133  0.39917837  1.0
  H  H60  1  0.84330328  0.56440822  0.41545496  1.0
  H  H61  1  0.76779015  0.55519131  0.32633352  1.0
  H  H62  1  0.81607918  0.47365978  0.32830640  1.0
  H  H63  1  0.39057619  0.60142469  0.38525977  1.0
  C  C64  1  0.89550753  0.39513045  0.79047518  1.0
  C  C65  1  0.75818488  0.40171578  0.54011486  1.0
  C  C66  1  0.82558319  0.39679981  0.66389219  1.0
  C  C67  1  0.39709124  0.83839496  0.66412196  1.0
  C  C68  1  0.83848076  0.26699243  0.66393901  1.0
  C  C69  1  0.26722667  0.82566245  0.66415263  1.0
  C  C70  1  0.35227152  0.85207888  0.70432219  1.0
  C  C71  1  0.85212835  0.35196607  0.70407099  1.0
  C  C72  1  0.22543746  0.78520780  0.58307542  1.0
  C  C73  1  0.40200442  0.78210767  0.54038897  1.0
  C  C74  1  0.78508022  0.35750089  0.58283433  1.0
  C  C75  1  0.35774055  0.79788632  0.58305413  1.0
  C  C76  1  0.79785425  0.22524619  0.58289327  1.0
  C  C77  1  0.27091822  0.77092188  0.54173732  1.0
  C  C78  1  0.77076299  0.27071272  0.54155035  1.0
  C  C79  1  0.78210448  0.13836544  0.54027506  1.0
  C  C80  1  0.97404111  0.75910165  0.41443885  1.0
  C  C81  1  0.88261754  0.72561776  0.36916111  1.0
  C  C82  1  0.83739244  0.79156075  0.35938874  1.0
  C  C83  1  0.75905904  0.44020248  0.41420547  1.0
  C  C84  1  0.72567765  0.48639007  0.36894516  1.0
  C  C85  1  0.79172719  0.52183902  0.35924343  1.0
  C  C86  1  0.44040732  0.65526446  0.41440751  1.0
  C  C87  1  0.48650029  0.64337352  0.36907394  1.0
  C  C88  1  0.52193959  0.56765738  0.35935564  1.0
  C  C89  1  0.09870292  0.71988740  0.46135230  1.0
  C  C90  1  0.65525799  0.97403424  0.41440552  1.0
  C  C91  1  0.64331488  0.88263574  0.36905519  1.0
  C  C92  1  0.56755085  0.83750262  0.35929599  1.0
  C  C93  1  0.71972785  0.36248856  0.46108849  1.0
  C  C94  1  0.36284524  0.74151596  0.46136762  1.0
  C  C95  1  0.74147147  0.09851695  0.46125048  1.0
  C  C96  1  0.39554299  0.89511480  0.79076772  1.0
  C  C97  1  0.14292272  0.70351160  0.41793204  1.0
  C  C98  1  0.70327748  0.27487037  0.41770842  1.0
  C  C99  1  0.27520159  0.71454948  0.41796364  1.0
  C  C100  1  0.71439933  0.14271918  0.41780894  1.0
  C  C101  1  0.22990665  0.72992830  0.45967038  1.0
  C  C102  1  0.72970578  0.22967632  0.45949976  1.0
  C  C103  1  0.10355648  0.66281338  0.33701536  1.0
  C  C104  1  0.66275232  0.23333328  0.33679115  1.0
  C  C105  1  0.23372695  0.67408411  0.33704834  1.0
  C  C106  1  0.67412502  0.10329180  0.33689128  1.0
  C  C107  1  0.14866471  0.64835171  0.29703331  1.0
  C  C108  1  0.64850455  0.14829212  0.29681746  1.0
  C  C109  1  0.10552077  0.60495167  0.21071131  1.0
  C  C110  1  0.60558101  0.10512764  0.21046840  1.0
  C  C111  1  0.86103444  0.36440239  0.99941500  1.0
  C  C112  1  0.13851688  0.75828653  0.54039262  1.0
  C  C113  1  0.36415705  0.13839972  0.99963711  1.0
  C  C114  1  0.13793782  0.63545462  0.99954706  1.0
  C  C115  1  0.63892351  0.86477833  0.00248332  1.0
  C  C116  1  0.13764043  0.36399685  0.00293833  1.0
  C  C117  1  0.63880852  0.13802382  0.00285604  1.0
  C  C118  1  0.86175367  0.63553382  0.00002966  1.0
  C  C119  1  0.36369570  0.86538729  0.00294754  1.0
  C  C120  1  0.71584879  0.77084223  0.04401213  1.0
  C  C121  1  0.77176235  0.32827699  0.04491557  1.0
  C  C122  1  0.32802580  0.27319017  0.04485200  1.0
  C  C123  1  0.27278292  0.71670328  0.04467352  1.0
  C  C124  1  0.32806682  0.77092138  0.04398807  1.0
  C  C125  1  0.27312592  0.32842311  0.04407217  1.0
  C  C126  1  0.71579009  0.27340996  0.04423260  1.0
  C  C127  1  0.77182565  0.71668280  0.04493633  1.0
  C  C128  1  0.69739117  0.81134719  0.00243662  1.0
  C  C129  1  0.80337195  0.30648072  0.99573166  1.0
  C  C130  1  0.30626650  0.19238879  0.99578534  1.0
  C  C131  1  0.19196321  0.68934395  0.99555767  1.0
  C  C132  1  0.30517888  0.81156499  0.00254341  1.0
  C  C133  1  0.19102794  0.30549122  0.00262381  1.0
  C  C134  1  0.69721530  0.19136802  0.00272321  1.0
  C  C135  1  0.80367393  0.68930506  0.99595461  1.0
  O  O136  1  0.00041382  0.50045948  0.00089229  1.0
  O  O137  1  0.47342610  0.91369437  0.82431472  1.0
  O  O138  1  0.91425306  0.35082597  0.82403110  1.0
  O  O139  1  0.35127680  0.90991539  0.82432738  1.0
  O  O140  1  0.02768111  0.58769866  0.17729134  1.0
  O  O141  1  0.58851175  0.14955855  0.17705779  1.0
  O  O142  1  0.14990838  0.58858461  0.17724596  1.0
  O  O143  1  0.58941929  0.02730588  0.17699538  1.0
  O  O144  1  0.50042880  0.00049213  0.00086592  1.0
  O  O145  1  0.88894103  0.33258838  0.95155330  1.0
  O  O146  1  0.33238381  0.06267088  0.95161169  1.0
  O  O147  1  0.06205692  0.61980603  0.95203853  1.0
  O  O148  1  0.62389602  0.89368941  0.95546561  1.0
  O  O149  1  0.06158405  0.33186691  0.95672361  1.0
  O  O150  1  0.62430101  0.06211508  0.95621296  1.0
  O  O151  1  0.89031741  0.62031170  0.95272233  1.0
  O  O152  1  0.33158646  0.89494500  0.95647837  1.0
  O  O153  1  0.17006063  0.60939382  0.04868669  1.0
  O  O154  1  0.60859700  0.87762180  0.04801806  1.0
  O  O155  1  0.87819916  0.43958927  0.04861246  1.0
  O  O156  1  0.43930802  0.17036200  0.04909918  1.0
  O  O157  1  0.87866239  0.60916836  0.04896065  1.0
  O  O158  1  0.43957910  0.87801553  0.04824527  1.0
  O  O159  1  0.17036393  0.43989416  0.04791298  1.0
  O  O160  1  0.60809963  0.17064638  0.04807343  1.0
  O  O161  1  0.91042877  0.47291341  0.82398775  1.0
  O  O162  1  0.01471987  0.69456932  0.42072215  1.0
  O  O163  1  0.69445467  0.40582957  0.42044113  1.0
  O  O164  1  0.40619405  0.72617994  0.42074953  1.0
  O  O165  1  0.72615554  0.01457589  0.42068409  1.0
