# generated using pymatgen
data_Al2H18C26O11
_symmetry_space_group_name_H-M   'P 1'
_cell_length_a   6.89991960
_cell_length_b   11.12489268
_cell_length_c   17.59158492
_cell_angle_alpha   79.96947591
_cell_angle_beta   81.69714750
_cell_angle_gamma   72.13189894
_symmetry_Int_Tables_number   1
_chemical_formula_structural   Al2H18C26O11
_chemical_formula_sum   'Al2 H18 C26 O11'
_cell_volume   1259.59244265
_cell_formula_units_Z   1
loop_
 _symmetry_equiv_pos_site_id
 _symmetry_equiv_pos_as_xyz
  1  'x, y, z'
loop_
 _atom_site_type_symbol
 _atom_site_label
 _atom_site_symmetry_multiplicity
 _atom_site_fract_x
 _atom_site_fract_y
 _atom_site_fract_z
 _atom_site_occupancy
  Al  Al0  1  0.49983609  0.50061227  0.50091102  1.0
  Al  Al1  1  0.00169592  0.49720835  0.50070817  1.0
  H  H2  1  0.23413448  0.60026261  0.41144153  1.0
  H  H3  1  0.79796288  0.35207883  0.56166784  1.0
  H  H4  1  0.13393528  0.11523810  0.49257766  1.0
  H  H5  1  0.75055940  0.12036543  0.50553321  1.0
  H  H6  1  0.25732228  0.87968095  0.49537189  1.0
  H  H7  1  0.54587975  0.48981329  0.25810153  1.0
  H  H8  1  0.63838156  0.48777496  0.11459752  1.0
  H  H9  1  0.15142932  0.50144599  0.27921803  1.0
  H  H10  1  0.85098512  0.49536584  0.72062848  1.0
  H  H11  1  0.45213024  0.51451836  0.74182699  1.0
  H  H12  1  0.35912162  0.51575687  0.88560497  1.0
  H  H13  1  0.93611755  0.78489492  0.51015326  1.0
  H  H14  1  0.41285120  0.41038531  0.15280326  1.0
  H  H15  1  0.31815561  0.50278380  0.06555388  1.0
  H  H16  1  0.33979884  0.57930779  0.14364631  1.0
  H  H17  1  0.65928948  0.42037161  0.85411156  1.0
  H  H18  1  0.68455136  0.49027257  0.93470544  1.0
  H  H19  1  0.58807443  0.58867264  0.84937432  1.0
  C  C20  1  0.79659287  0.50386430  0.36222585  1.0
  C  C21  1  0.64030601  0.72694524  0.50208211  1.0
  C  C22  1  0.20325176  0.49871379  0.63792998  1.0
  C  C23  1  0.36143741  0.27254763  0.50005385  1.0
  C  C24  1  0.57267171  0.86642947  0.50170082  1.0
  C  C25  1  0.43513865  0.13165558  0.49939206  1.0
  C  C26  1  0.71384384  0.93514808  0.50482926  1.0
  C  C27  1  0.29506896  0.06407491  0.49604350  1.0
  C  C28  1  0.64240147  0.06776890  0.50335050  1.0
  C  C29  1  0.36437492  0.93313465  0.49732196  1.0
  C  C30  1  0.84323983  0.49821348  0.27728742  1.0
  C  C31  1  0.69718231  0.49265387  0.23112920  1.0
  C  C32  1  0.74743805  0.49136394  0.15201340  1.0
  C  C33  1  0.94210735  0.49543728  0.11656916  1.0
  C  C34  1  0.09097280  0.49785761  0.16311664  1.0
  C  C35  1  0.03838107  0.49936766  0.24247195  1.0
  C  C36  1  0.98354154  0.49808968  0.03523953  1.0
  C  C37  1  0.01524355  0.50236273  0.96477608  1.0
  C  C38  1  0.05701029  0.50515088  0.88342733  1.0
  C  C39  1  0.90936298  0.50080022  0.83691666  1.0
  C  C40  1  0.96222954  0.49956488  0.75753562  1.0
  C  C41  1  0.15641277  0.50333681  0.72290124  1.0
  C  C42  1  0.30149959  0.51041434  0.76895927  1.0
  C  C43  1  0.25094413  0.51114934  0.84810734  1.0
  C  C44  1  0.30144067  0.49795812  0.12886446  1.0
  C  C45  1  0.69946413  0.49934530  0.87120363  1.0
  O  O46  1  0.61958352  0.49931717  0.39363026  1.0
  O  O47  1  0.83297782  0.66997209  0.50760006  1.0
  O  O48  1  0.06146678  0.48617947  0.60342242  1.0
  O  O49  1  0.49445381  0.32787674  0.50623713  1.0
  O  O50  1  0.37831693  0.50614164  0.60626464  1.0
  O  O51  1  0.17029323  0.32599610  0.49545881  1.0
  O  O52  1  0.94034882  0.51468977  0.39663453  1.0
  O  O53  1  0.50882663  0.67140189  0.49605354  1.0
  O  O54  1  0.23312413  0.56047482  0.46506267  1.0
  O  O55  1  0.76700967  0.43889580  0.53529282  1.0
  O  O56  1  0.91593661  0.87824250  0.50921341  1.0
