# generated using pymatgen
data_Zn4H3C35Cl8O13F10
_symmetry_space_group_name_H-M   'P 1'
_cell_length_a   18.32739802
_cell_length_b   18.40211042
_cell_length_c   18.45289027
_cell_angle_alpha   60.36666969
_cell_angle_beta   60.45527548
_cell_angle_gamma   60.51699577
_symmetry_Int_Tables_number   1
_chemical_formula_structural   Zn4H3C35Cl8O13F10
_chemical_formula_sum   'Zn8 H6 C70 Cl16 O26 F20'
_cell_volume   4445.04846107
_cell_formula_units_Z   2
loop_
 _symmetry_equiv_pos_site_id
 _symmetry_equiv_pos_as_xyz
  1  'x, y, z'
loop_
 _atom_site_type_symbol
 _atom_site_label
 _atom_site_symmetry_multiplicity
 _atom_site_fract_x
 _atom_site_fract_y
 _atom_site_fract_z
 _atom_site_occupancy
  Zn  Zn0  1  0.94956056  0.46192493  0.12980379  1.0
  Zn  Zn1  1  0.12667056  0.45597656  0.96316433  1.0
  Zn  Zn2  1  0.95478236  0.63170736  0.95703754  1.0
  Zn  Zn3  1  0.95777033  0.45685033  0.95130369  1.0
  Zn  Zn4  1  0.53720951  0.04741489  0.36795861  1.0
  Zn  Zn5  1  0.53997727  0.87164360  0.53959189  1.0
  Zn  Zn6  1  0.36903313  0.04585796  0.54894982  1.0
  Zn  Zn7  1  0.54849303  0.04559029  0.53623356  1.0
  H  H8  1  0.14478180  0.11308338  0.15781289  1.0
  H  H9  1  0.82146835  0.52621509  0.77466441  1.0
  H  H10  1  0.15404530  0.13537138  0.76477427  1.0
  H  H11  1  0.43029345  0.66060350  0.59686257  1.0
  H  H12  1  0.07704043  0.33184481  0.32325335  1.0
  H  H13  1  0.36878431  0.29542534  0.03858636  1.0
  C  C14  1  0.14214099  0.36811767  0.85768610  1.0
  C  C15  1  0.92638571  0.18668337  0.33847424  1.0
  C  C16  1  0.00687396  0.15374923  0.35286362  1.0
  C  C17  1  0.08580985  0.12564486  0.28732555  1.0
  C  C18  1  0.78012068  0.17147695  0.30336193  1.0
  C  C19  1  0.69818036  0.19486731  0.29653289  1.0
  C  C20  1  0.66705758  0.27696416  0.23473803  1.0
  C  C21  1  0.72085249  0.33061260  0.18404390  1.0
  C  C22  1  0.80306872  0.30633039  0.19018565  1.0
  C  C23  1  0.83401791  0.22497755  0.25161079  1.0
  C  C24  1  0.57412128  0.33964662  0.13980129  1.0
  C  C25  1  0.86947895  0.64356914  0.13408060  1.0
  C  C26  1  0.49321750  0.37648165  0.12514452  1.0
  C  C27  1  0.41405165  0.38196494  0.19758630  1.0
  C  C28  1  0.41756112  0.34988286  0.28305176  1.0
  C  C29  1  0.50004265  0.31613421  0.29336376  1.0
  C  C30  1  0.58034455  0.30996779  0.22320294  1.0
  C  C31  1  0.76385005  0.67201223  0.27705579  1.0
  C  C32  1  0.82084291  0.69947914  0.19157629  1.0
  C  C33  1  0.82468937  0.78359810  0.16494057  1.0
  C  C34  1  0.77177516  0.83890465  0.21793085  1.0
  C  C35  1  0.71072370  0.81107259  0.30211546  1.0
  C  C36  1  0.12665584  0.36092563  0.14702570  1.0
  C  C37  1  0.71141774  0.72510790  0.32978484  1.0
  C  C38  1  0.66270347  0.66090982  0.40358034  1.0
  C  C39  1  0.72514372  0.59831354  0.34127287  1.0
  C  C40  1  0.78968332  0.66755806  0.75731476  1.0
  C  C41  1  0.79703757  0.69583917  0.81047393  1.0
  C  C42  1  0.73863741  0.78076790  0.81307009  1.0
  C  C43  1  0.67945583  0.83358786  0.76408028  1.0
  C  C44  1  0.67409631  0.80512061  0.70951994  1.0
  C  C45  1  0.73080081  0.71912069  0.71006291  1.0
  C  C46  1  0.75939611  0.64832698  0.67295698  1.0
  C  C47  1  0.86098922  0.63901625  0.86075260  1.0
  C  C48  1  0.82853092  0.59022399  0.72561585  1.0
  C  C49  1  0.17115358  0.27858398  0.77133486  1.0
  C  C50  1  0.20204387  0.31670520  0.79549847  1.0
  C  C51  1  0.29423316  0.30073980  0.75690262  1.0
  C  C52  1  0.35032164  0.24821997  0.70146570  1.0
  C  C53  1  0.31833760  0.20737318  0.68129709  1.0
  C  C54  1  0.22619062  0.22600498  0.71811814  1.0
  C  C55  1  0.15253865  0.20409122  0.72634835  1.0
  C  C56  1  0.08774325  0.26801071  0.78544143  1.0
  C  C57  1  0.26173713  0.68046098  0.74343063  1.0
  C  C58  1  0.13709929  0.63567810  0.87882256  1.0
  C  C59  1  0.19582693  0.69163889  0.82234897  1.0
  C  C60  1  0.18565153  0.76294037  0.83906587  1.0
  C  C61  1  0.23794082  0.81865674  0.78015065  1.0
  C  C62  1  0.30271779  0.80765911  0.69983631  1.0
  C  C63  1  0.31182761  0.73627785  0.68431918  1.0
  C  C64  1  0.35813748  0.69317460  0.61430757  1.0
  C  C65  1  0.30305560  0.62621897  0.68414308  1.0
  C  C66  1  0.27265831  0.25965462  0.17390935  1.0
  C  C67  1  0.18245716  0.30556417  0.20521649  1.0
  C  C68  1  0.14714873  0.29803519  0.29440536  1.0
  C  C69  1  0.85660787  0.36805308  0.13307540  1.0
  C  C70  1  0.20078079  0.24751076  0.34798069  1.0
  C  C71  1  0.29189442  0.20044581  0.31771110  1.0
  C  C72  1  0.32428130  0.20906566  0.22855412  1.0
  C  C73  1  0.40631539  0.17954047  0.15508937  1.0
  C  C74  1  0.34705078  0.23968902  0.09240658  1.0
  C  C75  1  0.61919909  0.86322010  0.64985484  1.0
  C  C76  1  0.35091715  0.14392149  0.37276306  1.0
  C  C77  1  0.64528781  0.86811911  0.35871576  1.0
  C  C78  1  0.37512504  0.14647750  0.62839071  1.0
  C  C79  1  0.35829341  0.86635995  0.63673179  1.0
  C  C80  1  0.08369172  0.13406224  0.20882791  1.0
  C  C81  1  0.64502529  0.13290080  0.35412881  1.0
  C  C82  1  0.00197163  0.16803794  0.19797704  1.0
  C  C83  1  0.92096104  0.19410406  0.26194533  1.0
  Cl  Cl84  1  0.18621125  0.07853730  0.30366968  1.0
  Cl  Cl85  1  0.31397776  0.42776337  0.18188756  1.0
  Cl  Cl86  1  0.32381111  0.35096398  0.37438010  1.0
  Cl  Cl87  1  0.78716583  0.93852022  0.17575351  1.0
  Cl  Cl88  1  0.68113412  0.61279665  0.50532211  1.0
  Cl  Cl89  1  0.54761813  0.70242219  0.42017429  1.0
  Cl  Cl90  1  0.67060698  0.57411044  0.30359032  1.0
  Cl  Cl91  1  0.67817750  0.60077826  0.70858037  1.0
  Cl  Cl92  1  0.13454082  0.23352036  0.62824237  1.0
  Cl  Cl93  1  0.01065119  0.36585976  0.74035906  1.0
  Cl  Cl94  1  0.03400531  0.21049425  0.89654351  1.0
  Cl  Cl95  1  0.33326524  0.76268105  0.51467127  1.0
  Cl  Cl96  1  0.23019792  0.61936490  0.65326213  1.0
  Cl  Cl97  1  0.33389880  0.18445381  0.04554363  1.0
  Cl  Cl98  1  0.00663277  0.14833986  0.44820665  1.0
  Cl  Cl99  1  0.49298131  0.41361678  0.02003617  1.0
  O  O100  1  0.99620350  0.50156676  0.99991044  1.0
  O  O101  1  0.04288555  0.38090559  0.18436739  1.0
  O  O102  1  0.88265056  0.55604284  0.88003081  1.0
  O  O103  1  0.17868832  0.38457367  0.88860510  1.0
  O  O104  1  0.87945418  0.68303723  0.05241406  1.0
  O  O105  1  0.49925407  0.00191841  0.49765592  1.0
  O  O106  1  0.60254473  0.94603064  0.62486305  1.0
  O  O107  1  0.43366242  0.12296990  0.32880421  1.0
  O  O108  1  0.62863993  0.82741600  0.44142859  1.0
  O  O109  1  0.33392645  0.10718471  0.62854571  1.0
  O  O110  1  0.43896006  0.82757295  0.59829211  1.0
  O  O111  1  0.05919910  0.38942314  0.87497600  1.0
  O  O112  1  0.63723116  0.09907025  0.43544392  1.0
  O  O113  1  0.32024004  0.94810633  0.62730562  1.0
  O  O114  1  0.61220988  0.12090809  0.31567828  1.0
  O  O115  1  0.61081937  0.94950725  0.31982929  1.0
  O  O116  1  0.45720715  0.13780503  0.58944011  1.0
  O  O117  1  0.59743800  0.82296430  0.62791678  1.0
  O  O118  1  0.31476625  0.12102581  0.45619818  1.0
  O  O119  1  0.89360765  0.56048782  0.17456911  1.0
  O  O120  1  0.16926023  0.38350063  0.06446673  1.0
  O  O121  1  0.88773618  0.67828434  0.87866686  1.0
  O  O122  1  0.17681617  0.55283736  0.89611283  1.0
  O  O123  1  0.88294222  0.38503600  0.05040068  1.0
  O  O124  1  0.05417174  0.67694030  0.90032570  1.0
  O  O125  1  0.87034471  0.39598988  0.17444825  1.0
  F  F126  1  0.50204899  0.28796002  0.37568165  1.0
  F  F127  1  0.88177813  0.81416542  0.08568182  1.0
  F  F128  1  0.78222245  0.52018725  0.37850204  1.0
  F  F129  1  0.73511674  0.81597523  0.86393287  1.0
  F  F130  1  0.62706324  0.91339467  0.77331861  1.0
  F  F131  1  0.79819023  0.66957252  0.58278515  1.0
  F  F132  1  0.91656966  0.57605322  0.67001758  1.0
  F  F133  1  0.33444634  0.33527858  0.77016517  1.0
  F  F134  1  0.43699158  0.23813174  0.67005613  1.0
  F  F135  1  0.00045116  0.17459117  0.12198350  1.0
  F  F136  1  0.12538899  0.77998885  0.91413659  1.0
  F  F137  1  0.22407141  0.88295258  0.80538441  1.0
  F  F138  1  0.35856823  0.54138178  0.71439305  1.0
  F  F139  1  0.16092360  0.24585675  0.43256248  1.0
  F  F140  1  0.47670627  0.20562392  0.12865380  1.0
  F  F141  1  0.85016488  0.21259332  0.40138502  1.0
  F  F142  1  0.43954980  0.09100156  0.16772457  1.0
  F  F143  1  0.81165527  0.09132969  0.36007185  1.0
  F  F144  1  0.68996806  0.41272854  0.12887255  1.0
  F  F145  1  0.64956323  0.33169484  0.07017661  1.0
