# generated using pymatgen
data_Zr6H20C54S10O41
_symmetry_space_group_name_H-M   'P 1'
_cell_length_a   16.41994844
_cell_length_b   16.44961045
_cell_length_c   16.42320299
_cell_angle_alpha   60.26171706
_cell_angle_beta   88.62293175
_cell_angle_gamma   60.32193110
_symmetry_Int_Tables_number   1
_chemical_formula_structural   Zr6H20C54S10O41
_chemical_formula_sum   'Zr6 H20 C54 S10 O41'
_cell_volume   3198.86830174
_cell_formula_units_Z   1
loop_
 _symmetry_equiv_pos_site_id
 _symmetry_equiv_pos_as_xyz
  1  'x, y, z'
loop_
 _atom_site_type_symbol
 _atom_site_label
 _atom_site_symmetry_multiplicity
 _atom_site_fract_x
 _atom_site_fract_y
 _atom_site_fract_z
 _atom_site_occupancy
  Zr  Zr0  1  0.90346658  0.48399570  0.40488967  1.0
  Zr  Zr1  1  0.10176547  0.51153876  0.60254067  1.0
  Zr  Zr2  1  0.89310785  0.70947688  0.39434685  1.0
  Zr  Zr3  1  0.11130803  0.28741739  0.61234596  1.0
  Zr  Zr4  1  0.89265819  0.49852779  0.61280831  1.0
  Zr  Zr5  1  0.11122809  0.49860099  0.39329578  1.0
  H  H6  1  0.75260791  0.65317348  0.42635435  1.0
  H  H7  1  0.08005355  0.34266735  0.75332521  1.0
  H  H8  1  0.08108017  0.67392059  0.40980852  1.0
  H  H9  1  0.09505311  0.32163166  0.42437950  1.0
  H  H10  1  0.61348231  0.48067153  0.64292116  1.0
  H  H11  1  0.12878950  0.50718529  0.10229456  1.0
  H  H12  1  0.12928734  0.98583280  0.88901700  1.0
  H  H13  1  0.39791959  0.98598970  0.64073932  1.0
  H  H14  1  0.63735017  0.96568638  0.13661362  1.0
  H  H15  1  0.64938910  0.69304964  0.15122315  1.0
  H  H16  1  0.37011670  0.02850091  0.86977637  1.0
  H  H17  1  0.35735809  0.30188676  0.85454400  1.0
  H  H18  1  0.87650623  0.23107552  0.39239842  1.0
  H  H19  1  0.44080508  0.50639959  0.31374921  1.0
  H  H20  1  0.81285364  0.50682317  0.94076145  1.0
  H  H21  1  0.80365442  0.10358035  0.06160845  1.0
  H  H22  1  0.57075229  0.10456195  0.31659752  1.0
  H  H23  1  0.17258852  0.75081768  0.68151403  1.0
  H  H24  1  0.64436649  0.08853561  0.00817275  1.0
  H  H25  1  0.50431264  0.90071224  0.86623820  1.0
  C  C26  1  0.73941456  0.47757950  0.51779597  1.0
  C  C27  1  0.98735485  0.51805029  0.76576525  1.0
  C  C28  1  0.27199318  0.50330699  0.49471776  1.0
  C  C29  1  0.00914170  0.49195843  0.23325153  1.0
  C  C30  1  0.73941932  0.74360170  0.23740847  1.0
  C  C31  1  0.00740765  0.21621998  0.51635331  1.0
  C  C32  1  0.26961696  0.25083634  0.76616765  1.0
  C  C33  1  0.99085239  0.77810724  0.49878137  1.0
  C  C34  1  0.72930027  0.76879212  0.50461237  1.0
  C  C35  1  0.99467565  0.76818548  0.22177872  1.0
  C  C36  1  0.28203395  0.22734104  0.50839518  1.0
  C  C37  1  0.99979161  0.22684948  0.77546442  1.0
  C  C38  1  0.41975549  0.49576897  0.43288476  1.0
  C  C39  1  0.59331995  0.48200954  0.57945748  1.0
  C  C40  1  0.36338379  0.49740013  0.49779962  1.0
  C  C41  1  0.64921921  0.47954086  0.51541294  1.0
  C  C42  1  0.50985869  0.48720209  0.55005387  1.0
  C  C43  1  0.50395530  0.48930312  0.46353341  1.0
  C  C44  1  0.92402386  0.51298757  0.91204875  1.0
  C  C45  1  0.06630878  0.50665660  0.08275530  1.0
  C  C46  1  0.98728717  0.51840526  0.85423357  1.0
  C  C47  1  0.00420342  0.49977107  0.14039306  1.0
  C  C48  1  0.03719573  0.51199715  0.99908051  1.0
  C  C49  1  0.95301624  0.50930829  0.99501193  1.0
  C  C50  1  0.92212541  0.97425432  0.07975581  1.0
  C  C51  1  0.06438808  0.02215153  0.91079909  1.0
  C  C52  1  0.99182733  0.85792978  0.13172156  1.0
  C  C53  1  0.99644881  0.13728690  0.86089699  1.0
  C  C54  1  0.03773813  0.96239145  0.99065989  1.0
  C  C55  1  0.94908011  0.03374824  0.99940467  1.0
  C  C56  1  0.59267905  0.97514416  0.43696346  1.0
  C  C57  1  0.42136194  0.02251938  0.57725262  1.0
  C  C58  1  0.64338828  0.85866712  0.50563332  1.0
  C  C59  1  0.37151271  0.13773865  0.50909965  1.0
  C  C60  1  0.50238196  0.96282997  0.55169841  1.0
  C  C61  1  0.51223688  0.03434565  0.46395419  1.0
  C  C62  1  0.60780512  0.93901771  0.10328206  1.0
  C  C63  1  0.61451924  0.78361167  0.11295964  1.0
  C  C64  1  0.53507021  0.85758196  0.03000730  1.0
  C  C65  1  0.48808679  0.97686363  0.98060131  1.0
  C  C66  1  0.40336019  0.05570211  0.89865979  1.0
  C  C67  1  0.39502553  0.21128413  0.89013382  1.0
  C  C68  1  0.47776025  0.13742280  0.96991748  1.0
  C  C69  1  0.52623222  0.01804462  0.01814371  1.0
  C  C70  1  0.65174784  0.82447471  0.14893053  1.0
  C  C71  1  0.35833691  0.17026145  0.85369984  1.0
  C  C72  1  0.05930003  0.84573919  0.57134127  1.0
  C  C73  1  0.93574928  0.14672580  0.45103477  1.0
  C  C74  1  0.99157118  0.86366813  0.50397865  1.0
  C  C75  1  0.00372439  0.12853906  0.51700829  1.0
  C  C76  1  0.95526130  0.04400065  0.47068869  1.0
  C  C77  1  0.03807467  0.94940694  0.55184699  1.0
  C  C78  1  0.51182039  0.18913590  0.00256635  1.0
  C  C79  1  0.50187104  0.80617339  0.99620391  1.0
  S  S80  1  0.41256786  0.49237721  0.59457876  1.0
  S  S81  1  0.60140635  0.48364202  0.41891964  1.0
  S  S82  1  0.08091494  0.51947869  0.90092399  1.0
  S  S83  1  0.90965325  0.50021698  0.09380933  1.0
  S  S84  1  0.08846953  0.82236687  0.08109792  1.0
  S  S85  1  0.89899073  0.17417246  0.90989722  1.0
  S  S86  1  0.59228325  0.82273575  0.60190701  1.0
  S  S87  1  0.42256325  0.17469832  0.41344496  1.0
  S  S88  1  0.90279273  0.00623128  0.41813560  1.0
  S  S89  1  0.09169425  0.98668154  0.60399916  1.0
  O  O90  1  0.77794559  0.47335851  0.45013415  1.0
  O  O91  1  0.05608501  0.52091769  0.72827909  1.0
  O  O92  1  0.23345053  0.50856494  0.56233928  1.0
  O  O93  1  0.94284086  0.48498253  0.27303820  1.0
  O  O94  1  0.76898301  0.78517023  0.26726850  1.0
  O  O95  1  0.07538933  0.18578329  0.58222112  1.0
  O  O96  1  0.23978776  0.20907500  0.73647873  1.0
  O  O97  1  0.92441777  0.80966333  0.43032887  1.0
  O  O98  1  0.76182535  0.66672617  0.57433646  1.0
  O  O99  1  0.06678965  0.66654438  0.25663713  1.0
  O  O100  1  0.24716976  0.32881236  0.43706326  1.0
  O  O101  1  0.93054466  0.32862799  0.74243333  1.0
  O  O102  1  0.92568759  0.79837914  0.26000583  1.0
  O  O103  1  0.24606589  0.19508580  0.57901757  1.0
  O  O104  1  0.07288939  0.19451135  0.74244194  1.0
  O  O105  1  0.76505434  0.79894722  0.43325122  1.0
  O  O106  1  0.77660028  0.63913545  0.27555049  1.0
  O  O107  1  0.05957967  0.67596934  0.56425069  1.0
  O  O108  1  0.23105890  0.35512711  0.72920515  1.0
  O  O109  1  0.94120591  0.31738829  0.44691269  1.0
  O  O110  1  0.07871018  0.49178339  0.26669423  1.0
  O  O111  1  0.77037621  0.48262889  0.58468103  1.0
  O  O112  1  0.92122256  0.51243535  0.73358230  1.0
  O  O113  1  0.23692201  0.50347042  0.42576521  1.0
  O  O114  1  0.06970517  0.37093191  0.44753864  1.0
  O  O115  1  0.05801538  0.62445749  0.43544368  1.0
  O  O116  1  0.05832653  0.38628547  0.68227382  1.0
  O  O117  1  0.82367325  0.60822455  0.44805342  1.0
  O  O118  1  0.95300426  0.59054399  0.54431077  1.0
  O  O119  1  0.96135356  0.40384213  0.55361294  1.0
  O  O120  1  0.13412216  0.41569736  0.54418962  1.0
  O  O121  1  0.96101499  0.57960841  0.37153851  1.0
  O  O122  1  0.39531159  0.50017509  0.35188134  1.0
  O  O123  1  0.84621834  0.51078017  0.89037017  1.0
  O  O124  1  0.83952363  0.02165811  0.10416905  1.0
  O  O125  1  0.61804000  0.02312999  0.35546889  1.0
  O  O126  1  0.13520399  0.74231121  0.64465261  1.0
  O  O127  1  0.60938728  0.14968100  0.01819538  1.0
  O  O128  1  0.45708773  0.26540190  0.01204117  1.0
  O  O129  1  0.48864826  0.84410779  0.89900980  1.0
  O  O130  1  0.48998359  0.73177072  0.05049651  1.0
