# generated using pymatgen
data_Cd3H34C34(N14O)2
_symmetry_space_group_name_H-M   'P 1'
_cell_length_a   11.09356031
_cell_length_b   14.36618738
_cell_length_c   22.88492322
_cell_angle_alpha   89.99998762
_cell_angle_beta   90.00008635
_cell_angle_gamma   97.55166561
_symmetry_Int_Tables_number   1
_chemical_formula_structural   Cd3H34C34(N14O)2
_chemical_formula_sum   'Cd6 H68 C68 N56 O4'
_cell_volume   3615.58656632
_cell_formula_units_Z   2
loop_
 _symmetry_equiv_pos_site_id
 _symmetry_equiv_pos_as_xyz
  1  'x, y, z'
loop_
 _atom_site_type_symbol
 _atom_site_label
 _atom_site_symmetry_multiplicity
 _atom_site_fract_x
 _atom_site_fract_y
 _atom_site_fract_z
 _atom_site_occupancy
  Cd  Cd0  1  0.50000085  0.00000013  0.00000018  1.0
  Cd  Cd1  1  0.49999956  0.49999988  0.50000008  1.0
  Cd  Cd2  1  0.36790787  0.77990577  0.07315217  1.0
  Cd  Cd3  1  0.63209249  0.72009517  0.57315220  1.0
  Cd  Cd4  1  0.63209228  0.22009470  0.92684798  1.0
  Cd  Cd5  1  0.36790766  0.27990530  0.42684795  1.0
  H  H6  1  0.09504381  0.66072644  0.11821887  1.0
  H  H7  1  0.90495680  0.83927519  0.61821777  1.0
  H  H8  1  0.90495724  0.33927402  0.88178085  1.0
  H  H9  1  0.09504335  0.16072527  0.38178238  1.0
  H  H10  1  0.87449441  0.67936723  0.11548591  1.0
  H  H11  1  0.12550678  0.82063792  0.61548469  1.0
  H  H12  1  0.12550664  0.32063324  0.88451293  1.0
  H  H13  1  0.87449427  0.17936255  0.38451503  1.0
  H  H14  1  0.97523864  0.94853699  0.03358966  1.0
  H  H15  1  0.02476262  0.55146465  0.53359058  1.0
  H  H16  1  0.02476230  0.05146278  0.96641050  1.0
  H  H17  1  0.97523843  0.44853581  0.46640958  1.0
  H  H18  1  0.19199301  0.91927107  0.03876527  1.0
  H  H19  1  0.80800724  0.58072987  0.53876545  1.0
  H  H20  1  0.80800714  0.08072939  0.96123489  1.0
  H  H21  1  0.19199291  0.41927060  0.46123471  1.0
  H  H22  1  0.46093639  0.31093096  0.29569220  1.0
  H  H23  1  0.53906302  0.18906833  0.79569217  1.0
  H  H24  1  0.53906454  0.68906880  0.70430795  1.0
  H  H25  1  0.46093712  0.81093213  0.20430799  1.0
  H  H26  1  0.47409524  0.22425551  0.20123133  1.0
  H  H27  1  0.52590580  0.27574449  0.70123084  1.0
  H  H28  1  0.52590569  0.77574425  0.79876882  1.0
  H  H29  1  0.47409537  0.72425668  0.29876932  1.0
  H  H30  1  0.29288147  0.97705135  0.28667524  1.0
  H  H31  1  0.70711751  0.52294817  0.78667579  1.0
  H  H32  1  0.70711766  0.02294841  0.71332448  1.0
  H  H33  1  0.29288264  0.47705230  0.21332437  1.0
  H  H34  1  0.29261658  0.07275461  0.37884603  1.0
  H  H35  1  0.70738309  0.42724468  0.87884696  1.0
  H  H36  1  0.70738435  0.92724516  0.62115369  1.0
  H  H37  1  0.29261616  0.57275578  0.12115363  1.0
  H  H38  1  0.48004041  0.73033143  0.93975465  1.0
  H  H39  1  0.51995826  0.76966879  0.43975342  1.0
  H  H40  1  0.51995781  0.26966833  0.06024639  1.0
  H  H41  1  0.48004189  0.23033168  0.56024587  1.0
  H  H42  1  0.57253195  0.65278216  0.97093023  1.0
  H  H43  1  0.42746772  0.84721806  0.47092849  1.0
  H  H44  1  0.42746718  0.34721761  0.02907080  1.0
  H  H45  1  0.57253333  0.15278241  0.52907036  1.0
  H  H46  1  0.43444156  0.63407940  0.85515571  1.0
  H  H47  1  0.56555764  0.86592012  0.35515406  1.0
  H  H48  1  0.56555667  0.36592036  0.14484533  1.0
  H  H49  1  0.43444341  0.13408035  0.64484479  1.0
  H  H50  1  0.57782082  0.59714088  0.86972518  1.0
  H  H51  1  0.42217854  0.90285934  0.36972342  1.0
  H  H52  1  0.42217741  0.40285888  0.13027585  1.0
  H  H53  1  0.57782161  0.09714113  0.63027542  1.0
  H  H54  1  0.36127952  0.47188089  0.86757172  1.0
  H  H55  1  0.63872125  0.02811981  0.36757018  1.0
  H  H56  1  0.63871972  0.52811957  0.13242931  1.0
  H  H57  1  0.36127901  0.97188136  0.63242911  1.0
  H  H58  1  0.48312513  0.45175830  0.91402331  1.0
  H  H59  1  0.51687477  0.04824169  0.41402168  1.0
  H  H60  1  0.51687310  0.54824146  0.08597772  1.0
  H  H61  1  0.48312526  0.95175807  0.58597761  1.0
  H  H62  1  0.27509434  0.38111510  0.96751392  1.0
  H  H63  1  0.72490483  0.11888489  0.46751330  1.0
  H  H64  1  0.72490479  0.61888466  0.03248668  1.0
  H  H65  1  0.27509532  0.88111558  0.53248686  1.0
  H  H66  1  0.16486568  0.46022755  0.95891476  1.0
  H  H67  1  0.83513346  0.03977244  0.45891510  1.0
  H  H68  1  0.83513243  0.53977150  0.04108540  1.0
  H  H69  1  0.16486669  0.96022803  0.54108505  1.0
  H  H70  1  0.24878175  0.46129806  0.02527827  1.0
  H  H71  1  0.75121695  0.03870195  0.52527798  1.0
  H  H72  1  0.75121648  0.53870170  0.97472188  1.0
  H  H73  1  0.24878297  0.96129711  0.47472174  1.0
  C  C74  1  0.06499968  0.72351712  0.09921770  1.0
  C  C75  1  0.93500155  0.77648312  0.59921751  1.0
  C  C76  1  0.93500126  0.27648265  0.90078158  1.0
  C  C77  1  0.06499950  0.22351735  0.40078265  1.0
  C  C78  1  0.94203071  0.73371664  0.09753438  1.0
  C  C79  1  0.05797164  0.76628500  0.59753398  1.0
  C  C80  1  0.05797022  0.26628312  0.90246491  1.0
  C  C81  1  0.94202862  0.23371617  0.40246574  1.0
  C  C82  1  0.90658032  0.81493928  0.07224522  1.0
  C  C83  1  0.09342106  0.68506236  0.57224574  1.0
  C  C84  1  0.09341869  0.18505978  0.92775450  1.0
  C  C85  1  0.90658090  0.31493811  0.42775399  1.0
  C  C86  1  0.99889688  0.88362669  0.05211584  1.0
  C  C87  1  0.00110365  0.61637565  0.55211586  1.0
  C  C88  1  0.00110327  0.11637377  0.94788475  1.0
  C  C89  1  0.99889740  0.38362482  0.44788430  1.0
  C  C90  1  0.11921699  0.86772278  0.05553349  1.0
  C  C91  1  0.88078343  0.63227886  0.55553328  1.0
  C  C92  1  0.88078226  0.13227768  0.94446710  1.0
  C  C93  1  0.11921774  0.36772231  0.44446644  1.0
  C  C94  1  0.77991651  0.82972153  0.06517021  1.0
  C  C95  1  0.22008484  0.67028011  0.56517169  1.0
  C  C96  1  0.22008454  0.17027894  0.93482951  1.0
  C  C97  1  0.77991621  0.32972036  0.43482890  1.0
  C  C98  1  0.42642020  0.23659059  0.29213134  1.0
  C  C99  1  0.57357932  0.26340941  0.79213176  1.0
  C  C100  1  0.57357995  0.76340988  0.70786838  1.0
  C  C101  1  0.42642082  0.73659105  0.20786884  1.0
  C  C102  1  0.43195696  0.18894195  0.23964613  1.0
  C  C103  1  0.56804330  0.31105806  0.73964610  1.0
  C  C104  1  0.56804409  0.81105852  0.76035359  1.0
  C  C105  1  0.43195685  0.68894241  0.26035406  1.0
  C  C106  1  0.38368973  0.09382856  0.23659171  1.0
  C  C107  1  0.61630974  0.40617214  0.73659214  1.0
  C  C108  1  0.61631144  0.90617261  0.76340801  1.0
  C  C109  1  0.38369041  0.59382833  0.26340846  1.0
  C  C110  1  0.33168593  0.05075245  0.28739981  1.0
  C  C111  1  0.66831448  0.44924755  0.78740072  1.0
  C  C112  1  0.66831422  0.94924801  0.71259947  1.0
  C  C113  1  0.33168657  0.55075292  0.21260032  1.0
  C  C114  1  0.33046135  0.10347436  0.33811923  1.0
  C  C115  1  0.66953921  0.39652564  0.83811926  1.0
  C  C116  1  0.66953880  0.89652610  0.66188049  1.0
  C  C117  1  0.33046184  0.60347483  0.16188089  1.0
  C  C118  1  0.38917126  0.04125510  0.18264441  1.0
  C  C119  1  0.61082894  0.45874561  0.68264483  1.0
  C  C120  1  0.61082991  0.95874607  0.81735532  1.0
  C  C121  1  0.38917121  0.54125486  0.31735621  1.0
  C  C122  1  0.38387559  0.60463273  0.97959657  1.0
  C  C123  1  0.61612230  0.89536748  0.47959496  1.0
  C  C124  1  0.61612275  0.39536773  0.02040446  1.0
  C  C125  1  0.38387694  0.10463298  0.52040389  1.0
  C  C126  1  0.48910518  0.65583228  0.94531115  1.0
  C  C127  1  0.51089531  0.84416794  0.44530991  1.0
  C  C128  1  0.51089395  0.34416748  0.05468988  1.0
  C  C129  1  0.48910574  0.15583252  0.55468938  1.0
  C  C130  1  0.48713315  0.60065056  0.88780255  1.0
  C  C131  1  0.51286614  0.89934896  0.38780086  1.0
  C  C132  1  0.51286496  0.39934850  0.11219892  1.0
  C  C133  1  0.48713479  0.10065081  0.61219842  1.0
  C  C134  1  0.42068183  0.50276154  0.90287665  1.0
  C  C135  1  0.57931842  0.99723798  0.40287500  1.0
  C  C136  1  0.57931718  0.49723752  0.09712482  1.0
  C  C137  1  0.42068263  0.00276248  0.59712473  1.0
  C  C138  1  0.25407067  0.45185469  0.97781720  1.0
  C  C139  1  0.74592852  0.04814530  0.47781660  1.0
  C  C140  1  0.74592755  0.54814507  0.02218340  1.0
  C  C141  1  0.25407253  0.95185517  0.52218356  1.0
  N  N142  1  0.15266278  0.78819819  0.07797536  1.0
  N  N143  1  0.84733579  0.71180274  0.57797511  1.0
  N  N144  1  0.84733748  0.21180298  0.92202436  1.0
  N  N145  1  0.15266436  0.28819772  0.42202505  1.0
  N  N146  1  0.74769315  0.90903596  0.04132655  1.0
  N  N147  1  0.25230801  0.59096498  0.54132763  1.0
  N  N148  1  0.25230790  0.09096451  0.95867317  1.0
  N  N149  1  0.74769292  0.40903478  0.45867297  1.0
  N  N150  1  0.62754119  0.89531519  0.04107525  1.0
  N  N151  1  0.37245907  0.60468575  0.54107510  1.0
  N  N152  1  0.37245896  0.10468528  0.95892491  1.0
  N  N153  1  0.62754108  0.39531472  0.45892506  1.0
  N  N154  1  0.58716021  0.81105155  0.06358875  1.0
  N  N155  1  0.41284192  0.68894939  0.56358906  1.0
  N  N156  1  0.41284084  0.18894891  0.93641097  1.0
  N  N157  1  0.58715823  0.31105108  0.43641110  1.0
  N  N158  1  0.68132295  0.76785234  0.07923228  1.0
  N  N159  1  0.31867935  0.73214930  0.57923295  1.0
  N  N160  1  0.31867821  0.23214883  0.92076745  1.0
  N  N161  1  0.68132080  0.26785116  0.42076721  1.0
  N  N162  1  0.37668845  0.19496021  0.34081403  1.0
  N  N163  1  0.62331212  0.30503979  0.84081404  1.0
  N  N164  1  0.62331260  0.80504026  0.65918613  1.0
  N  N165  1  0.37668803  0.69496067  0.15918612  1.0
  N  N166  1  0.42185217  0.08042453  0.13031083  1.0
  N  N167  1  0.57814865  0.41957548  0.63031080  1.0
  N  N168  1  0.57814888  0.91957594  0.86968933  1.0
  N  N169  1  0.42185228  0.58042429  0.36968936  1.0
  N  N170  1  0.41772443  0.00783273  0.09435660  1.0
  N  N171  1  0.58227538  0.49216728  0.59435655  1.0
  N  N172  1  0.58227560  0.99216703  0.90564312  1.0
  N  N173  1  0.41772375  0.50783248  0.40564360  1.0
  N  N174  1  0.38477251  0.92787057  0.12349186  1.0
  N  N175  1  0.61522788  0.57212966  0.62349190  1.0
  N  N176  1  0.61522763  0.07212990  0.87650786  1.0
  N  N177  1  0.38477226  0.42787080  0.37650826  1.0
  N  N178  1  0.36531940  0.94668074  0.17916912  1.0
  N  N179  1  0.63468117  0.55331949  0.67916961  1.0
  N  N180  1  0.63468165  0.05331973  0.82083060  1.0
  N  N181  1  0.36531976  0.44668027  0.32083054  1.0
  N  N182  1  0.36578844  0.86246958  0.98644429  1.0
  N  N183  1  0.63421116  0.63752993  0.48644403  1.0
  N  N184  1  0.63421159  0.13753018  0.01355587  1.0
  N  N185  1  0.36578887  0.36246983  0.51355613  1.0
  N  N186  1  0.31629173  0.83233371  0.94185858  1.0
  N  N187  1  0.68370965  0.66766651  0.44185793  1.0
  N  N188  1  0.68370841  0.16766675  0.05814114  1.0
  N  N189  1  0.31629050  0.33233396  0.55814136  1.0
  N  N190  1  0.26924638  0.80247033  0.89915535  1.0
  N  N191  1  0.73075306  0.69752989  0.39915559  1.0
  N  N192  1  0.73075286  0.19753014  0.10084438  1.0
  N  N193  1  0.26924606  0.30246987  0.60084413  1.0
  N  N194  1  0.34868205  0.52080023  0.95430218  1.0
  N  N195  1  0.65131746  0.97919929  0.45430058  1.0
  N  N196  1  0.65131618  0.47919953  0.04569885  1.0
  N  N197  1  0.34868348  0.02080048  0.54569870  1.0
  O  O198  1  0.33653875  0.63082453  0.02561039  1.0
  O  O199  1  0.66345978  0.86917711  0.52560955  1.0
  O  O200  1  0.66345948  0.36917523  0.97439064  1.0
  O  O201  1  0.33653947  0.13082336  0.47438930  1.0
