# generated using pymatgen
data_Zn4H40C48N4O13
_symmetry_space_group_name_H-M   'P 1'
_cell_length_a   23.83492538
_cell_length_b   23.83463760
_cell_length_c   23.83390461
_cell_angle_alpha   113.10650884
_cell_angle_beta   107.68952193
_cell_angle_gamma   107.68213283
_symmetry_Int_Tables_number   1
_chemical_formula_structural   Zn4H40C48N4O13
_chemical_formula_sum   'Zn8 H80 C96 N8 O26'
_cell_volume   10391.11603453
_cell_formula_units_Z   2
loop_
 _symmetry_equiv_pos_site_id
 _symmetry_equiv_pos_as_xyz
  1  'x, y, z'
loop_
 _atom_site_type_symbol
 _atom_site_label
 _atom_site_symmetry_multiplicity
 _atom_site_fract_x
 _atom_site_fract_y
 _atom_site_fract_z
 _atom_site_occupancy
  Zn  Zn0  1  0.94294000  0.90035593  0.45645603  1.0
  Zn  Zn1  1  0.94294734  0.04258782  0.48647821  1.0
  Zn  Zn2  1  0.05707291  0.04354608  0.59965362  1.0
  Zn  Zn3  1  0.05705197  0.01351750  0.45741008  1.0
  Zn  Zn4  1  0.05610939  0.59964765  0.04258676  1.0
  Zn  Zn5  1  0.94387880  0.45740876  0.90034056  1.0
  Zn  Zn6  1  0.05611065  0.45647138  0.01352153  1.0
  Zn  Zn7  1  0.94390256  0.48648260  0.04354112  1.0
  H  H8  1  0.07668919  0.72774067  0.96346656  1.0
  H  H9  1  0.92331739  0.53651924  0.77223263  1.0
  H  H10  1  0.07494669  0.96459176  0.72754543  1.0
  H  H11  1  0.92509798  0.77248724  0.53541159  1.0
  H  H12  1  0.92329437  0.38674684  0.15101239  1.0
  H  H13  1  0.07666804  0.34890340  0.11318349  1.0
  H  H14  1  0.92508613  0.15262689  0.38966867  1.0
  H  H15  1  0.07493671  0.11035629  0.34742292  1.0
  H  H16  1  0.26294041  0.72752394  0.15257939  1.0
  H  H17  1  0.26294485  0.53542386  0.11034045  1.0
  H  H18  1  0.73571854  0.96348753  0.38682432  1.0
  H  H19  1  0.73572775  0.77227674  0.34897887  1.0
  H  H20  1  0.73703886  0.34739150  0.77246415  1.0
  H  H21  1  0.73707075  0.38966712  0.96459587  1.0
  H  H22  1  0.26427187  0.11318957  0.53651035  1.0
  H  H23  1  0.26428335  0.15105820  0.72774313  1.0
  H  H24  1  0.08442468  0.92561225  0.33505490  1.0
  H  H25  1  0.09105082  0.89417039  0.26034102  1.0
  H  H26  1  0.90947408  0.57439066  0.15883328  1.0
  H  H27  1  0.86618300  0.60582215  0.19686953  1.0
  H  H28  1  0.09055633  0.74938107  0.16494638  1.0
  H  H29  1  0.13382817  0.83071581  0.23966528  1.0
  H  H30  1  0.91554442  0.75062409  0.34114823  1.0
  H  H31  1  0.90893963  0.66929764  0.30310468  1.0
  H  H32  1  0.08445818  0.15885038  0.74941711  1.0
  H  H33  1  0.09106616  0.19690612  0.83075229  1.0
  H  H34  1  0.90943545  0.33504540  0.75058008  1.0
  H  H35  1  0.86616254  0.26032338  0.66924078  1.0
  H  H36  1  0.09052973  0.34119084  0.92562473  1.0
  H  H37  1  0.13381226  0.30313257  0.89420001  1.0
  H  H38  1  0.91557375  0.16491398  0.57437350  1.0
  H  H39  1  0.90894974  0.23962757  0.60580155  1.0
  H  H40  1  0.91994916  0.54363733  0.65895723  1.0
  H  H41  1  0.91249733  0.61732183  0.66456601  1.0
  H  H42  1  0.85639977  0.55839957  0.67492194  1.0
  H  H43  1  0.08006405  0.84097325  0.95634821  1.0
  H  H44  1  0.08752009  0.83540863  0.88267660  1.0
  H  H45  1  0.14363213  0.82504778  0.94159619  1.0
  H  H46  1  0.85695023  0.67557329  0.55913424  1.0
  H  H47  1  0.91448608  0.66469480  0.61610854  1.0
  H  H48  1  0.91939884  0.65965972  0.54154819  1.0
  H  H49  1  0.14309825  0.94085870  0.82449148  1.0
  H  H50  1  0.08553312  0.88388025  0.83532395  1.0
  H  H51  1  0.08061850  0.95843543  0.84034011  1.0
  H  H52  1  0.08005621  0.23903025  0.12368287  1.0
  H  H53  1  0.08748951  0.25206238  0.20481170  1.0
  H  H54  1  0.14360100  0.31853404  0.20201741  1.0
  H  H55  1  0.91993817  0.37627565  0.26090585  1.0
  H  H56  1  0.91247433  0.29514177  0.24787089  1.0
  H  H57  1  0.85636460  0.29795688  0.18139771  1.0
  H  H58  1  0.14309277  0.20222468  0.31864722  1.0
  H  H59  1  0.08554807  0.20165215  0.25023837  1.0
  H  H60  1  0.08061819  0.12217789  0.24029731  1.0
  H  H61  1  0.85695333  0.18141544  0.29778317  1.0
  H  H62  1  0.91451473  0.24983395  0.29838549  1.0
  H  H63  1  0.91941129  0.25975318  0.37784507  1.0
  H  H64  1  0.38361613  0.55915296  0.20223983  1.0
  H  H65  1  0.45143040  0.61611759  0.20164475  1.0
  H  H66  1  0.38188313  0.54156142  0.12217478  1.0
  H  H67  1  0.38357270  0.82443738  0.18136224  1.0
  H  H68  1  0.45142831  0.83531639  0.24978251  1.0
  H  H69  1  0.38190191  0.84034345  0.25972775  1.0
  H  H70  1  0.61537701  0.65903716  0.23910956  1.0
  H  H71  1  0.54727004  0.66459885  0.25212919  1.0
  H  H72  1  0.61654928  0.67496074  0.31860895  1.0
  H  H73  1  0.61532755  0.95636837  0.37632792  1.0
  H  H74  1  0.54724637  0.88266782  0.29518745  1.0
  H  H75  1  0.61652373  0.94158867  0.29800633  1.0
  H  H76  1  0.61641420  0.29777627  0.94087904  1.0
  H  H77  1  0.54859090  0.29836653  0.88391013  1.0
  H  H78  1  0.61814024  0.37783008  0.95845649  1.0
  H  H79  1  0.61638955  0.31858555  0.67554256  1.0
  H  H80  1  0.54855204  0.25017877  0.66467830  1.0
  H  H81  1  0.61807444  0.24022977  0.65964280  1.0
  H  H82  1  0.38464294  0.26092204  0.84098783  1.0
  H  H83  1  0.45275211  0.24790539  0.83542985  1.0
  H  H84  1  0.38348073  0.18143721  0.82507254  1.0
  H  H85  1  0.38465698  0.12367666  0.54362877  1.0
  H  H86  1  0.45274048  0.20481913  0.61732648  1.0
  H  H87  1  0.38344350  0.20198682  0.55839557  1.0
  C  C88  1  0.81778022  0.90891304  0.40892566  1.0
  C  C89  1  0.00001271  0.13926774  0.63929710  1.0
  C  C90  1  0.00003473  0.90949792  0.59052110  1.0
  C  C91  1  0.18222277  0.09109116  0.59110180  1.0
  C  C92  1  0.99997347  0.86071931  0.36069291  1.0
  C  C93  1  0.00000015  0.09052613  0.40950130  1.0
  C  C94  1  0.99999883  0.59109849  0.90887483  1.0
  C  C95  1  0.99996779  0.36071456  0.86070147  1.0
  C  C96  1  0.18102465  0.59051290  0.09051416  1.0
  C  C97  1  0.99999312  0.40886362  0.09108140  1.0
  C  C98  1  0.00001843  0.63928394  0.13929096  1.0
  C  C99  1  0.81897254  0.40948456  0.90948497  1.0
  C  C100  1  0.99998064  0.80458865  0.30456824  1.0
  C  C101  1  0.00001203  0.69541720  0.19541941  1.0
  C  C102  1  0.04336397  0.82062391  0.27658376  1.0
  C  C103  1  0.95597322  0.67938042  0.22274349  1.0
  C  C104  1  0.04403113  0.76678176  0.22340806  1.0
  C  C105  1  0.95662054  0.73321992  0.27723546  1.0
  C  C106  1  0.99999926  0.19539579  0.69542082  1.0
  C  C107  1  0.99997234  0.30457920  0.80457877  1.0
  C  C108  1  0.04337051  0.22275593  0.76680348  1.0
  C  C109  1  0.95595160  0.27656939  0.73319782  1.0
  C  C110  1  0.04402012  0.27725712  0.82063376  1.0
  C  C111  1  0.95662931  0.22339154  0.67936773  1.0
  C  C112  1  0.00001516  0.62857211  0.87139736  1.0
  C  C113  1  0.04328945  0.70023030  0.90762873  1.0
  C  C114  1  0.04408350  0.73641373  0.87380917  1.0
  C  C115  1  0.00003096  0.69921313  0.80074936  1.0
  C  C116  1  0.95596100  0.62616233  0.76355186  1.0
  C  C117  1  0.95673106  0.59234763  0.79973446  1.0
  C  C118  1  0.00004164  0.73491926  0.76504967  1.0
  C  C119  1  0.00005955  0.76572954  0.73424612  1.0
  C  C120  1  0.00005211  0.80143927  0.69855662  1.0
  C  C121  1  0.04348355  0.87465476  0.73596308  1.0
  C  C122  1  0.04232038  0.90855561  0.69987189  1.0
  C  C123  1  0.00003382  0.87203999  0.62797597  1.0
  C  C124  1  0.95773604  0.80014596  0.59145123  1.0
  C  C125  1  0.95659211  0.76403944  0.62532929  1.0
  C  C126  1  0.99997404  0.37136658  0.12853927  1.0
  C  C127  1  0.95670189  0.36432238  0.15692170  1.0
  C  C128  1  0.95591392  0.32971718  0.19231852  1.0
  C  C129  1  0.99997781  0.30072977  0.19918815  1.0
  C  C130  1  0.04404065  0.30759356  0.17019824  1.0
  C  C131  1  0.04326232  0.34299633  0.13560375  1.0
  C  C132  1  0.00000477  0.26505957  0.23492318  1.0
  C  C133  1  0.00003160  0.23429151  0.26576279  1.0
  C  C134  1  0.00003534  0.19859839  0.30147827  1.0
  C  C135  1  0.95658221  0.19254694  0.33123651  1.0
  C  C136  1  0.95771928  0.15759513  0.36626844  1.0
  C  C137  1  0.00001591  0.12799136  0.37205171  1.0
  C  C138  1  0.04230628  0.13376444  0.34245555  1.0
  C  C139  1  0.04346683  0.16881435  0.30751596  1.0
  C  C140  1  0.25593403  0.62797229  0.12797047  1.0
  C  C141  1  0.29131390  0.69986759  0.15757184  1.0
  C  C142  1  0.36129843  0.73596326  0.19252857  1.0
  C  C143  1  0.39712276  0.69857101  0.19859798  1.0
  C  C144  1  0.36130228  0.62534798  0.16880991  1.0
  C  C145  1  0.29131833  0.59146117  0.13375515  1.0
  C  C146  1  0.46852077  0.73428020  0.23432979  1.0
  C  C147  1  0.53013362  0.76508243  0.26512842  1.0
  C  C148  1  0.60153533  0.80079583  0.30084036  1.0
  C  C149  1  0.63739610  0.87384739  0.32982289  1.0
  C  C150  1  0.70739275  0.90766004  0.36440671  1.0
  C  C151  1  0.74282514  0.87143586  0.37146779  1.0
  C  C152  1  0.70739742  0.79977744  0.34308311  1.0
  C  C153  1  0.63739988  0.76359865  0.30769235  1.0
  C  C154  1  0.74406393  0.37201735  0.87203420  1.0
  C  C155  1  0.70867618  0.34240700  0.80012807  1.0
  C  C156  1  0.63869371  0.30744424  0.76403312  1.0
  C  C157  1  0.60287620  0.30137432  0.80143150  1.0
  C  C158  1  0.63870671  0.33118001  0.87466235  1.0
  C  C159  1  0.70869368  0.36624824  0.90855550  1.0
  C  C160  1  0.53147952  0.26565466  0.76572785  1.0
  C  C161  1  0.46986771  0.23486130  0.73492548  1.0
  C  C162  1  0.39846529  0.19917291  0.69921353  1.0
  C  C163  1  0.36260147  0.17019146  0.62615547  1.0
  C  C164  1  0.29260457  0.13560858  0.59234436  1.0
  C  C165  1  0.25717613  0.12855894  0.62857349  1.0
  C  C166  1  0.29260938  0.15694980  0.70023790  1.0
  C  C167  1  0.36260873  0.19232864  0.73641880  1.0
  C  C168  1  0.90882729  0.58451859  0.68641349  1.0
  C  C169  1  0.09119336  0.81354489  0.91546716  1.0
  C  C170  1  0.90952054  0.68689691  0.58365452  1.0
  C  C171  1  0.09051447  0.91633684  0.81312568  1.0
  C  C172  1  0.09117047  0.27759184  0.17568526  1.0
  C  C173  1  0.90880035  0.32426528  0.22233884  1.0
  C  C174  1  0.09051016  0.17417305  0.27740532  1.0
  C  C175  1  0.90952854  0.22264601  0.32585246  1.0
  C  C176  1  0.39677656  0.58367181  0.17417396  1.0
  C  C177  1  0.39677076  0.81310819  0.22261320  1.0
  C  C178  1  0.60192442  0.68646298  0.27766707  1.0
  C  C179  1  0.60190590  0.91548574  0.32432836  1.0
  C  C180  1  0.60323410  0.32582672  0.91634121  1.0
  C  C181  1  0.60320514  0.27734860  0.68688130  1.0
  C  C182  1  0.39808445  0.22235970  0.81355681  1.0
  C  C183  1  0.39808101  0.17567234  0.58451094  1.0
  N  N184  1  0.08857295  0.88807462  0.29963316  1.0
  N  N185  1  0.91157894  0.61192967  0.20050955  1.0
  N  N186  1  0.08843995  0.78894911  0.20036827  1.0
  N  N187  1  0.91140499  0.71105363  0.29946849  1.0
  N  N188  1  0.08859345  0.20053114  0.78898406  1.0
  N  N189  1  0.91155438  0.29961606  0.71101398  1.0
  N  N190  1  0.08842162  0.29950687  0.88809797  1.0
  N  N191  1  0.91141933  0.20033713  0.61190158  1.0
  O  O192  1  0.00000250  0.00000100  0.50000311  1.0
  O  O193  1  0.84703036  0.87359246  0.41712962  1.0
  O  O194  1  0.95554116  0.11086586  0.57565551  1.0
  O  O195  1  0.03650274  0.97577009  0.62760195  1.0
  O  O196  1  0.84703472  0.97345851  0.42994754  1.0
  O  O197  1  0.96355078  0.87240427  0.52423031  1.0
  O  O198  1  0.04449569  0.12012163  0.65538510  1.0
  O  O199  1  0.15297573  0.08289791  0.62640917  1.0
  O  O200  1  0.04445165  0.92434882  0.38909542  1.0
  O  O201  1  0.15297316  0.07005594  0.52653435  1.0
  O  O202  1  0.95550410  0.84464248  0.37985450  1.0
  O  O203  1  0.96352674  0.09113048  0.43929599  1.0
  O  O204  1  0.03647954  0.06072092  0.40888814  1.0
  O  O205  1  0.99999775  0.50000254  0.99999502  1.0
  O  O206  1  0.04352400  0.62642270  0.97344819  1.0
  O  O207  1  0.96473042  0.38910733  0.84461243  1.0
  O  O208  1  0.15183360  0.52423792  0.06070730  1.0
  O  O209  1  0.95647235  0.52655189  0.87357448  1.0
  O  O210  1  0.15183062  0.62760326  0.09112589  1.0
  O  O211  1  0.03520922  0.37988698  0.92434426  1.0
  O  O212  1  0.04351775  0.41709705  0.07006298  1.0
  O  O213  1  0.96479656  0.57565366  0.12013944  1.0
  O  O214  1  0.95647489  0.42991552  0.08288023  1.0
  O  O215  1  0.03524563  0.65536260  0.11088855  1.0
  O  O216  1  0.84816206  0.40887523  0.87240178  1.0
  O  O217  1  0.84817324  0.43930090  0.97577703  1.0
