# generated using pymatgen
data_ZnH5C11N3O8
_symmetry_space_group_name_H-M   'P 1'
_cell_length_a   9.83182883
_cell_length_b   10.94537498
_cell_length_c   11.12218985
_cell_angle_alpha   90.77753037
_cell_angle_beta   99.43602488
_cell_angle_gamma   91.04012806
_symmetry_Int_Tables_number   1
_chemical_formula_structural   ZnH5C11N3O8
_chemical_formula_sum   'Zn2 H10 C22 N6 O16'
_cell_volume   1180.33730889
_cell_formula_units_Z   2
loop_
 _symmetry_equiv_pos_site_id
 _symmetry_equiv_pos_as_xyz
  1  'x, y, z'
loop_
 _atom_site_type_symbol
 _atom_site_label
 _atom_site_symmetry_multiplicity
 _atom_site_fract_x
 _atom_site_fract_y
 _atom_site_fract_z
 _atom_site_occupancy
  Zn  Zn0  1  0.36478233  0.49624095  0.48165490  1.0
  Zn  Zn1  1  0.64929330  0.50283265  0.52967329  1.0
  H  H2  1  0.72597090  0.58031236  0.14999935  1.0
  H  H3  1  0.72245562  0.58594502  0.92625671  1.0
  H  H4  1  0.28450910  0.28467694  0.85629870  1.0
  H  H5  1  0.19634774  0.42184720  0.07295417  1.0
  H  H6  1  0.70114403  0.12086071  0.59551501  1.0
  H  H7  1  0.70715333  0.89213779  0.58968207  1.0
  H  H8  1  0.29104834  0.87840743  0.39592309  1.0
  H  H9  1  0.28494922  0.10622120  0.40096499  1.0
  H  H10  1  0.89875482  0.67355463  0.61560166  1.0
  H  H11  1  0.84875281  0.32529770  0.45743600  1.0
  C  C12  1  0.48852099  0.26304517  0.50426932  1.0
  C  C13  1  0.50124631  0.73579870  0.49458487  1.0
  C  C14  1  0.52738187  0.48992150  0.27271716  1.0
  C  C15  1  0.52393982  0.50387784  0.74364414  1.0
  C  C16  1  0.41903944  0.44305368  0.05441929  1.0
  C  C17  1  0.41624286  0.44768587  0.92920705  1.0
  C  C18  1  0.52807540  0.49050390  0.13861841  1.0
  C  C19  1  0.52307860  0.49981306  0.87766482  1.0
  C  C20  1  0.63742836  0.54218588  0.08814117  1.0
  C  C21  1  0.63512002  0.54622864  0.96207825  1.0
  C  C22  1  0.28202068  0.37449477  0.90025091  1.0
  C  C23  1  0.28267059  0.37571107  0.04204694  1.0
  C  C24  1  0.61204794  0.06686903  0.55180773  1.0
  C  C25  1  0.61535660  0.94004155  0.54867272  1.0
  C  C26  1  0.49885950  0.87198540  0.49361009  1.0
  C  C27  1  0.49226530  0.12690641  0.49970695  1.0
  C  C28  1  0.38010586  0.93209971  0.43985512  1.0
  C  C29  1  0.37668568  0.05899535  0.44292752  1.0
  C  C30  1  0.94317371  0.59670992  0.57351679  1.0
  C  C31  1  0.91530724  0.40492566  0.48467585  1.0
  C  C32  1  0.07908971  0.59989312  0.55123916  1.0
  C  C33  1  0.04853098  0.41524013  0.45924831  1.0
  N  N34  1  0.13345174  0.51121120  0.49217921  1.0
  N  N35  1  0.86341271  0.49859359  0.54005676  1.0
  N  N36  1  0.16112252  0.43918744  0.82785167  1.0
  N  N37  1  0.28247215  0.24712785  0.09248718  1.0
  N  N38  1  0.15892498  0.71345225  0.59313769  1.0
  N  N39  1  0.09263841  0.31895209  0.37985399  1.0
  O  O40  1  0.37032529  0.31232535  0.48620441  1.0
  O  O41  1  0.38473306  0.67858105  0.47553663  1.0
  O  O42  1  0.60420643  0.32091252  0.52639883  1.0
  O  O43  1  0.61858281  0.68581859  0.51558032  1.0
  O  O44  1  0.40928207  0.48706243  0.30523280  1.0
  O  O45  1  0.40819071  0.49024507  0.67393656  1.0
  O  O46  1  0.64395740  0.49404306  0.34228262  1.0
  O  O47  1  0.64109568  0.51941053  0.71072333  1.0
  O  O48  1  0.10415767  0.38766055  0.73250232  1.0
  O  O49  1  0.12772779  0.53808698  0.86761770  1.0
  O  O50  1  0.17741502  0.18463111  0.05638346  1.0
  O  O51  1  0.38465446  0.21524045  0.16365680  1.0
  O  O52  1  0.11938378  0.80413486  0.53316215  1.0
  O  O53  1  0.24589003  0.70906540  0.68535883  1.0
  O  O54  1  0.06348626  0.21275954  0.40286768  1.0
  O  O55  1  0.14752400  0.35560563  0.29469115  1.0
