# generated using pymatgen
data_Zn8H57C82N9O44
_symmetry_space_group_name_H-M   'P 1'
_cell_length_a   18.27791580
_cell_length_b   18.32097505
_cell_length_c   18.44488124
_cell_angle_alpha   60.40475891
_cell_angle_beta   60.36757920
_cell_angle_gamma   60.29088584
_symmetry_Int_Tables_number   1
_chemical_formula_structural   Zn8H57C82N9O44
_chemical_formula_sum   'Zn8 H57 C82 N9 O44'
_cell_volume   4402.53852661
_cell_formula_units_Z   1
loop_
 _symmetry_equiv_pos_site_id
 _symmetry_equiv_pos_as_xyz
  1  'x, y, z'
loop_
 _atom_site_type_symbol
 _atom_site_label
 _atom_site_symmetry_multiplicity
 _atom_site_fract_x
 _atom_site_fract_y
 _atom_site_fract_z
 _atom_site_occupancy
  Zn  Zn0  1  0.46167153  0.94651347  0.45389436  1.0
  Zn  Zn1  1  0.45778445  0.12244262  0.45555045  1.0
  Zn  Zn2  1  0.63196695  0.95308429  0.45750978  1.0
  Zn  Zn3  1  0.45844072  0.95035622  0.62960571  1.0
  Zn  Zn4  1  0.05433886  0.53511479  0.03822517  1.0
  Zn  Zn5  1  0.87469339  0.53588310  0.04633662  1.0
  Zn  Zn6  1  0.05001614  0.36266448  0.03931294  1.0
  Zn  Zn7  1  0.04630236  0.53941045  0.86813496  1.0
  H  H8  1  0.15069134  0.08275889  0.38520111  1.0
  H  H9  1  0.15772257  0.11544750  0.49613260  1.0
  H  H10  1  0.19476626  0.99336971  0.62892908  1.0
  H  H11  1  0.21626776  0.80420248  0.53932249  1.0
  H  H12  1  0.12969147  0.76508273  0.70985757  1.0
  H  H13  1  0.37473621  0.72714212  0.78487346  1.0
  H  H14  1  0.33496920  0.54339235  0.08769542  1.0
  H  H15  1  0.40548795  0.36961232  0.95382856  1.0
  H  H16  1  0.70259910  0.57020355  0.32056557  1.0
  H  H17  1  0.54884241  0.74742989  0.33135269  1.0
  H  H18  1  0.59882989  0.66853541  0.41563305  1.0
  H  H19  1  0.67131379  0.58253460  0.92634029  1.0
  H  H20  1  0.61291856  0.67279870  0.96940438  1.0
  H  H21  1  0.59027099  0.66859544  0.81646856  1.0
  H  H22  1  0.29979369  0.30877228  0.58362886  1.0
  H  H23  1  0.19941554  0.40864678  0.67468501  1.0
  H  H24  1  0.18413724  0.12273943  0.96821435  1.0
  H  H25  1  0.38312696  0.04559334  0.86717432  1.0
  H  H26  1  0.29508599  0.01964108  0.87805371  1.0
  H  H27  1  0.80539141  0.09207670  0.36310844  1.0
  H  H28  1  0.63509508  0.46798792  0.17264026  1.0
  H  H29  1  0.53296633  0.37982974  0.27109297  1.0
  H  H30  1  0.57181654  0.33028053  0.19102204  1.0
  H  H31  1  0.34036273  0.08348382  0.25398010  1.0
  H  H32  1  0.24644980  0.18204783  0.15718065  1.0
  H  H33  1  0.20357178  0.46654416  0.20929129  1.0
  H  H34  1  0.11124964  0.43531004  0.29881480  1.0
  H  H35  1  0.30104626  0.36576151  0.30522545  1.0
  H  H36  1  0.20813399  0.33571844  0.39581299  1.0
  H  H37  1  0.77802872  0.06357075  0.21183812  1.0
  H  H38  1  0.84853548  0.06108084  0.10326750  1.0
  H  H39  1  0.73488971  0.13040858  0.12260703  1.0
  H  H40  1  0.75759375  0.99193553  0.10468792  1.0
  H  H41  1  0.68488303  0.99775565  0.21078156  1.0
  H  H42  1  0.81294809  0.89509048  0.27039581  1.0
  H  H43  1  0.88529287  0.89016939  0.16407156  1.0
  H  H44  1  0.71317446  0.41110485  0.90530906  1.0
  H  H45  1  0.81886294  0.39573740  0.90147027  1.0
  H  H46  1  0.79731915  0.30496271  0.91415949  1.0
  H  H47  1  0.78921885  0.29354001  0.05919493  1.0
  H  H48  1  0.68519623  0.30617274  0.06381879  1.0
  H  H49  1  0.63173311  0.46869220  0.03878938  1.0
  H  H50  1  0.73763174  0.45963641  0.02742615  1.0
  H  H51  1  0.23895036  0.89557808  0.22584718  1.0
  H  H52  1  0.12023860  0.93384803  0.26623884  1.0
  H  H53  1  0.17817694  0.00556024  0.17278910  1.0
  H  H54  1  0.12092607  0.04788835  0.30448344  1.0
  H  H55  1  0.23880481  0.00745114  0.26781575  1.0
  H  H56  1  0.23355631  0.85531499  0.38133001  1.0
  H  H57  1  0.11676494  0.89992677  0.41942969  1.0
  H  H58  1  0.22278165  0.84534714  0.01575797  1.0
  H  H59  1  0.12080842  0.82207745  0.07102469  1.0
  H  H60  1  0.18334546  0.80055053  0.13283576  1.0
  H  H61  1  0.20606729  0.65828709  0.12429778  1.0
  H  H62  1  0.30713814  0.68203275  0.06868982  1.0
  H  H63  1  0.27995108  0.74826750  0.92450845  1.0
  H  H64  1  0.18066289  0.72344587  0.97904624  1.0
  C  C65  1  0.37733608  0.13044170  0.63730587  1.0
  C  C66  1  0.64902718  0.85786522  0.35790271  1.0
  C  C67  1  0.36688310  0.12621285  0.35950708  1.0
  C  C68  1  0.63891773  0.86047210  0.63850530  1.0
  C  C69  1  0.63874428  0.13402077  0.36540471  1.0
  C  C70  1  0.36106851  0.85896541  0.63708140  1.0
  C  C71  1  0.17102383  0.04681378  0.50568703  1.0
  C  C72  1  0.19225705  0.97854111  0.57981949  1.0
  C  C73  1  0.20884596  0.89023813  0.59233107  1.0
  C  C74  1  0.20270219  0.87293991  0.52997031  1.0
  C  C75  1  0.18233057  0.94094780  0.45445455  1.0
  C  C76  1  0.16655472  0.02835907  0.44316638  1.0
  C  C77  1  0.18488840  0.75653313  0.72460387  1.0
  C  C78  1  0.20389497  0.68745373  0.79993508  1.0
  C  C79  1  0.27323598  0.67499224  0.82304776  1.0
  C  C80  1  0.32011489  0.73517849  0.76957016  1.0
  C  C81  1  0.30139061  0.80367644  0.69392117  1.0
  C  C82  1  0.23264513  0.81611309  0.67000659  1.0
  C  C83  1  0.29768011  0.60989147  0.96993235  1.0
  C  C84  1  0.33591588  0.53619582  0.03213856  1.0
  C  C85  1  0.37582344  0.45159054  0.02472688  1.0
  C  C86  1  0.37705527  0.43628899  0.95743717  1.0
  C  C87  1  0.34262070  0.51065229  0.89385871  1.0
  C  C88  1  0.30396758  0.59788391  0.89643687  1.0
  C  C89  1  0.68353092  0.74701692  0.29577220  1.0
  C  C90  1  0.70844323  0.80952833  0.29223678  1.0
  C  C91  1  0.78979918  0.82277170  0.22600863  1.0
  C  C92  1  0.84158023  0.76826938  0.17235132  1.0
  C  C93  1  0.81858170  0.70245838  0.17770025  1.0
  C  C94  1  0.73689325  0.69537867  0.24098251  1.0
  C  C95  1  0.67624801  0.64110016  0.28532739  1.0
  C  C96  1  0.61213177  0.70366120  0.34437497  1.0
  C  C97  1  0.66589787  0.75281269  0.78119954  1.0
  C  C98  1  0.69456121  0.81055106  0.69702455  1.0
  C  C99  1  0.77826783  0.81603605  0.67369238  1.0
  C  C100  1  0.82724646  0.76636751  0.73183781  1.0
  C  C101  1  0.79875669  0.70458204  0.81532600  1.0
  C  C102  1  0.71533738  0.70167134  0.83838722  1.0
  C  C103  1  0.64817296  0.65494678  0.90897483  1.0
  C  C104  1  0.59516090  0.70892771  0.84110645  1.0
  C  C105  1  0.30008693  0.15590391  0.78481164  1.0
  C  C106  1  0.32107031  0.18852967  0.69322366  1.0
  C  C107  1  0.28362014  0.28124770  0.65516004  1.0
  C  C108  1  0.22702609  0.33727705  0.70612248  1.0
  C  C109  1  0.20372301  0.30339831  0.79874133  1.0
  C  C110  1  0.24230161  0.21204912  0.83516794  1.0
  C  C111  1  0.24595458  0.13713028  0.92159949  1.0
  C  C112  1  0.31545868  0.07360225  0.86431092  1.0
  C  C113  1  0.66694890  0.27889412  0.26082152  1.0
  C  C114  1  0.69457096  0.19202242  0.31572075  1.0
  C  C115  1  0.78079009  0.15921356  0.31992915  1.0
  C  C116  1  0.83461161  0.21240259  0.27060031  1.0
  C  C117  1  0.80941127  0.29908102  0.21062345  1.0
  C  C118  1  0.72381008  0.32954670  0.20866234  1.0
  C  C119  1  0.65887902  0.40559819  0.16050061  1.0
  C  C120  1  0.59292870  0.34959085  0.22347983  1.0
  C  C121  1  0.26524236  0.27435900  0.29314432  1.0
  C  C122  1  0.31213363  0.18479162  0.30066846  1.0
  C  C123  1  0.30426718  0.15306234  0.24985260  1.0
  C  C124  1  0.25141975  0.20828217  0.19570206  1.0
  C  C125  1  0.20337957  0.29866307  0.18939362  1.0
  C  C126  1  0.21234580  0.32984474  0.23891210  1.0
  C  C127  1  0.18299452  0.41006816  0.26378868  1.0
  C  C128  1  0.24360335  0.34728364  0.32467881  1.0
  C  C129  1  0.85740612  0.63977241  0.87103576  1.0
  C  C130  1  0.14532751  0.35633269  0.13370506  1.0
  C  C131  1  0.87459569  0.64190537  0.12407330  1.0
  C  C132  1  0.14161673  0.36094728  0.85486558  1.0
  C  C133  1  0.86896663  0.35365798  0.14648090  1.0
  C  C134  1  0.14658815  0.63011329  0.85658290  1.0
  C  C135  1  0.81604810  0.89776238  0.20825211  1.0
  C  C136  1  0.75467028  0.98954097  0.16688484  1.0
  C  C137  1  0.78042516  0.06541379  0.15022951  1.0
  C  C138  1  0.69000258  0.42333844  0.06135595  1.0
  C  C139  1  0.73336820  0.34102894  0.03351771  1.0
  C  C140  1  0.76751054  0.36439745  0.93323138  1.0
  C  C141  1  0.17785547  0.91729460  0.38924482  1.0
  C  C142  1  0.17938929  0.98758519  0.29811254  1.0
  C  C143  1  0.17925691  0.95376522  0.23724295  1.0
  C  C144  1  0.24799606  0.70024475  0.98174291  1.0
  C  C145  1  0.23998180  0.70446334  0.06615975  1.0
  C  C146  1  0.18874760  0.79844937  0.07180771  1.0
  N  N147  1  0.41936224  0.37628281  0.08899576  1.0
  N  N148  1  0.34898451  0.49369211  0.81999307  1.0
  N  N149  1  0.92546396  0.78413201  0.10275138  1.0
  N  N150  1  0.63560335  0.64666048  0.22755818  1.0
  N  N151  1  0.81505879  0.87818229  0.58616596  1.0
  N  N152  1  0.90971099  0.78296119  0.70721176  1.0
  N  N153  1  0.50092727  0.76764222  0.87556779  1.0
  N  N154  1  0.28320896  0.14431935  0.97437706  1.0
  N  N155  1  0.91898683  0.17576805  0.28792492  1.0
  O  O156  1  0.50235298  0.99146435  0.50030596  1.0
  O  O157  1  0.40352940  0.04656902  0.67792866  1.0
  O  O158  1  0.56603189  0.87245306  0.38213332  1.0
  O  O159  1  0.37438205  0.16480154  0.39626676  1.0
  O  O160  1  0.67649601  0.89621590  0.55731346  1.0
  O  O161  1  0.55522793  0.17253929  0.37796263  1.0
  O  O162  1  0.37514077  0.88824788  0.67754428  1.0
  O  O163  1  0.68012913  0.05045497  0.38968380  1.0
  O  O164  1  0.39475566  0.86930098  0.55493914  1.0
  O  O165  1  0.40158510  0.04311992  0.36953677  1.0
  O  O166  1  0.55856173  0.86093643  0.67662988  1.0
  O  O167  1  0.39347346  0.16886457  0.55427853  1.0
  O  O168  1  0.68617790  0.87701660  0.38631172  1.0
  O  O169  1  0.00452495  0.49399897  0.99744117  1.0
  O  O170  1  0.94022889  0.61498107  0.82909416  1.0
  O  O171  1  0.11301868  0.43970496  0.12344990  1.0
  O  O172  1  0.83192437  0.60618826  0.12092734  1.0
  O  O173  1  0.11995345  0.31987243  0.93796647  1.0
  O  O174  1  0.82837635  0.43750531  0.12593709  1.0
  O  O175  1  0.11058762  0.62121849  0.81859670  1.0
  O  O176  1  0.95167992  0.31347078  0.11481616  1.0
  O  O177  1  0.13792276  0.59530275  0.93856563  1.0
  O  O178  1  0.95779859  0.62924921  0.08930234  1.0
  O  O179  1  0.11510175  0.44481669  0.81594427  1.0
  O  O180  1  0.81745969  0.61307358  0.95390084  1.0
  O  O181  1  0.13192600  0.31876998  0.10095071  1.0
  O  O182  1  0.45155594  0.30126995  0.08272142  1.0
  O  O183  1  0.42248824  0.39278741  0.14511239  1.0
  O  O184  1  0.38798200  0.53429035  0.74409310  1.0
  O  O185  1  0.31557222  0.43883686  0.84006607  1.0
  O  O186  1  0.99077596  0.75285281  0.12617538  1.0
  O  O187  1  0.92249137  0.82967168  0.02709453  1.0
  O  O188  1  0.61335146  0.71946292  0.17177236  1.0
  O  O189  1  0.62609604  0.57785610  0.24181935  1.0
  O  O190  1  0.86130555  0.84889387  0.52426847  1.0
  O  O191  1  0.79590905  0.95367410  0.58461379  1.0
  O  O192  1  0.91001196  0.80714028  0.75878705  1.0
  O  O193  1  0.96960801  0.77277562  0.63775563  1.0
  O  O194  1  0.49115080  0.83338508  0.88672612  1.0
  O  O195  1  0.44024149  0.74325350  0.89273699  1.0
  O  O196  1  0.35003218  0.16743486  0.93328319  1.0
  O  O197  1  0.24437839  0.12579536  0.05513287  1.0
  O  O198  1  0.93825006  0.22648152  0.29648869  1.0
  O  O199  1  0.96283505  0.09628875  0.29574602  1.0
