# generated using pymatgen
data_ZnH12C21SN2O7
_symmetry_space_group_name_H-M   'P 1'
_cell_length_a   13.73148254
_cell_length_b   14.09055423
_cell_length_c   14.99000739
_cell_angle_alpha   92.53201708
_cell_angle_beta   90.25154326
_cell_angle_gamma   97.55518677
_symmetry_Int_Tables_number   1
_chemical_formula_structural   ZnH12C21SN2O7
_chemical_formula_sum   'Zn2 H24 C42 S2 N4 O14'
_cell_volume   2872.19154079
_cell_formula_units_Z   2
loop_
 _symmetry_equiv_pos_site_id
 _symmetry_equiv_pos_as_xyz
  1  'x, y, z'
loop_
 _atom_site_type_symbol
 _atom_site_label
 _atom_site_symmetry_multiplicity
 _atom_site_fract_x
 _atom_site_fract_y
 _atom_site_fract_z
 _atom_site_occupancy
  Zn  Zn0  1  0.50888340  0.60781021  0.51048295  1.0
  Zn  Zn1  1  0.48599417  0.38887285  0.48023730  1.0
  H  H2  1  0.01956399  0.55183468  0.60228717  1.0
  H  H3  1  0.60549062  0.27396786  0.57177738  1.0
  H  H4  1  0.32432907  0.85806679  0.35902782  1.0
  H  H5  1  0.69444421  0.14352589  0.63705996  1.0
  H  H6  1  0.31607364  0.02941453  0.34012908  1.0
  H  H7  1  0.70151892  0.97434245  0.65734264  1.0
  H  H8  1  0.34441319  0.59185227  0.67143330  1.0
  H  H9  1  0.69951433  0.59442933  0.33914720  1.0
  H  H10  1  0.66296671  0.84803202  0.68727367  1.0
  H  H11  1  0.61096579  0.72999346  0.77798053  1.0
  H  H12  1  0.63015487  0.65037511  0.68527707  1.0
  H  H13  1  0.97655586  0.46439169  0.41079731  1.0
  H  H14  1  0.51225501  0.68692467  0.70318795  1.0
  H  H15  1  0.35028331  0.17856331  0.31837743  1.0
  H  H16  1  0.22379998  0.14855351  0.43250558  1.0
  H  H17  1  0.21902145  0.25940866  0.37858018  1.0
  H  H18  1  0.27435909  0.26110773  0.48513534  1.0
  H  H19  1  0.60450473  0.45092741  0.75531724  1.0
  H  H20  1  0.38350038  0.54618362  0.23866316  1.0
  H  H21  1  0.24175822  0.53376954  0.94816179  1.0
  H  H22  1  0.75146345  0.48835085  0.04350231  1.0
  H  H23  1  0.27355567  0.55274096  0.10935102  1.0
  H  H24  1  0.71784231  0.46189708  0.88335903  1.0
  H  H25  1  0.40024307  0.72946045  0.43548164  1.0
  C  C26  1  0.53769763  0.52512444  0.33006486  1.0
  C  C27  1  0.65933724  0.47761233  0.92850876  1.0
  C  C28  1  0.56870513  0.82173990  0.58478235  1.0
  C  C29  1  0.42987689  0.17881437  0.43071457  1.0
  C  C30  1  0.44819952  0.78586394  0.47218505  1.0
  C  C31  1  0.55911985  0.21669736  0.53474137  1.0
  C  C32  1  0.44425061  0.88169647  0.45593756  1.0
  C  C33  1  0.57167439  0.12032029  0.54289151  1.0
  C  C34  1  0.51183168  0.95127343  0.50386183  1.0
  C  C35  1  0.50799211  0.05034489  0.49203974  1.0
  C  C36  1  0.57801146  0.92213747  0.56643593  1.0
  C  C37  1  0.45253319  0.47325317  0.66241385  1.0
  C  C38  1  0.43655853  0.07955979  0.43365226  1.0
  C  C39  1  0.37524890  0.91236685  0.39532759  1.0
  C  C40  1  0.64283974  0.08966988  0.60101784  1.0
  C  C41  1  0.67907325  0.50300891  0.53381871  1.0
  C  C42  1  0.31715398  0.49924356  0.46135615  1.0
  C  C43  1  0.37106218  0.00758468  0.38472860  1.0
  C  C44  1  0.64553246  0.99405904  0.61239225  1.0
  C  C45  1  0.21236460  0.49962946  0.45618999  1.0
  C  C46  1  0.78376460  0.51093789  0.54659331  1.0
  C  C47  1  0.02132225  0.49331595  0.46875958  1.0
  C  C48  1  0.48649476  0.50252417  0.94903525  1.0
  C  C49  1  0.97587094  0.52264129  0.54382310  1.0
  C  C50  1  0.87326951  0.51713497  0.54749464  1.0
  C  C51  1  0.12346728  0.49759476  0.46172474  1.0
  C  C52  1  0.54576900  0.46771055  0.79968134  1.0
  C  C53  1  0.44427696  0.53810332  0.19346438  1.0
  C  C54  1  0.45436315  0.47680047  0.76303492  1.0
  C  C55  1  0.53696388  0.53129492  0.22966492  1.0
  C  C56  1  0.37651009  0.49725379  0.81886479  1.0
  C  C57  1  0.61616619  0.52218558  0.17266317  1.0
  C  C58  1  0.39043567  0.50930042  0.91275139  1.0
  C  C59  1  0.50532122  0.51529212  0.04278297  1.0
  C  C60  1  0.60151719  0.51093328  0.07858069  1.0
  C  C61  1  0.59151105  0.71018028  0.70795484  1.0
  C  C62  1  0.26357413  0.22037296  0.42125611  1.0
  C  C63  1  0.56417867  0.48214606  0.89154276  1.0
  C  C64  1  0.42720394  0.53222663  0.10131354  1.0
  C  C65  1  0.31456195  0.52834559  0.97429748  1.0
  C  C66  1  0.67800084  0.49259583  0.01786709  1.0
  C  C67  1  0.33259769  0.53907370  0.06396796  1.0
  S  S68  1  0.26197732  0.50410496  0.76161899  1.0
  S  S69  1  0.74056659  0.53069023  0.21264628  1.0
  N  N70  1  0.50821617  0.75571333  0.53383807  1.0
  N  N71  1  0.49046392  0.24397738  0.48112632  1.0
  N  N72  1  0.61793489  0.79440581  0.65565012  1.0
  N  N73  1  0.35968450  0.21555048  0.37841532  1.0
  O  O74  1  0.56366836  0.60143363  0.37864387  1.0
  O  O75  1  0.18299799  0.51773664  0.82138100  1.0
  O  O76  1  0.28707973  0.60208781  0.71294397  1.0
  O  O77  1  0.77950973  0.44207095  0.19466301  1.0
  O  O78  1  0.79103187  0.61904644  0.18120775  1.0
  O  O79  1  0.73215825  0.53871953  0.31879095  1.0
  O  O80  1  0.47993492  0.40177814  0.62186731  1.0
  O  O81  1  0.50550054  0.44305307  0.35574243  1.0
  O  O82  1  0.43336444  0.54982824  0.62512213  1.0
  O  O83  1  0.63856582  0.57753171  0.55608835  1.0
  O  O84  1  0.34572049  0.41935692  0.47562002  1.0
  O  O85  1  0.63646532  0.42395636  0.50088258  1.0
  O  O86  1  0.37130823  0.57926436  0.45275148  1.0
  O  O87  1  0.25033678  0.42522087  0.69606057  1.0
