# generated using pymatgen
data_Zn4H36C60O13
_symmetry_space_group_name_H-M   'P 1'
_cell_length_a   23.38292021
_cell_length_b   23.38292081
_cell_length_c   29.79969019
_cell_angle_alpha   66.90788008
_cell_angle_beta   66.90790776
_cell_angle_gamma   60.01073554
_symmetry_Int_Tables_number   1
_chemical_formula_structural   Zn4H36C60O13
_chemical_formula_sum   'Zn16 H144 C240 O52'
_cell_volume   12581.59185993
_cell_formula_units_Z   4
loop_
 _symmetry_equiv_pos_site_id
 _symmetry_equiv_pos_as_xyz
  1  'x, y, z'
loop_
 _atom_site_type_symbol
 _atom_site_label
 _atom_site_symmetry_multiplicity
 _atom_site_fract_x
 _atom_site_fract_y
 _atom_site_fract_z
 _atom_site_occupancy
  Zn  Zn0  1  0.86546040  0.92344351  0.44237031  1.0
  Zn  Zn1  1  0.76865875  0.86553608  0.44232141  1.0
  Zn  Zn2  1  0.92334098  0.76875353  0.44237540  1.0
  Zn  Zn3  1  0.36553593  0.26865920  0.94232092  1.0
  Zn  Zn4  1  0.26875425  0.42334057  0.94237520  1.0
  Zn  Zn5  1  0.42344339  0.36546059  0.94236955  1.0
  Zn  Zn6  1  0.81912930  0.81915256  0.54250067  1.0
  Zn  Zn7  1  0.31915205  0.31912951  0.04250041  1.0
  Zn  Zn8  1  0.03958716  0.19461492  0.62641979  1.0
  Zn  Zn9  1  0.13943579  0.03952113  0.62643127  1.0
  Zn  Zn10  1  0.19459423  0.13948287  0.62638030  1.0
  Zn  Zn11  1  0.53952246  0.63943577  0.12643026  1.0
  Zn  Zn12  1  0.63948305  0.69459368  0.12637982  1.0
  Zn  Zn13  1  0.69461718  0.53958546  0.12642039  1.0
  Zn  Zn14  1  0.09121831  0.09129381  0.72610046  1.0
  Zn  Zn15  1  0.59129409  0.59121840  0.22610042  1.0
  H  H16  1  0.86508701  0.04371638  0.51140213  1.0
  H  H17  1  0.77666779  0.92606055  0.64588386  1.0
  H  H18  1  0.05526835  0.94802855  0.35800491  1.0
  H  H19  1  0.08061853  0.77706677  0.31935134  1.0
  H  H20  1  0.85781114  0.11182329  0.56128622  1.0
  H  H21  1  0.76781503  0.99479358  0.69640920  1.0
  H  H22  1  0.16096305  0.95065307  0.29314123  1.0
  H  H23  1  0.18534092  0.78043570  0.25262906  1.0
  H  H24  1  0.90425318  0.10477938  0.61971137  1.0
  H  H25  1  0.70767349  0.10654497  0.70887587  1.0
  H  H26  1  0.29285297  0.75813243  0.23689667  1.0
  H  H27  1  0.89431520  0.17716223  0.66745378  1.0
  H  H28  1  0.57964699  0.86514988  0.51137956  1.0
  H  H29  1  0.65141922  0.77664617  0.64580757  1.0
  H  H30  1  0.63859241  0.05534409  0.35791888  1.0
  H  H31  1  0.82280598  0.08074729  0.31933980  1.0
  H  H32  1  0.46900134  0.85783292  0.56132660  1.0
  H  H33  1  0.54105723  0.76777583  0.69638260  1.0
  H  H34  1  0.59520137  0.16102155  0.29302666  1.0
  H  H35  1  0.78150953  0.18541748  0.25258849  1.0
  H  H36  1  0.37129629  0.90409527  0.61964437  1.0
  H  H37  1  0.47682769  0.70769601  0.70902374  1.0
  H  H38  1  0.71205987  0.29289996  0.23688779  1.0
  H  H39  1  0.26110745  0.89421835  0.66741652  1.0
  H  H40  1  0.04389492  0.57990912  0.51134284  1.0
  H  H41  1  0.92616791  0.65150588  0.64583055  1.0
  H  H42  1  0.94826607  0.63864114  0.35790819  1.0
  H  H43  1  0.77715072  0.82268739  0.31936168  1.0
  H  H44  1  0.11175118  0.46914278  0.56128282  1.0
  H  H45  1  0.99475930  0.54110176  0.69639160  1.0
  H  H46  1  0.95082108  0.59508453  0.29312273  1.0
  H  H47  1  0.78046757  0.78125770  0.25269017  1.0
  H  H48  1  0.10484465  0.37134059  0.61956898  1.0
  H  H49  1  0.10628471  0.47685191  0.70902425  1.0
  H  H50  1  0.75817403  0.71192007  0.23687007  1.0
  H  H51  1  0.17719689  0.26116989  0.66731620  1.0
  H  H52  1  0.36514921  0.07964820  0.01137909  1.0
  H  H53  1  0.27664705  0.15141818  0.14580830  1.0
  H  H54  1  0.55534453  0.13859111  0.85791927  1.0
  H  H55  1  0.58074729  0.32280569  0.81934031  1.0
  H  H56  1  0.35783352  0.96900120  0.06132596  1.0
  H  H57  1  0.26777769  0.04105573  0.19638251  1.0
  H  H58  1  0.66102123  0.09520144  0.79302587  1.0
  H  H59  1  0.68541619  0.28150971  0.75258929  1.0
  H  H60  1  0.40409425  0.87129588  0.11964301  1.0
  H  H61  1  0.20769623  0.97682704  0.20902369  1.0
  H  H62  1  0.79289976  0.21206030  0.73688820  1.0
  H  H63  1  0.39421737  0.76110729  0.16741609  1.0
  H  H64  1  0.07990934  0.54389563  0.01134242  1.0
  H  H65  1  0.15150666  0.42616877  0.14582998  1.0
  H  H66  1  0.13864082  0.44826685  0.85790892  1.0
  H  H67  1  0.32268833  0.27715162  0.81936103  1.0
  H  H68  1  0.96914280  0.61175143  0.06128187  1.0
  H  H69  1  0.04110257  0.49475978  0.19639078  1.0
  H  H70  1  0.09508447  0.45082142  0.79312283  1.0
  H  H71  1  0.28125848  0.28046969  0.75268886  1.0
  H  H72  1  0.87134163  0.60484540  0.11956754  1.0
  H  H73  1  0.97685142  0.60628507  0.20902376  1.0
  H  H74  1  0.21192043  0.25817497  0.73687126  1.0
  H  H75  1  0.76117006  0.67719688  0.16731390  1.0
  H  H76  1  0.54371664  0.36508864  0.01140101  1.0
  H  H77  1  0.42606045  0.27666864  0.14588229  1.0
  H  H78  1  0.44802867  0.55526905  0.85800519  1.0
  H  H79  1  0.27706858  0.58061759  0.81935057  1.0
  H  H80  1  0.61182314  0.35781183  0.06128587  1.0
  H  H81  1  0.49479414  0.26781455  0.19640785  1.0
  H  H82  1  0.45065389  0.66096367  0.79314131  1.0
  H  H83  1  0.28043769  0.68534000  0.75262854  1.0
  H  H84  1  0.60477980  0.40425279  0.11971083  1.0
  H  H85  1  0.60654330  0.20767338  0.20887660  1.0
  H  H86  1  0.25813397  0.79285182  0.73689634  1.0
  H  H87  1  0.67716324  0.39431503  0.16745233  1.0
  H  H88  1  0.07986308  0.02726762  0.51790033  1.0
  H  H89  1  0.03555243  0.03381019  0.45217571  1.0
  H  H90  1  0.87674338  0.23116932  0.47006524  1.0
  H  H91  1  0.92414459  0.22532199  0.53370876  1.0
  H  H92  1  0.96373006  0.02660449  0.43078199  1.0
  H  H93  1  0.92698145  0.03213198  0.36189185  1.0
  H  H94  1  0.86614907  0.14460080  0.30866947  1.0
  H  H95  1  0.88216286  0.24634234  0.39291937  1.0
  H  H96  1  0.87817696  0.23722284  0.24819108  1.0
  H  H97  1  0.80894462  0.34670246  0.19771105  1.0
  H  H98  1  0.70068747  0.42565680  0.32943853  1.0
  H  H99  1  0.76947348  0.31614617  0.38049902  1.0
  H  H100  1  0.37513337  0.07983009  0.51786701  1.0
  H  H101  1  0.47855404  0.03551576  0.45215946  1.0
  H  H102  1  0.42195402  0.87679267  0.47000476  1.0
  H  H103  1  0.31685135  0.92418390  0.53367001  1.0
  H  H104  1  0.57899141  0.96370122  0.43082648  1.0
  H  H105  1  0.67915115  0.92690250  0.36202509  1.0
  H  H106  1  0.68085539  0.86599771  0.30876862  1.0
  H  H107  1  0.47881155  0.88207292  0.39284935  1.0
  H  H108  1  0.63659242  0.87793167  0.24817692  1.0
  H  H109  1  0.64654425  0.80874846  0.19776294  1.0
  H  H110  1  0.54404645  0.70068358  0.32958028  1.0
  H  H111  1  0.53389665  0.76946263  0.38055668  1.0
  H  H112  1  0.02720885  0.37502175  0.51795636  1.0
  H  H113  1  0.03367993  0.47851376  0.45223968  1.0
  H  H114  1  0.23106396  0.42221595  0.47005955  1.0
  H  H115  1  0.22528126  0.31701658  0.53370567  1.0
  H  H116  1  0.02647821  0.57907770  0.43078757  1.0
  H  H117  1  0.03211329  0.67913204  0.36189200  1.0
  H  H118  1  0.14464518  0.68062329  0.30870581  1.0
  H  H119  1  0.24621643  0.47866881  0.39301728  1.0
  H  H120  1  0.23725016  0.63635866  0.24825965  1.0
  H  H121  1  0.34680061  0.64648110  0.19777295  1.0
  H  H122  1  0.42572141  0.54408154  0.32951234  1.0
  H  H123  1  0.31617525  0.53383434  0.38057699  1.0
  H  H124  1  0.57983062  0.87513302  0.01786698  1.0
  H  H125  1  0.53551670  0.97855459  0.95215826  1.0
  H  H126  1  0.37679197  0.92195511  0.97000544  1.0
  H  H127  1  0.42418394  0.81685197  0.03367002  1.0
  H  H128  1  0.46370122  0.07899247  0.93082682  1.0
  H  H129  1  0.42690164  0.17915164  0.86202550  1.0
  H  H130  1  0.36599703  0.18085569  0.80876903  1.0
  H  H131  1  0.38207132  0.97881247  0.89285068  1.0
  H  H132  1  0.37793034  0.13659221  0.74817736  1.0
  H  H133  1  0.30874835  0.14654404  0.69776299  1.0
  H  H134  1  0.20068416  0.04404549  0.82958068  1.0
  H  H135  1  0.26946256  0.03389592  0.88055789  1.0
  H  H136  1  0.87502194  0.52720851  0.01795654  1.0
  H  H137  1  0.97851407  0.53368002  0.95224099  1.0
  H  H138  1  0.92221501  0.73106482  0.97005962  1.0
  H  H139  1  0.81701529  0.72528150  0.03370543  1.0
  H  H140  1  0.07907791  0.52647744  0.93078856  1.0
  H  H141  1  0.17913218  0.53211214  0.86189282  1.0
  H  H142  1  0.18062378  0.64464352  0.80870632  1.0
  H  H143  1  0.97866937  0.74621543  0.89301815  1.0
  H  H144  1  0.13635916  0.73724913  0.74826027  1.0
  H  H145  1  0.14648223  0.84679994  0.69777258  1.0
  H  H146  1  0.04408057  0.92572224  0.82951179  1.0
  H  H147  1  0.03383409  0.81617612  0.88057688  1.0
  H  H148  1  0.52726745  0.57986311  0.01790011  1.0
  H  H149  1  0.53380987  0.53555191  0.95217598  1.0
  H  H150  1  0.73116954  0.37674332  0.97006530  1.0
  H  H151  1  0.72532238  0.42414479  0.03370807  1.0
  H  H152  1  0.52660438  0.46373059  0.93078158  1.0
  H  H153  1  0.53213200  0.42698130  0.86189229  1.0
  H  H154  1  0.64460039  0.36614773  0.80867011  1.0
  H  H155  1  0.74634256  0.38216240  0.89291956  1.0
  H  H156  1  0.73722268  0.37817752  0.74819141  1.0
  H  H157  1  0.84670157  0.30894489  0.69771105  1.0
  H  H158  1  0.92565813  0.20068789  0.82943749  1.0
  H  H159  1  0.81614747  0.26947310  0.88049888  1.0
  C  C160  1  0.82703583  0.93998964  0.54508617  1.0
  C  C161  1  0.99967494  0.85743378  0.38209742  1.0
  C  C162  1  0.82143334  0.98071533  0.57562334  1.0
  C  C163  1  0.06185080  0.86171610  0.34282715  1.0
  C  C164  1  0.84441416  0.03307964  0.55201133  1.0
  C  C165  1  0.79376278  0.96726414  0.62780957  1.0
  C  C166  1  0.08411746  0.91136685  0.33484537  1.0
  C  C167  1  0.09918314  0.81461101  0.31301714  1.0
  C  C168  1  0.84024590  0.07095420  0.58012607  1.0
  C  C169  1  0.78871719  0.00599904  0.65574623  1.0
  C  C170  1  0.14311773  0.91295561  0.29809834  1.0
  C  C171  1  0.15758686  0.81666624  0.27613457  1.0
  C  C172  1  0.81205038  0.05833774  0.63242974  1.0
  C  C173  1  0.18097829  0.86579149  0.26795033  1.0
  C  C174  1  0.80701529  0.09974810  0.66173062  1.0
  C  C175  1  0.24308257  0.86736999  0.22822654  1.0
  C  C176  1  0.85904053  0.12093319  0.64979717  1.0
  C  C177  1  0.74957028  0.12021039  0.70101538  1.0
  C  C178  1  0.29613795  0.80685447  0.21564389  1.0
  C  C179  1  0.85357107  0.16128866  0.67671247  1.0
  C  C180  1  0.68785864  0.82702182  0.54502339  1.0
  C  C181  1  0.76068538  0.99980616  0.38209223  1.0
  C  C182  1  0.62220120  0.82144279  0.57556065  1.0
  C  C183  1  0.73348476  0.06194304  0.34279511  1.0
  C  C184  1  0.57042413  0.84444230  0.55198996  1.0
  C  C185  1  0.61117084  0.79375619  0.62775177  1.0
  C  C186  1  0.66958776  0.08418097  0.33477099  1.0
  C  C187  1  0.77305650  0.09928760  0.31299563  1.0
  C  C188  1  0.50862762  0.84023973  0.58013964  1.0
  C  C189  1  0.54955810  0.78869421  0.65571716  1.0
  C  C190  1  0.64576931  0.14316758  0.29799951  1.0
  C  C191  1  0.74951077  0.15765961  0.27608880  1.0
  C  C192  1  0.49716858  0.81200696  0.63243952  1.0
  C  C193  1  0.68522106  0.18102601  0.26786657  1.0
  C  C194  1  0.43149763  0.80695051  0.66175930  1.0
  C  C195  1  0.66130037  0.24311969  0.22814621  1.0
  C  C196  1  0.37023842  0.85893646  0.64979010  1.0
  C  C197  1  0.42914775  0.74955254  0.70110178  1.0
  C  C198  1  0.68130771  0.29619645  0.21561964  1.0
  C  C199  1  0.30843522  0.85349426  0.67670982  1.0
  C  C200  1  0.94004107  0.68798094  0.54507367  1.0
  C  C201  1  0.85753247  0.76068308  0.38205813  1.0
  C  C202  1  0.98085755  0.62236515  0.57556620  1.0
  C  C203  1  0.86184420  0.73344905  0.34279310  1.0
  C  C204  1  0.03319865  0.57062112  0.55196575  1.0
  C  C205  1  0.96737474  0.61127849  0.62776806  1.0
  C  C206  1  0.91155650  0.66955856  0.33478100  1.0
  C  C207  1  0.81471250  0.77294373  0.31301830  1.0
  C  C208  1  0.07094412  0.50877141  0.58011167  1.0
  C  C209  1  0.00603310  0.54963566  0.65571907  1.0
  C  C210  1  0.91311931  0.64565711  0.29807275  1.0
  C  C211  1  0.81674663  0.74931667  0.27616657  1.0
  C  C212  1  0.05831268  0.49724730  0.63242824  1.0
  C  C213  1  0.86588714  0.68501476  0.26797690  1.0
  C  C214  1  0.09963326  0.43152623  0.66173980  1.0
  C  C215  1  0.86741500  0.66106088  0.22826380  1.0
  C  C216  1  0.12087422  0.37028299  0.64973953  1.0
  C  C217  1  0.11999335  0.42917156  0.70111321  1.0
  C  C218  1  0.80690357  0.68113898  0.21564438  1.0
  C  C219  1  0.16120543  0.30849781  0.67665720  1.0
  C  C220  1  0.32702076  0.18785991  0.04502367  1.0
  C  C221  1  0.49980636  0.26068334  0.88209209  1.0
  C  C222  1  0.32144264  0.12220113  0.07556141  1.0
  C  C223  1  0.56194410  0.23348475  0.84279489  1.0
  C  C224  1  0.34444191  0.07042446  0.05199001  1.0
  C  C225  1  0.29375682  0.11117019  0.12775246  1.0
  C  C226  1  0.58417998  0.16958806  0.83477133  1.0
  C  C227  1  0.59928610  0.27305564  0.81299680  1.0
  C  C228  1  0.34024011  0.00862840  0.08013933  1.0
  C  C229  1  0.28869513  0.04955652  0.15571773  1.0
  C  C230  1  0.64316816  0.14576934  0.79799912  1.0
  C  C231  1  0.65765973  0.24951224  0.77608842  1.0
  C  C232  1  0.31200709  0.99716854  0.13243966  1.0
  C  C233  1  0.68102432  0.18522208  0.76786658  1.0
  C  C234  1  0.30695122  0.93149663  0.16175890  1.0
  C  C235  1  0.74311860  0.16130142  0.72814604  1.0
  C  C236  1  0.35893678  0.87023701  0.14978929  1.0
  C  C237  1  0.24955332  0.92914727  0.20110085  1.0
  C  C238  1  0.79619549  0.18130844  0.71562020  1.0
  C  C239  1  0.35349521  0.80843376  0.17670918  1.0
  C  C240  1  0.18798145  0.44004161  0.04507295  1.0
  C  C241  1  0.26068255  0.35753240  0.88205856  1.0
  C  C242  1  0.12236496  0.48085835  0.07556560  1.0
  C  C243  1  0.23345007  0.36184566  0.84279290  1.0
  C  C244  1  0.07062155  0.53319833  0.05196525  1.0
  C  C245  1  0.11127855  0.46737513  0.12776751  1.0
  C  C246  1  0.16955923  0.41155700  0.83478052  1.0
  C  C247  1  0.27294422  0.31471334  0.81301747  1.0
  C  C248  1  0.00877282  0.57094417  0.08011007  1.0
  C  C249  1  0.04963675  0.50603338  0.15571785  1.0
  C  C250  1  0.14565745  0.41312071  0.79807275  1.0
  C  C251  1  0.24931680  0.31674919  0.77616498  1.0
  C  C252  1  0.99724700  0.55831313  0.13242734  1.0
  C  C253  1  0.18501461  0.36588960  0.76797607  1.0
  C  C254  1  0.93152564  0.59963368  0.16173898  1.0
  C  C255  1  0.16106116  0.36741566  0.72826440  1.0
  C  C256  1  0.87028420  0.62087415  0.14973762  1.0
  C  C257  1  0.92917117  0.61999387  0.20111264  1.0
  C  C258  1  0.18113870  0.30690457  0.71564573  1.0
  C  C259  1  0.80849848  0.66120494  0.17665558  1.0
  C  C260  1  0.43999021  0.32703703  0.04508462  1.0
  C  C261  1  0.35743386  0.49967561  0.88209708  1.0
  C  C262  1  0.48071629  0.32143491  0.07562089  1.0
  C  C263  1  0.36171821  0.56184920  0.84282718  1.0
  C  C264  1  0.53308044  0.34441559  0.05201044  1.0
  C  C265  1  0.46726393  0.29376438  0.12780815  1.0
  C  C266  1  0.41136753  0.58411633  0.83484604  1.0
  C  C267  1  0.31461319  0.59918198  0.81301632  1.0
  C  C268  1  0.57095410  0.34024680  0.08012597  1.0
  C  C269  1  0.50599914  0.28871791  0.15574512  1.0
  C  C270  1  0.41295685  0.64311611  0.79809865  1.0
  C  C271  1  0.31666771  0.65758604  0.77613420  1.0
  C  C272  1  0.55833789  0.31205165  0.13242845  1.0
  C  C273  1  0.36579217  0.68097804  0.76794936  1.0
  C  C274  1  0.59974659  0.30701596  0.16173071  1.0
  C  C275  1  0.36737073  0.74308177  0.72822605  1.0
  C  C276  1  0.62093279  0.35904140  0.14979684  1.0
  C  C277  1  0.62020913  0.24957156  0.20101555  1.0
  C  C278  1  0.30685498  0.79613750  0.71564367  1.0
  C  C279  1  0.66128847  0.35357112  0.17671201  1.0
  C  C280  1  0.03358842  0.12207155  0.56816991  1.0
  C  C281  1  0.00497214  0.12586849  0.52985476  1.0
  C  C282  1  0.03539807  0.07174221  0.50702973  1.0
  C  C283  1  0.00985341  0.07554715  0.47052550  1.0
  C  C284  1  0.95262732  0.13293199  0.45596966  1.0
  C  C285  1  0.92204800  0.18664213  0.47962351  1.0
  C  C286  1  0.94799588  0.18351341  0.51569193  1.0
  C  C287  1  0.92666761  0.13628122  0.41662176  1.0
  C  C288  1  0.93869558  0.07622793  0.40714401  1.0
  C  C289  1  0.91759875  0.07921459  0.36829870  1.0
  C  C290  1  0.88345944  0.14203556  0.33868111  1.0
  C  C291  1  0.86832103  0.20294219  0.34827666  1.0
  C  C292  1  0.89070600  0.19918936  0.38706729  1.0
  C  C293  1  0.82886492  0.26888294  0.31800690  1.0
  C  C294  1  0.83893378  0.27821767  0.26628890  1.0
  C  C295  1  0.80063585  0.33934567  0.23783542  1.0
  C  C296  1  0.75047140  0.39285733  0.26046477  1.0
  C  C297  1  0.74000393  0.38413314  0.31197214  1.0
  C  C298  1  0.77895287  0.32304034  0.34023548  1.0
  C  C299  1  0.70907571  0.45783004  0.22970599  1.0
  C  C300  1  0.27622408  0.03367968  0.56812743  1.0
  C  C301  1  0.33938310  0.00497885  0.52985108  1.0
  C  C302  1  0.38593710  0.03537887  0.50700244  1.0
  C  C303  1  0.44415272  0.00982621  0.47050150  1.0
  C  C304  1  0.45856246  0.95257646  0.45594064  1.0
  C  C305  1  0.41171259  0.92206041  0.47957732  1.0
  C  C306  1  0.35284182  0.94802520  0.51565792  1.0
  C  C307  1  0.52059450  0.92657726  0.41663711  1.0
  C  C308  1  0.57807960  0.93861104  0.40720386  1.0
  C  C309  1  0.63508727  0.91747212  0.36839615  1.0
  C  C310  1  0.63608599  0.88328244  0.33877304  1.0
  C  C311  1  0.58072832  0.86815048  0.34831648  1.0
  C  C312  1  0.52327498  0.89057322  0.38706617  1.0
  C  C313  1  0.58441457  0.82872112  0.31804421  1.0
  C  C314  1  0.61666737  0.83874454  0.26632075  1.0
  C  C315  1  0.62212963  0.80046959  0.23789825  1.0
  C  C316  1  0.59609812  0.75034458  0.26055415  1.0
  C  C317  1  0.56380712  0.73993875  0.31206396  1.0
  C  C318  1  0.55781493  0.77887931  0.34028838  1.0
  C  C319  1  0.60324516  0.70894606  0.22979519  1.0
  C  C320  1  0.12214304  0.27622584  0.56815609  1.0
  C  C321  1  0.12584012  0.33940028  0.52988088  1.0
  C  C322  1  0.07169363  0.38588998  0.50707171  1.0
  C  C323  1  0.07544158  0.44415513  0.47057572  1.0
  C  C324  1  0.13279537  0.45861586  0.45600994  1.0
  C  C325  1  0.18653581  0.41186392  0.47964196  1.0
  C  C326  1  0.18345948  0.35296295  0.51569531  1.0
  C  C327  1  0.13613691  0.52057919  0.41668490  1.0
  C  C328  1  0.07612635  0.57810503  0.40718717  1.0
  C  C329  1  0.07917375  0.63504008  0.36833106  1.0
  C  C330  1  0.14203341  0.63590898  0.33872950  1.0
  C  C331  1  0.20289980  0.58051632  0.34834843  1.0
  C  C332  1  0.19908402  0.52314523  0.38715724  1.0
  C  C333  1  0.26889339  0.58419940  0.31807802  1.0
  C  C334  1  0.27825447  0.61648147  0.26636111  1.0
  C  C335  1  0.33941424  0.62203899  0.23789964  1.0
  C  C336  1  0.39292687  0.59604836  0.26052713  1.0
  C  C337  1  0.38419754  0.56375148  0.31203743  1.0
  C  C338  1  0.32308002  0.55768521  0.34030755  1.0
  C  C339  1  0.45789735  0.60325834  0.22976314  1.0
  C  C340  1  0.53368113  0.77622507  0.06812738  1.0
  C  C341  1  0.50497853  0.83938371  0.02985169  1.0
  C  C342  1  0.53537864  0.88593735  0.00700279  1.0
  C  C343  1  0.50982504  0.94415342  0.97050158  1.0
  C  C344  1  0.45257585  0.95856257  0.95594093  1.0
  C  C345  1  0.42205907  0.91171246  0.97957892  1.0
  C  C346  1  0.44802469  0.85284328  0.01565851  1.0
  C  C347  1  0.42657709  0.02059556  0.91663817  1.0
  C  C348  1  0.43861031  0.07807945  0.90720445  1.0
  C  C349  1  0.41747094  0.13508881  0.86839634  1.0
  C  C350  1  0.38328238  0.13608714  0.83877334  1.0
  C  C351  1  0.36815040  0.08072889  0.84831731  1.0
  C  C352  1  0.39057230  0.02327549  0.88706729  1.0
  C  C353  1  0.32872112  0.08441475  0.81804412  1.0
  C  C354  1  0.33874496  0.11666730  0.76631993  1.0
  C  C355  1  0.30047082  0.12212991  0.73789874  1.0
  C  C356  1  0.25034477  0.09609797  0.76055543  1.0
  C  C357  1  0.23993971  0.06380552  0.81206445  1.0
  C  C358  1  0.27887953  0.05781432  0.84028846  1.0
  C  C359  1  0.20894681  0.10324490  0.72979531  1.0
  C  C360  1  0.77622483  0.62214338  0.06815607  1.0
  C  C361  1  0.83940029  0.62584001  0.02988069  1.0
  C  C362  1  0.88588964  0.57169389  0.00707187  1.0
  C  C363  1  0.94415679  0.57544110  0.97057544  1.0
  C  C364  1  0.95861673  0.63279636  0.95601045  1.0
  C  C365  1  0.91186411  0.68653550  0.97964172  1.0
  C  C366  1  0.85296102  0.68346032  0.01569576  1.0
  C  C367  1  0.02058044  0.63613549  0.91668641  1.0
  C  C368  1  0.07810497  0.57612569  0.90718853  1.0
  C  C369  1  0.13503945  0.57917270  0.86833240  1.0
  C  C370  1  0.13590880  0.64203270  0.83873025  1.0
  C  C371  1  0.08051590  0.70289890  0.84835029  1.0
  C  C372  1  0.02314605  0.69908303  0.88715841  1.0
  C  C373  1  0.08419882  0.76889317  0.81807837  1.0
  C  C374  1  0.11648123  0.77825344  0.76636162  1.0
  C  C375  1  0.12203813  0.83941462  0.73789955  1.0
  C  C376  1  0.09604841  0.89292651  0.76052697  1.0
  C  C377  1  0.06375035  0.88419772  0.81203747  1.0
  C  C378  1  0.05768463  0.82307928  0.84030804  1.0
  C  C379  1  0.10325876  0.95789717  0.72976314  1.0
  C  C380  1  0.62207245  0.53358830  0.06816943  1.0
  C  C381  1  0.62586998  0.50497198  0.02985411  1.0
  C  C382  1  0.57174267  0.53539773  0.00702944  1.0
  C  C383  1  0.57554715  0.50985326  0.97052557  1.0
  C  C384  1  0.63293290  0.45262644  0.95596939  1.0
  C  C385  1  0.68664210  0.42204805  0.97962360  1.0
  C  C386  1  0.68351303  0.44799607  0.01569214  1.0
  C  C387  1  0.63628155  0.42666745  0.91662145  1.0
  C  C388  1  0.57622751  0.43869560  0.90714421  1.0
  C  C389  1  0.57921471  0.41759786  0.86829901  1.0
  C  C390  1  0.64203608  0.38345787  0.83868152  1.0
  C  C391  1  0.70294185  0.36831971  0.84827728  1.0
  C  C392  1  0.69918893  0.39070533  0.88706773  1.0
  C  C393  1  0.76888245  0.32886412  0.81800743  1.0
  C  C394  1  0.77821790  0.33893280  0.76628892  1.0
  C  C395  1  0.83934518  0.30063549  0.73783482  1.0
  C  C396  1  0.89285747  0.25047102  0.76046434  1.0
  C  C397  1  0.88413375  0.24000369  0.81197118  1.0
  C  C398  1  0.82303982  0.27895293  0.84023644  1.0
  C  C399  1  0.95782947  0.20907541  0.72970543  1.0
  O  O400  1  0.84758046  0.95981439  0.49734286  1.0
  O  O401  1  0.96046133  0.90677640  0.40351302  1.0
  O  O402  1  0.81422463  0.99017141  0.39131593  1.0
  O  O403  1  0.81124123  0.88893599  0.56851164  1.0
  O  O404  1  0.69526299  0.84751461  0.49727845  1.0
  O  O405  1  0.72915360  0.96057435  0.40353485  1.0
  O  O406  1  0.80443402  0.81424375  0.39126003  1.0
  O  O407  1  0.73124017  0.81126406  0.56847674  1.0
  O  O408  1  0.95983735  0.69543119  0.49732394  1.0
  O  O409  1  0.90682793  0.72913716  0.40352196  1.0
  O  O410  1  0.99003521  0.80430576  0.39132780  1.0
  O  O411  1  0.88888565  0.73127874  0.56854829  1.0
  O  O412  1  0.34751343  0.19526394  0.99727847  1.0
  O  O413  1  0.46057386  0.22915397  0.90353417  1.0
  O  O414  1  0.31424263  0.30443371  0.89126005  1.0
  O  O415  1  0.31126312  0.23124103  0.06847710  1.0
  O  O416  1  0.19543027  0.45983869  0.99732402  1.0
  O  O417  1  0.22913566  0.40682848  0.90352281  1.0
  O  O418  1  0.30430633  0.49003490  0.89132794  1.0
  O  O419  1  0.23127848  0.38888613  0.06854852  1.0
  O  O420  1  0.45981332  0.34758206  0.99734197  1.0
  O  O421  1  0.40677687  0.46046105  0.90351220  1.0
  O  O422  1  0.49017083  0.31422370  0.89131668  1.0
  O  O423  1  0.38893710  0.31124224  0.06851065  1.0
  O  O424  1  0.84372858  0.84385134  0.46856223  1.0
  O  O425  1  0.34385090  0.34372848  0.96856232  1.0
  O  O426  1  0.00630499  0.17463153  0.58540881  1.0
  O  O427  1  0.08331866  0.06642507  0.58084150  1.0
  O  O428  1  0.66119837  0.50352393  0.25247181  1.0
  O  O429  1  0.72490176  0.46247129  0.18250478  1.0
  O  O430  1  0.23372264  0.00635111  0.58541259  1.0
  O  O431  1  0.26942026  0.08350069  0.58071638  1.0
  O  O432  1  0.58247158  0.66119156  0.25253410  1.0
  O  O433  1  0.63018235  0.72463703  0.18262417  1.0
  O  O434  1  0.17470226  0.23378068  0.58540949  1.0
  O  O435  1  0.06657600  0.26934258  0.58077674  1.0
  O  O436  1  0.50370273  0.58242176  0.25249817  1.0
  O  O437  1  0.46242203  0.63027717  0.18259678  1.0
  O  O438  1  0.50635160  0.73372352  0.08541220  1.0
  O  O439  1  0.58350108  0.76942100  0.08071573  1.0
  O  O440  1  0.16119205  0.08247137  0.75253361  1.0
  O  O441  1  0.22463760  0.13018169  0.68262414  1.0
  O  O442  1  0.73377941  0.67470350  0.08540892  1.0
  O  O443  1  0.76934281  0.56657552  0.08077660  1.0
  O  O444  1  0.08242139  0.00370260  0.75249859  1.0
  O  O445  1  0.13027815  0.96242081  0.68259693  1.0
  O  O446  1  0.67463071  0.50630425  0.08540907  1.0
  O  O447  1  0.56642489  0.58332031  0.08084079  1.0
  O  O448  1  0.00352458  0.16119715  0.75247155  1.0
  O  O449  1  0.96247088  0.22490233  0.68250424  1.0
  O  O450  1  0.11601477  0.11599825  0.65199547  1.0
  O  O451  1  0.61599798  0.61601408  0.15199619  1.0
