# generated using pymatgen
data_Mn3H40C75N4(O2F3)6
_symmetry_space_group_name_H-M   'P 1'
_cell_length_a   13.32918291
_cell_length_b   19.74406047
_cell_length_c   22.27978988
_cell_angle_alpha   78.99352073
_cell_angle_beta   72.60855895
_cell_angle_gamma   70.27796923
_symmetry_Int_Tables_number   1
_chemical_formula_structural   Mn3H40C75N4(O2F3)6
_chemical_formula_sum   'Mn6 H80 C150 N8 O24 F36'
_cell_volume   5240.62088475
_cell_formula_units_Z   2
loop_
 _symmetry_equiv_pos_site_id
 _symmetry_equiv_pos_as_xyz
  1  'x, y, z'
loop_
 _atom_site_type_symbol
 _atom_site_label
 _atom_site_symmetry_multiplicity
 _atom_site_fract_x
 _atom_site_fract_y
 _atom_site_fract_z
 _atom_site_occupancy
  Mn  Mn0  1  0.27942519  0.45366355  0.47713084  1.0
  Mn  Mn1  1  0.71022133  0.04630633  0.02283743  1.0
  Mn  Mn2  1  0.72057862  0.54633206  0.52286889  1.0
  Mn  Mn3  1  0.28979314  0.95368109  0.97715372  1.0
  Mn  Mn4  1  0.50000646  0.50000508  0.49999661  1.0
  Mn  Mn5  1  0.99998063  0.00001522  0.00000714  1.0
  H  H6  1  0.12039859  0.67348180  0.39634445  1.0
  H  H7  1  0.05160481  0.80355317  0.36031459  1.0
  H  H8  1  0.27380607  0.84845410  0.44327385  1.0
  H  H9  1  0.34905034  0.71797313  0.47216020  1.0
  H  H10  1  0.08773700  0.56262553  0.41877272  1.0
  H  H11  1  0.90019418  0.43928099  0.38466714  1.0
  H  H12  1  0.95417266  0.30516128  0.41955316  1.0
  H  H13  1  0.95290689  0.02247443  0.20315417  1.0
  H  H14  1  0.94535531  0.01010774  0.31649115  1.0
  H  H15  1  0.26064336  0.84500913  0.28363511  1.0
  H  H16  1  0.26968824  0.86227282  0.16907902  1.0
  H  H17  1  0.53253183  0.39170056  0.27545557  1.0
  H  H18  1  0.71489895  0.32244368  0.21307794  1.0
  H  H19  1  0.84273365  0.28014205  0.37749938  1.0
  H  H20  1  0.66228037  0.35250290  0.43752576  1.0
  H  H21  1  0.93281172  0.55785213  0.37777709  1.0
  H  H22  1  0.41001586  0.29035058  0.53078544  1.0
  H  H23  1  0.24134501  0.14422411  0.51466627  1.0
  H  H24  1  0.39264833  0.16451198  0.54760535  1.0
  H  H25  1  0.07782559  0.19767680  0.46609001  1.0
  H  H26  1  0.69025769  0.82651849  0.10362618  1.0
  H  H27  1  0.71546228  0.69646584  0.13975124  1.0
  H  H28  1  0.06544584  0.65150596  0.05671046  1.0
  H  H29  1  0.03911121  0.78197106  0.02772933  1.0
  H  H30  1  0.56919980  0.93738532  0.08113431  1.0
  H  H31  1  0.22427061  0.06071077  0.11524238  1.0
  H  H32  1  0.17902389  0.19486836  0.08050240  1.0
  H  H33  1  0.67842396  0.47750707  0.29679982  1.0
  H  H34  1  0.77192899  0.48982132  0.18346177  1.0
  H  H35  1  0.88939267  0.65484833  0.21644134  1.0
  H  H36  1  0.80104329  0.63765578  0.33095421  1.0
  H  H37  1  0.69985405  0.10823672  0.22446462  1.0
  H  H38  1  0.75052573  0.17756710  0.28687831  1.0
  H  H39  1  0.00031029  0.21995221  0.12245911  1.0
  H  H40  1  0.95225295  0.14756998  0.06240628  1.0
  H  H41  1  0.36854877  0.94213730  0.12204775  1.0
  H  H42  1  0.73117830  0.20975368  0.96939609  1.0
  H  H43  1  0.40029765  0.35579892  0.98533584  1.0
  H  H44  1  0.60478717  0.33560311  0.95262737  1.0
  H  H45  1  0.24175744  0.30232305  0.03384772  1.0
  H  H46  1  0.87959753  0.32651871  0.60365717  1.0
  H  H47  1  0.94839524  0.19644732  0.63968542  1.0
  H  H48  1  0.72619243  0.15154641  0.55672824  1.0
  H  H49  1  0.65094246  0.28202956  0.52784345  1.0
  H  H50  1  0.91226666  0.43737385  0.58122503  1.0
  H  H51  1  0.09980639  0.56071845  0.61533566  1.0
  H  H52  1  0.04582739  0.69483922  0.58044775  1.0
  H  H53  1  0.04709795  0.97752063  0.79684458  1.0
  H  H54  1  0.05464046  0.98989164  0.68350580  1.0
  H  H55  1  0.73935378  0.15498925  0.71637029  1.0
  H  H56  1  0.73031123  0.13772552  0.83092238  1.0
  H  H57  1  0.46746874  0.60829887  0.72454767  1.0
  H  H58  1  0.28510077  0.67755412  0.78692440  1.0
  H  H59  1  0.15726926  0.71985737  0.62250208  1.0
  H  H60  1  0.33772315  0.64749869  0.56247656  1.0
  H  H61  1  0.06718834  0.44214836  0.62222382  1.0
  H  H62  1  0.58998215  0.70965102  0.46921743  1.0
  H  H63  1  0.75865269  0.85577639  0.48533507  1.0
  H  H64  1  0.60735119  0.83548798  0.45239620  1.0
  H  H65  1  0.92217104  0.80232264  0.53391351  1.0
  H  H66  1  0.30974155  0.17348198  0.89637219  1.0
  H  H67  1  0.28453749  0.30354379  0.86024270  1.0
  H  H68  1  0.93455377  0.34849019  0.94328816  1.0
  H  H69  1  0.96089948  0.21802669  0.97226741  1.0
  H  H70  1  0.43080128  0.06261463  0.91886605  1.0
  H  H71  1  0.77573126  0.93928917  0.88475784  1.0
  H  H72  1  0.82097506  0.80513104  0.91949710  1.0
  H  H73  1  0.32157112  0.52249397  0.70320146  1.0
  H  H74  1  0.22806502  0.51017865  0.81654079  1.0
  H  H75  1  0.11060669  0.34515539  0.78355732  1.0
  H  H76  1  0.19895850  0.36234957  0.66904551  1.0
  H  H77  1  0.30014687  0.89175836  0.77553663  1.0
  H  H78  1  0.24947630  0.82243066  0.71311957  1.0
  H  H79  1  0.99968669  0.78004617  0.87754166  1.0
  H  H80  1  0.04776370  0.85243213  0.93759263  1.0
  H  H81  1  0.63145393  0.05786425  0.87795068  1.0
  H  H82  1  0.26881810  0.79024947  0.03059917  1.0
  H  H83  1  0.59969659  0.64420049  0.01466543  1.0
  H  H84  1  0.39520555  0.66439793  0.04737344  1.0
  H  H85  1  0.75824200  0.69767527  0.96615189  1.0
  C  C86  1  0.28368955  0.60860981  0.45752111  1.0
  C  C87  1  0.23862516  0.68744770  0.43699761  1.0
  C  C88  1  0.15413523  0.71234017  0.40579014  1.0
  C  C89  1  0.11505907  0.78545967  0.38625835  1.0
  C  C90  1  0.15677970  0.83604133  0.39933914  1.0
  C  C91  1  0.23995296  0.81118372  0.43160085  1.0
  C  C92  1  0.28175192  0.73755123  0.44896633  1.0
  C  C93  1  0.07125260  0.51185154  0.41982250  1.0
  C  C94  1  0.96717279  0.44294983  0.40119280  1.0
  C  C95  1  0.02151454  0.31004750  0.43488661  1.0
  C  C96  1  0.12121045  0.38841087  0.44836156  1.0
  C  C97  1  0.19445201  0.32580581  0.47462802  1.0
  C  C98  1  0.02046426  0.98402532  0.22109108  1.0
  C  C99  1  0.01624573  0.97616573  0.28526879  1.0
  C  C100  1  0.10254161  0.92608031  0.30855078  1.0
  C  C101  1  0.19340136  0.88464515  0.26616164  1.0
  C  C102  1  0.19865499  0.89402329  0.20201969  1.0
  C  C103  1  0.11223885  0.94390598  0.17876224  1.0
  C  C104  1  0.12043129  0.95560214  0.10906176  1.0
  C  C105  1  0.10658926  0.91631451  0.37807816  1.0
  C  C106  1  0.99009867  0.94125132  0.42434332  1.0
  C  C107  1  0.17573064  0.96462277  0.38209795  1.0
  C  C108  1  0.47424520  0.41242042  0.39875224  1.0
  C  C109  1  0.58574599  0.37501489  0.36071343  1.0
  C  C110  1  0.60173519  0.36741687  0.29698310  1.0
  C  C111  1  0.70394757  0.32851095  0.26238880  1.0
  C  C112  1  0.79195563  0.29492995  0.29078830  1.0
  C  C113  1  0.77631526  0.30455598  0.35400143  1.0
  C  C114  1  0.67438551  0.34452950  0.38850902  1.0
  C  C115  1  0.96205157  0.30533352  0.20995405  1.0
  C  C116  1  0.98560036  0.50872289  0.39707603  1.0
  C  C117  1  0.03543999  0.38019973  0.42769638  1.0
  C  C118  1  0.34514871  0.27917395  0.51737018  1.0
  C  C119  1  0.25162663  0.19788382  0.50824576  1.0
  C  C120  1  0.33505296  0.20901259  0.52644140  1.0
  C  C121  1  0.08979617  0.25069365  0.46065025  1.0
  C  C122  1  0.17813399  0.25695949  0.48118552  1.0
  C  C123  1  0.84986189  0.89137118  0.04249929  1.0
  C  C124  1  0.86305390  0.81254515  0.06299100  1.0
  C  C125  1  0.77226569  0.78766884  0.09421247  1.0
  C  C126  1  0.78673413  0.71456319  0.11378864  1.0
  C  C127  1  0.89209447  0.66397228  0.10070071  1.0
  C  C128  1  0.98265949  0.68879875  0.06838949  1.0
  C  C129  1  0.96821277  0.76243007  0.05099690  1.0
  C  C130  1  0.50300483  0.98814355  0.08007419  1.0
  C  C131  1  0.31142548  0.05705512  0.09871520  1.0
  C  C132  1  0.26656051  0.18997364  0.06510009  1.0
  C  C133  1  0.45806900  0.11160483  0.05156762  1.0
  C  C134  1  0.49497304  0.17420920  0.02532720  1.0
  C  C135  1  0.72546444  0.51595885  0.27889742  1.0
  C  C136  1  0.77760399  0.52378671  0.21472520  1.0
  C  C137  1  0.83706473  0.57388729  0.19144458  1.0
  C  C138  1  0.84422770  0.61526999  0.23385507  1.0
  C  C139  1  0.79465606  0.60590959  0.29799123  1.0
  C  C140  1  0.73477410  0.55607385  0.32123394  1.0
  C  C141  1  0.68486387  0.54446147  0.39092300  1.0
  C  C142  1  0.90079548  0.58369877  0.12192548  1.0
  C  C143  1  0.85543197  0.55890082  0.07556999  1.0
  C  C144  1  0.02222002  0.53534129  0.11783916  1.0
  C  C145  1  0.78549349  0.08755459  0.10119082  1.0
  C  C146  1  0.82155266  0.12495913  0.13923483  1.0
  C  C147  1  0.76624085  0.13253597  0.20295070  1.0
  C  C148  1  0.79493793  0.17145575  0.23756467  1.0
  C  C149  1  0.87771986  0.20507474  0.20916528  1.0
  C  C150  1  0.93487888  0.19548992  0.14596089  1.0
  C  C151  1  0.90741848  0.15551359  0.11145300  1.0
  C  C152  1  0.97733179  0.19471184  0.29006919  1.0
  C  C153  1  0.39150546  0.99126629  0.10280063  1.0
  C  C154  1  0.34345442  0.11980828  0.07225503  1.0
  C  C155  1  0.64174782  0.22089200  0.98273306  1.0
  C  C156  1  0.45784353  0.30215064  0.99174869  1.0
  C  C157  1  0.57057554  0.29104320  0.97366789  1.0
  C  C158  1  0.30127276  0.24930698  0.03928848  1.0
  C  C159  1  0.41638372  0.24305672  0.01875638  1.0
  C  C160  1  0.71630524  0.39139015  0.54248041  1.0
  C  C161  1  0.76137121  0.31255226  0.56300452  1.0
  C  C162  1  0.84586197  0.28766141  0.59421110  1.0
  C  C163  1  0.88493838  0.21454137  0.61374294  1.0
  C  C164  1  0.84321745  0.16395862  0.60066194  1.0
  C  C165  1  0.76004577  0.18881625  0.56840129  1.0
  C  C166  1  0.71824470  0.26244820  0.55103585  1.0
  C  C167  1  0.92875083  0.48814840  0.58017654  1.0
  C  C168  1  0.03282595  0.55705014  0.59880978  1.0
  C  C169  1  0.97848496  0.68995245  0.56511359  1.0
  C  C170  1  0.87879064  0.61158909  0.55163925  1.0
  C  C171  1  0.80554593  0.67419415  0.52537381  1.0
  C  C172  1  0.97954149  0.01597300  0.77890871  1.0
  C  C173  1  0.98375427  0.02383313  0.71473152  1.0
  C  C174  1  0.89745495  0.07391749  0.69145170  1.0
  C  C175  1  0.80659811  0.11535319  0.73384065  1.0
  C  C176  1  0.80134848  0.10597667  0.79798203  1.0
  C  C177  1  0.88776591  0.05609450  0.82123645  1.0
  C  C178  1  0.87956648  0.04440158  0.89093675  1.0
  C  C179  1  0.89340808  0.08368328  0.62192327  1.0
  C  C180  1  0.00989921  0.05874701  0.57565747  1.0
  C  C181  1  0.82426684  0.03537987  0.61790080  1.0
  C  C182  1  0.52576027  0.58757683  0.60124959  1.0
  C  C183  1  0.41425583  0.62498344  0.63928798  1.0
  C  C184  1  0.39826482  0.63258202  0.70301944  1.0
  C  C185  1  0.29605089  0.67148795  0.73761538  1.0
  C  C186  1  0.20804414  0.70506948  0.70921419  1.0
  C  C187  1  0.22368789  0.69544289  0.64599964  1.0
  C  C188  1  0.32561822  0.65546995  0.61149498  1.0
  C  C189  1  0.03794917  0.69466373  0.79004730  1.0
  C  C190  1  0.01440072  0.49127706  0.60292433  1.0
  C  C191  1  0.96456164  0.61980077  0.57230423  1.0
  C  C192  1  0.65485106  0.72082547  0.48263231  1.0
  C  C193  1  0.74837107  0.80211668  0.49175558  1.0
  C  C194  1  0.66494498  0.79098736  0.47355954  1.0
  C  C195  1  0.91020122  0.74930577  0.53935133  1.0
  C  C196  1  0.82186395  0.74304047  0.51881632  1.0
  C  C197  1  0.15013997  0.10862876  0.95750003  1.0
  C  C198  1  0.13695016  0.18745697  0.93700978  1.0
  C  C199  1  0.22774119  0.21233218  0.90578574  1.0
  C  C200  1  0.21326913  0.28544050  0.88620662  1.0
  C  C201  1  0.10790534  0.33603033  0.89929581  1.0
  C  C202  1  0.01734426  0.31120386  0.93160632  1.0
  C  C203  1  0.03179368  0.23757365  0.94900180  1.0
  C  C204  1  0.49699654  0.01185748  0.91992548  1.0
  C  C205  1  0.68857617  0.94294539  0.90128675  1.0
  C  C206  1  0.73344084  0.81002578  0.93490211  1.0
  C  C207  1  0.54193206  0.88839510  0.94843140  1.0
  C  C208  1  0.50502620  0.82579127  0.97467161  1.0
  C  C209  1  0.27453532  0.48404057  0.72110328  1.0
  C  C210  1  0.22239242  0.47621487  0.78527574  1.0
  C  C211  1  0.16293119  0.42611536  0.80855535  1.0
  C  C212  1  0.15577161  0.38473212  0.76614478  1.0
  C  C213  1  0.20534878  0.39409252  0.70200895  1.0
  C  C214  1  0.26523228  0.44392824  0.67876327  1.0
  C  C215  1  0.31514168  0.45554058  0.60907078  1.0
  C  C216  1  0.09920169  0.41630279  0.87807307  1.0
  C  C217  1  0.14456466  0.44110019  0.92442831  1.0
  C  C218  1  0.97777709  0.46465864  0.88215879  1.0
  C  C219  1  0.21450443  0.91244535  0.89880923  1.0
  C  C220  1  0.17845221  0.87503754  0.86076183  1.0
  C  C221  1  0.23376320  0.86745909  0.79704774  1.0
  C  C222  1  0.20506432  0.82853987  0.76243624  1.0
  C  C223  1  0.12228114  0.79492198  0.79083702  1.0
  C  C224  1  0.06512126  0.80450518  0.85404141  1.0
  C  C225  1  0.09258720  0.84448310  0.88854531  1.0
  C  C226  1  0.02266707  0.80528434  0.70993226  1.0
  C  C227  1  0.60849593  0.00873475  0.89720038  1.0
  C  C228  1  0.65654673  0.88019330  0.92774638  1.0
  C  C229  1  0.35824883  0.77910902  0.01726658  1.0
  C  C230  1  0.54215258  0.69784985  0.00825249  1.0
  C  C231  1  0.42942214  0.70895729  0.02633166  1.0
  C  C232  1  0.69872620  0.75069244  0.96071237  1.0
  C  C233  1  0.58361578  0.75694322  0.98124338  1.0
  C  C234  1  0.90123644  0.25000209  0.24999653  1.0
  C  C235  1  0.09876454  0.74999462  0.75000487  1.0
  N  N236  1  0.13739275  0.45353218  0.44481190  1.0
  N  N237  1  0.27699823  0.33576723  0.49220807  1.0
  N  N238  1  0.53580745  0.04647182  0.05511059  1.0
  N  N239  1  0.60504224  0.16427396  0.00781158  1.0
  N  N240  1  0.86261196  0.54646667  0.55518709  1.0
  N  N241  1  0.72300256  0.66423165  0.50779343  1.0
  N  N242  1  0.46419540  0.95352755  0.94488506  1.0
  N  N243  1  0.39495755  0.83572706  0.99218793  1.0
  O  O244  1  0.37417734  0.58953327  0.47269587  1.0
  O  O245  1  0.22707857  0.56714869  0.45894047  1.0
  O  O246  1  0.46241573  0.42112598  0.45717623  1.0
  O  O247  1  0.39159389  0.43140416  0.37599071  1.0
  O  O248  1  0.03222795  0.98278913  0.09130665  1.0
  O  O249  1  0.21832350  0.93773401  0.07319832  1.0
  O  O250  1  0.93644906  0.91043540  0.02742468  1.0
  O  O251  1  0.75322570  0.93283271  0.04102913  1.0
  O  O252  1  0.84074401  0.07887933  0.04276071  1.0
  O  O253  1  0.69911502  0.06852164  0.12396133  1.0
  O  O254  1  0.60601525  0.51736002  0.40862343  1.0
  O  O255  1  0.72894984  0.56236767  0.42681700  1.0
  O  O256  1  0.62581571  0.41046888  0.52730872  1.0
  O  O257  1  0.77292426  0.43285065  0.54105339  1.0
  O  O258  1  0.53759136  0.57887288  0.54282412  1.0
  O  O259  1  0.60841049  0.56859202  0.62401107  1.0
  O  O260  1  0.96777284  0.01721132  0.90868918  1.0
  O  O261  1  0.78167824  0.06226973  0.92680170  1.0
  O  O262  1  0.06355292  0.08956075  0.97257395  1.0
  O  O263  1  0.24677297  0.06716720  0.95896720  1.0
  O  O264  1  0.15924987  0.92112601  0.95723688  1.0
  O  O265  1  0.30088619  0.93147451  0.87603833  1.0
  O  O266  1  0.39398566  0.48264526  0.59136838  1.0
  O  O267  1  0.27106008  0.43763167  0.57317646  1.0
  F  F268  1  0.28284491  0.93874160  0.34923899  1.0
  F  F269  1  0.17652490  0.96821857  0.44255274  1.0
  F  F270  1  0.13745620  0.03364207  0.35691843  1.0
  F  F271  1  0.94303266  0.01410979  0.42062086  1.0
  F  F272  1  0.99407586  0.91864870  0.48551003  1.0
  F  F273  1  0.91836683  0.91228126  0.41292930  1.0
  F  F274  1  0.96430952  0.35229527  0.24649068  1.0
  F  F275  1  0.90982383  0.34537595  0.16496228  1.0
  F  F276  1  0.06896171  0.27365617  0.17931339  1.0
  F  F277  1  0.07075119  0.56121678  0.15064365  1.0
  F  F278  1  0.08688191  0.53175391  0.05735104  1.0
  F  F279  1  0.02779765  0.46634751  0.14304326  1.0
  F  F280  1  0.87760459  0.48602277  0.07916290  1.0
  F  F281  1  0.89782243  0.58165012  0.01444859  1.0
  F  F282  1  0.74334124  0.58780700  0.08702791  1.0
  F  F283  1  0.06310443  0.14775642  0.25349750  1.0
  F  F284  1  0.92029914  0.15459000  0.33503315  1.0
  F  F285  1  0.02192956  0.22637967  0.32070699  1.0
  F  F286  1  0.71714920  0.06126318  0.65075731  1.0
  F  F287  1  0.82347282  0.03178353  0.55744606  1.0
  F  F288  1  0.86253869  0.96636113  0.64308205  1.0
  F  F289  1  0.05696320  0.98589124  0.57937937  1.0
  F  F290  1  0.00592232  0.08135071  0.51449052  1.0
  F  F291  1  0.08162716  0.08771870  0.58707192  1.0
  F  F292  1  0.03569388  0.64770306  0.75351044  1.0
  F  F293  1  0.09017614  0.65462132  0.83504056  1.0
  F  F294  1  0.93103777  0.72634218  0.82068935  1.0
  F  F295  1  0.92924987  0.43878473  0.84935015  1.0
  F  F296  1  0.91311223  0.46824384  0.94264605  1.0
  F  F297  1  0.97220110  0.53365404  0.85695500  1.0
  F  F298  1  0.12239174  0.51397875  0.92083132  1.0
  F  F299  1  0.10217445  0.41835035  0.98554976  1.0
  F  F300  1  0.25665512  0.41219454  0.91296855  1.0
  F  F301  1  0.93689366  0.85223977  0.74650543  1.0
  F  F302  1  0.07969925  0.84540727  0.66496998  1.0
  F  F303  1  0.97807294  0.77361542  0.67929442  1.0
