# generated using pymatgen
data_Zn4H12C40I8O13
_symmetry_space_group_name_H-M   'P 1'
_cell_length_a   15.03019388
_cell_length_b   15.12962780
_cell_length_c   15.68274111
_cell_angle_alpha   81.50525452
_cell_angle_beta   83.20212823
_cell_angle_gamma   89.90349213
_symmetry_Int_Tables_number   1
_chemical_formula_structural   Zn4H12C40I8O13
_chemical_formula_sum   'Zn4 H12 C40 I8 O13'
_cell_volume   3501.90110438
_cell_formula_units_Z   1
loop_
 _symmetry_equiv_pos_site_id
 _symmetry_equiv_pos_as_xyz
  1  'x, y, z'
loop_
 _atom_site_type_symbol
 _atom_site_label
 _atom_site_symmetry_multiplicity
 _atom_site_fract_x
 _atom_site_fract_y
 _atom_site_fract_z
 _atom_site_occupancy
  Zn  Zn0  1  0.56356641  0.55397578  0.58042041  1.0
  Zn  Zn1  1  0.57486657  0.44161522  0.41939038  1.0
  Zn  Zn2  1  0.42963483  0.59481336  0.43632488  1.0
  Zn  Zn3  1  0.41603626  0.41126754  0.57639401  1.0
  H  H4  1  0.53160226  0.87269669  0.40907223  1.0
  H  H5  1  0.47698157  0.35505926  0.07944400  1.0
  H  H6  1  0.43449294  0.24613977  0.99017194  1.0
  H  H7  1  0.50894743  0.60538392  0.77962820  1.0
  H  H8  1  0.58079090  0.18699786  0.36701551  1.0
  H  H9  1  0.57456728  0.02524983  0.35021203  1.0
  H  H10  1  0.46810689  0.80120930  0.68431027  1.0
  H  H11  1  0.82682722  0.64518151  0.50462236  1.0
  H  H12  1  0.99224428  0.66221507  0.50501352  1.0
  H  H13  1  0.56569213  0.70799360  0.86661491  1.0
  H  H14  1  0.13904279  0.60071469  0.49505606  1.0
  H  H15  1  0.42045783  0.29410561  0.83236154  1.0
  C  C16  1  0.50673534  0.26670706  0.49396355  1.0
  C  C17  1  0.48740196  0.52434549  0.12398512  1.0
  C  C18  1  0.57829376  0.65671780  0.12783031  1.0
  C  C19  1  0.48965873  0.73128534  0.53340561  1.0
  C  C20  1  0.46132306  0.42935985  0.83491317  1.0
  C  C21  1  0.50609534  0.16760062  0.49453672  1.0
  C  C22  1  0.49025913  0.82760739  0.54413983  1.0
  C  C23  1  0.47029653  0.94213412  0.63792378  1.0
  C  C24  1  0.47471211  0.85300245  0.62774895  1.0
  C  C25  1  0.51285598  0.89206979  0.47297522  1.0
  C  C26  1  0.51431612  0.98351055  0.48224448  1.0
  C  C27  1  0.44525783  0.31602360  0.96143507  1.0
  C  C28  1  0.48183367  0.01158401  0.56441580  1.0
  C  C29  1  0.46582097  0.10535779  0.56319593  1.0
  C  C30  1  0.55011082  0.13692737  0.41917045  1.0
  C  C31  1  0.73399743  0.50312740  0.49166571  1.0
  C  C32  1  0.54813537  0.04818530  0.41084870  1.0
  C  C33  1  0.83439328  0.50707344  0.48501901  1.0
  C  C34  1  0.17171667  0.47028595  0.46617640  1.0
  C  C35  1  0.04972886  0.38474547  0.42545037  1.0
  C  C36  1  0.14022226  0.39385517  0.43457314  1.0
  C  C37  1  0.11331177  0.53868586  0.47892322  1.0
  C  C38  1  0.46792605  0.37812132  0.01215994  1.0
  C  C39  1  0.02050238  0.52917771  0.47555091  1.0
  C  C40  1  0.98506822  0.44623420  0.45754757  1.0
  C  C41  1  0.88955447  0.43458593  0.47265565  1.0
  C  C42  1  0.87211517  0.59079782  0.49316735  1.0
  C  C43  1  0.26554716  0.48303075  0.48630908  1.0
  C  C44  1  0.96285670  0.60027521  0.49235540  1.0
  C  C45  1  0.51848044  0.56099968  0.26879148  1.0
  C  C46  1  0.46901919  0.44851825  0.73821375  1.0
  C  C47  1  0.58096459  0.67892323  0.03827222  1.0
  C  C48  1  0.52789967  0.58098018  0.17089932  1.0
  C  C49  1  0.48229177  0.46950822  0.97793146  1.0
  C  C50  1  0.43846967  0.34226403  0.87301533  1.0
  C  C51  1  0.48411098  0.49463749  0.88607182  1.0
  C  C52  1  0.50307145  0.53575929  0.03172973  1.0
  C  C53  1  0.54317451  0.61949130  0.98917643  1.0
  C  C54  1  0.54164879  0.64175528  0.89750906  1.0
  C  C55  1  0.51023915  0.58410211  0.84874646  1.0
  I  I56  1  0.64549169  0.73241002  0.20380144  1.0
  I  I57  1  0.47150329  0.96372837  0.76814691  1.0
  I  I58  1  0.83097389  0.30523153  0.50892835  1.0
  I  I59  1  0.01174162  0.29794593  0.34214233  1.0
  I  I60  1  0.23663783  0.30376053  0.39092675  1.0
  I  I61  1  0.64195450  0.79994552  0.97404559  1.0
  I  I62  1  0.38753908  0.43616158  0.20041015  1.0
  I  I63  1  0.35823491  0.14190678  0.65002409  1.0
  O  O64  1  0.49550835  0.50140854  0.50110411  1.0
  O  O65  1  0.56993703  0.50098633  0.29962743  1.0
  O  O66  1  0.40729300  0.41711518  0.70107402  1.0
  O  O67  1  0.46106748  0.60573512  0.30987439  1.0
  O  O68  1  0.53858930  0.49217134  0.69968888  1.0
  O  O69  1  0.69248676  0.54999442  0.54474326  1.0
  O  O70  1  0.29816404  0.41831560  0.53369156  1.0
  O  O71  1  0.54329744  0.31473655  0.42447288  1.0
  O  O72  1  0.45707451  0.71244968  0.46665548  1.0
  O  O73  1  0.47458157  0.29675208  0.56253843  1.0
  O  O74  1  0.52215075  0.67651330  0.59127061  1.0
  O  O75  1  0.69942650  0.45778939  0.44164989  1.0
  O  O76  1  0.30181431  0.55935543  0.45753056  1.0
