# generated using pymatgen
data_AlH9C16O7
_symmetry_space_group_name_H-M   'P 1'
_cell_length_a   6.67110942
_cell_length_b   24.11677191
_cell_length_c   25.09389517
_cell_angle_alpha   89.89054128
_cell_angle_beta   89.09539079
_cell_angle_gamma   89.35374342
_symmetry_Int_Tables_number   1
_chemical_formula_structural   AlH9C16O7
_chemical_formula_sum   'Al4 H36 C64 O28'
_cell_volume   4036.48097103
_cell_formula_units_Z   4
loop_
 _symmetry_equiv_pos_site_id
 _symmetry_equiv_pos_as_xyz
  1  'x, y, z'
loop_
 _atom_site_type_symbol
 _atom_site_label
 _atom_site_symmetry_multiplicity
 _atom_site_fract_x
 _atom_site_fract_y
 _atom_site_fract_z
 _atom_site_occupancy
  Al  Al0  1  0.94650198  0.99823070  0.49947795  1.0
  Al  Al1  1  0.44643323  0.00216094  0.49902269  1.0
  Al  Al2  1  0.05348637  0.49792154  0.00095469  1.0
  Al  Al3  1  0.55342891  0.50181335  0.00047775  1.0
  H  H4  1  0.18376334  0.07301167  0.50843013  1.0
  H  H5  1  0.68776921  0.93059636  0.52098587  1.0
  H  H6  1  0.31609424  0.42705553  0.99150415  1.0
  H  H7  1  0.81206621  0.56948795  0.97900565  1.0
  H  H8  1  0.46636787  0.41276321  0.13538037  1.0
  H  H9  1  0.43791660  0.33832553  0.20444896  1.0
  H  H10  1  0.09332602  0.37340680  0.11263408  1.0
  H  H11  1  0.40653797  0.12655863  0.38712394  1.0
  H  H12  1  0.03366409  0.08727926  0.36462790  1.0
  H  H13  1  0.06226420  0.16166408  0.29553074  1.0
  H  H14  1  0.97072597  0.60547883  0.88531907  1.0
  H  H15  1  0.93411410  0.67912954  0.81610631  1.0
  H  H16  1  0.61196774  0.60709152  0.86420265  1.0
  H  H17  1  0.88804622  0.89317069  0.63591346  1.0
  H  H18  1  0.52928834  0.89448503  0.61458730  1.0
  H  H19  1  0.56566390  0.82078039  0.68376832  1.0
  H  H20  1  0.59759309  0.63202936  0.09972524  1.0
  H  H21  1  0.59529260  0.70364125  0.17145602  1.0
  H  H22  1  0.97495091  0.59846239  0.13270351  1.0
  H  H23  1  0.52481987  0.90168274  0.36717035  1.0
  H  H24  1  0.90245998  0.86797127  0.40033784  1.0
  H  H25  1  0.90469306  0.79634994  0.32861240  1.0
  H  H26  1  0.47442482  0.38466442  0.89612883  1.0
  H  H27  1  0.43741482  0.31428300  0.82415063  1.0
  H  H28  1  0.11339178  0.38505361  0.86986038  1.0
  H  H29  1  0.38680239  0.11530719  0.62994061  1.0
  H  H30  1  0.02611222  0.11466311  0.60436896  1.0
  H  H31  1  0.06362602  0.18479890  0.67656908  1.0
  H  H32  1  0.06296206  0.26550433  0.20966614  1.0
  H  H33  1  0.43706183  0.23434854  0.29003546  1.0
  H  H34  1  0.56927783  0.71200914  0.76399957  1.0
  H  H35  1  0.93051570  0.78828822  0.73614528  1.0
  H  H36  1  0.96242013  0.69811175  0.23736804  1.0
  H  H37  1  0.53725352  0.80201984  0.26250484  1.0
  H  H38  1  0.07027020  0.28513218  0.76572421  1.0
  H  H39  1  0.43059421  0.21491884  0.73434264  1.0
  C  C40  1  0.68833787  0.07117280  0.56787528  1.0
  C  C41  1  0.70971452  0.06188985  0.42424745  1.0
  C  C42  1  0.21271720  0.93030923  0.43154691  1.0
  C  C43  1  0.19129954  0.93730370  0.57523030  1.0
  C  C44  1  0.81176498  0.42883571  0.93215196  1.0
  C  C45  1  0.79015650  0.43815399  0.07570754  1.0
  C  C46  1  0.28720113  0.56975779  0.06843174  1.0
  C  C47  1  0.30871387  0.56277554  0.92474712  1.0
  C  C48  1  0.78052297  0.39695022  0.12005031  1.0
  C  C49  1  0.59624109  0.38776723  0.14638221  1.0
  C  C50  1  0.58129380  0.34670743  0.18486881  1.0
  C  C51  1  0.75029962  0.31397492  0.19780128  1.0
  C  C52  1  0.93697168  0.32458982  0.17186470  1.0
  C  C53  1  0.95126816  0.36592609  0.13324015  1.0
  C  C54  1  0.74289516  0.26985984  0.23473472  1.0
  C  C55  1  0.75734995  0.23009024  0.26510518  1.0
  C  C56  1  0.74987894  0.18598852  0.30204911  1.0
  C  C57  1  0.56309633  0.17531788  0.32790986  1.0
  C  C58  1  0.54871053  0.13401077  0.36654374  1.0
  C  C59  1  0.71941827  0.10303344  0.37985278  1.0
  C  C60  1  0.90375715  0.11222625  0.35356418  1.0
  C  C61  1  0.91879254  0.15326397  0.31505390  1.0
  C  C62  1  0.29276511  0.60320009  0.87974935  1.0
  C  C63  1  0.10187901  0.62273782  0.86537097  1.0
  C  C64  1  0.08184764  0.66368631  0.82704261  1.0
  C  C65  1  0.25355943  0.68602058  0.80209168  1.0
  C  C66  1  0.44547677  0.66421124  0.81496234  1.0
  C  C67  1  0.46455494  0.62318954  0.85374551  1.0
  C  C68  1  0.24416086  0.73036091  0.76545722  1.0
  C  C69  1  0.25550116  0.76967040  0.73447237  1.0
  C  C70  1  0.24618803  0.81403420  0.69787237  1.0
  C  C71  1  0.05439769  0.83596434  0.68508423  1.0
  C  C72  1  0.03544059  0.87696556  0.64627651  1.0
  C  C73  1  0.20726295  0.89688575  0.62023480  1.0
  C  C74  1  0.39811240  0.87728467  0.63457865  1.0
  C  C75  1  0.41796066  0.83630746  0.67288392  1.0
  C  C76  1  0.28619940  0.61191418  0.11182361  1.0
  C  C77  1  0.46175723  0.64118165  0.12280434  1.0
  C  C78  1  0.45954406  0.68105082  0.16249866  1.0
  C  C79  1  0.28228161  0.69223964  0.19216627  1.0
  C  C80  1  0.10699447  0.66146427  0.18140750  1.0
  C  C81  1  0.10946633  0.62183196  0.14120870  1.0
  C  C82  1  0.26822427  0.73297771  0.23237080  1.0
  C  C83  1  0.23163147  0.76708776  0.26759602  1.0
  C  C84  1  0.21752304  0.80781760  0.30781063  1.0
  C  C85  1  0.39277318  0.83863246  0.31852481  1.0
  C  C86  1  0.39038063  0.87827129  0.35872423  1.0
  C  C87  1  0.21369930  0.88816240  0.38815267  1.0
  C  C88  1  0.03824593  0.85884497  0.37722397  1.0
  C  C89  1  0.04042029  0.81897130  0.33752695  1.0
  C  C90  1  0.79555567  0.38792519  0.88783038  1.0
  C  C91  1  0.60499526  0.36848204  0.87453063  1.0
  C  C92  1  0.58476030  0.32937167  0.83474234  1.0
  C  C93  1  0.75560801  0.30885089  0.80720057  1.0
  C  C94  1  0.94716915  0.32980164  0.81986159  1.0
  C  C95  1  0.96654976  0.36900287  0.86009358  1.0
  C  C96  1  0.74523605  0.26774291  0.76747797  1.0
  C  C97  1  0.75582635  0.23179101  0.73298364  1.0
  C  C98  1  0.74525101  0.19074934  0.69319725  1.0
  C  C99  1  0.55340695  0.17012351  0.68029144  1.0
  C  C100  1  0.53384240  0.13105702  0.63994854  1.0
  C  C101  1  0.70481944  0.11194015  0.61231795  1.0
  C  C102  1  0.89559868  0.13106097  0.62584787  1.0
  C  C103  1  0.91608790  0.17001035  0.66577047  1.0
  O  O104  1  0.85245911  0.05818063  0.54400896  1.0
  O  O105  1  0.54065237  0.05459762  0.44760859  1.0
  O  O106  1  0.37803496  0.95351080  0.44186229  1.0
  O  O107  1  0.01795830  0.95553102  0.56281670  1.0
  O  O108  1  0.04604929  0.93953240  0.45577553  1.0
  O  O109  1  0.35577574  0.94920019  0.55147823  1.0
  O  O110  1  0.51541477  0.05299004  0.55647364  1.0
  O  O111  1  0.87366303  0.03804463  0.43663868  1.0
  O  O112  1  0.19281846  0.03442868  0.49799384  1.0
  O  O113  1  0.69496887  0.96603847  0.50289893  1.0
  O  O114  1  0.98461998  0.44709366  0.94352220  1.0
  O  O115  1  0.62622404  0.46200581  0.06332663  1.0
  O  O116  1  0.45385865  0.56052467  0.04420633  1.0
  O  O117  1  0.14419860  0.55090441  0.94848451  1.0
  O  O118  1  0.12187110  0.54655249  0.05812834  1.0
  O  O119  1  0.48202560  0.54451550  0.93716798  1.0
  O  O120  1  0.64756088  0.44185917  0.95595865  1.0
  O  O121  1  0.95925354  0.44547144  0.05236543  1.0
  O  O122  1  0.30708699  0.46563351  0.00196924  1.0
  O  O123  1  0.80494500  0.53403660  0.99708207  1.0
  O  O124  1  0.10369638  0.29391453  0.18374950  1.0
  O  O125  1  0.39633210  0.20594123  0.31594650  1.0
  O  O126  1  0.61322980  0.68403720  0.78988741  1.0
  O  O127  1  0.88657572  0.81626760  0.71025222  1.0
  O  O128  1  0.93402368  0.67044602  0.20996507  1.0
  O  O129  1  0.56562140  0.82969267  0.28990588  1.0
  O  O130  1  0.11436166  0.31147347  0.79279649  1.0
  O  O131  1  0.38625950  0.18869451  0.70720103  1.0
