# generated using pymatgen
data_Al3H22C42N3O14
_symmetry_space_group_name_H-M   'P 1'
_cell_length_a   13.50235893
_cell_length_b   13.52558234
_cell_length_c   28.29743957
_cell_angle_alpha   90.14106642
_cell_angle_beta   90.44458361
_cell_angle_gamma   60.07558139
_symmetry_Int_Tables_number   1
_chemical_formula_structural   Al3H22C42N3O14
_chemical_formula_sum   'Al6 H44 C84 N6 O28'
_cell_volume   4478.78283056
_cell_formula_units_Z   2
loop_
 _symmetry_equiv_pos_site_id
 _symmetry_equiv_pos_as_xyz
  1  'x, y, z'
loop_
 _atom_site_type_symbol
 _atom_site_label
 _atom_site_symmetry_multiplicity
 _atom_site_fract_x
 _atom_site_fract_y
 _atom_site_fract_z
 _atom_site_occupancy
  Al  Al0  1  0.48264146  0.75307736  0.50396439  1.0
  Al  Al1  1  0.72561299  0.52236175  0.50183172  1.0
  Al  Al2  1  0.72456731  0.74425800  0.50201744  1.0
  Al  Al3  1  0.23418084  0.24798362  0.00176382  1.0
  Al  Al4  1  0.24794210  0.47845307  0.00165558  1.0
  Al  Al5  1  0.46793838  0.25569399  0.00215639  1.0
  H  H6  1  0.02276149  0.66676509  0.77137476  1.0
  H  H7  1  0.35197913  0.52926284  0.29076038  1.0
  H  H8  1  0.55483466  0.10812543  0.29194523  1.0
  H  H9  1  0.11307730  0.34480766  0.29345025  1.0
  H  H10  1  0.16616173  0.51417093  0.70095663  1.0
  H  H11  1  0.32011758  0.15776227  0.70516846  1.0
  H  H12  1  0.52900809  0.30886965  0.70940426  1.0
  H  H13  1  0.68116892  0.48511379  0.20095925  1.0
  H  H14  1  0.46959675  0.84407357  0.20580230  1.0
  H  H15  1  0.83815686  0.69289313  0.20954585  1.0
  H  H16  1  0.80359636  0.75714849  0.75001762  1.0
  H  H17  1  0.33195212  0.00060857  0.77471100  1.0
  H  H18  1  0.74244897  0.69254830  0.72089038  1.0
  H  H19  1  0.55181531  0.74979814  0.75099478  1.0
  H  H20  1  0.51171087  0.79671028  0.69599843  1.0
  H  H21  1  0.72282610  0.51336107  0.76259445  1.0
  H  H22  1  0.71728518  0.48296611  0.70607315  1.0
  H  H23  1  0.55731426  0.24452100  0.25233257  1.0
  H  H24  1  0.43596602  0.30791925  0.22044620  1.0
  H  H25  1  0.30141630  0.25221310  0.25077695  1.0
  H  H26  1  0.30616031  0.20535365  0.19596383  1.0
  H  H27  1  0.23625740  0.48736912  0.26254963  1.0
  H  H28  1  0.66889193  0.31734003  0.78307500  1.0
  H  H29  1  0.20051964  0.51648345  0.20589925  1.0
  H  H30  1  0.02125449  0.32134854  0.71904592  1.0
  H  H31  1  0.65332628  0.04789088  0.72271684  1.0
  H  H32  1  0.31866075  0.64543147  0.71993159  1.0
  H  H33  1  0.34345791  0.67794739  0.21833814  1.0
  H  H34  1  0.69753876  0.94845580  0.22228888  1.0
  H  H35  1  0.96284635  0.35640460  0.21987436  1.0
  H  H36  1  0.21024711  0.32696447  0.76051975  1.0
  H  H37  1  0.44979210  0.21842298  0.76615432  1.0
  H  H38  1  0.33235742  0.45062741  0.76401878  1.0
  H  H39  1  0.68989915  0.33360259  0.27211709  1.0
  H  H40  1  0.53777824  0.67317484  0.25973281  1.0
  H  H41  1  0.66142799  0.78032292  0.26635235  1.0
  H  H42  1  0.78253698  0.55107709  0.26394949  1.0
  H  H43  1  0.32689396  0.00282903  0.27524533  1.0
  H  H44  1  0.98707005  0.68285347  0.28329225  1.0
  H  H45  1  0.88026979  0.47131144  0.79068279  1.0
  H  H46  1  0.66608554  0.88940653  0.79242505  1.0
  H  H47  1  0.45826097  0.65548641  0.79340416  1.0
  H  H48  1  0.29421960  0.86508291  0.47755075  1.0
  H  H49  1  0.13686196  0.15944104  0.03199195  1.0
  C  C50  1  0.56190133  0.87750080  0.56840763  1.0
  C  C51  1  0.49938340  0.49878704  0.19745315  1.0
  C  C52  1  0.50894387  0.99544102  0.20095789  1.0
  C  C53  1  0.99920092  0.50746579  0.20390127  1.0
  C  C54  1  0.94173498  0.48216653  0.76946882  1.0
  C  C55  1  0.59016267  0.94866561  0.77210162  1.0
  C  C56  1  0.47391629  0.57876126  0.77416881  1.0
  C  C57  1  0.42437804  0.51808575  0.26954158  1.0
  C  C58  1  0.53636617  0.04988662  0.27184445  1.0
  C  C59  1  0.05218939  0.42183597  0.27423002  1.0
  C  C60  1  0.91670486  0.58958595  0.73786907  1.0
  C  C61  1  0.56648049  0.54954049  0.56898702  1.0
  C  C62  1  0.51796693  0.91442682  0.73938987  1.0
  C  C63  1  0.58356453  0.49972999  0.74490452  1.0
  C  C64  1  0.50696993  0.41025270  0.23823933  1.0
  C  C65  1  0.42917734  0.08602295  0.23934949  1.0
  C  C66  1  0.08324994  0.50083279  0.24503644  1.0
  C  C67  1  0.06884147  0.47707851  0.84196427  1.0
  C  C68  1  0.46401473  0.06467285  0.84521272  1.0
  C  C69  1  0.46686424  0.46083780  0.84774222  1.0
  C  C70  1  0.54583015  0.52473959  0.34190434  1.0
  C  C71  1  0.52468986  0.93593574  0.34542758  1.0
  C  C72  1  0.86639662  0.56535784  0.56537863  1.0
  C  C73  1  0.92755513  0.53930194  0.34778145  1.0
  C  C74  1  0.96610210  0.51376680  0.64941046  1.0
  C  C75  1  0.52602346  0.97420009  0.65268417  1.0
  C  C76  1  0.52379696  0.50649538  0.65559559  1.0
  C  C77  1  0.48066546  0.48484758  0.14954377  1.0
  C  C78  1  0.49538003  0.02511497  0.15262938  1.0
  C  C79  1  0.03013891  0.49495072  0.15570467  1.0
  C  C80  1  0.55974177  0.87295939  0.43524305  1.0
  C  C81  1  0.56397422  0.56087739  0.43287950  1.0
  C  C82  1  0.85805341  0.56638450  0.43633696  1.0
  C  C83  1  0.43733013  0.12171916  0.06809483  1.0
  C  C84  1  0.43094581  0.12917353  0.93471356  1.0
  C  C85  1  0.12246909  0.44282621  0.93302537  1.0
  C  C86  1  0.42545713  0.43274402  0.93632330  1.0
  C  C87  1  0.10240765  0.50497856  0.72107908  1.0
  C  C88  1  0.39649571  0.09837421  0.72516864  1.0
  C  C89  1  0.51352153  0.38535416  0.72868502  1.0
  C  C90  1  0.60817655  0.49452339  0.22109476  1.0
  C  C91  1  0.48818879  0.90258268  0.22554268  1.0
  C  C92  1  0.89900637  0.61604396  0.22877248  1.0
  C  C93  1  0.02289050  0.58962889  0.75952684  1.0
  C  C94  1  0.11614384  0.45093081  0.06914059  1.0
  C  C95  1  0.40338056  0.01049093  0.76267403  1.0
  C  C96  1  0.59142288  0.39015012  0.76865552  1.0
  C  C97  1  0.61301634  0.41055057  0.25994786  1.0
  C  C98  1  0.40867682  0.99135043  0.26301838  1.0
  C  C99  1  0.98193668  0.61041441  0.26882118  1.0
  C  C100  1  0.08556796  0.46744155  0.88454877  1.0
  C  C101  1  0.45450407  0.08541233  0.88738370  1.0
  C  C102  1  0.45203063  0.45361209  0.88976650  1.0
  C  C103  1  0.55240970  0.53545609  0.38442808  1.0
  C  C104  1  0.53720005  0.91600964  0.38769135  1.0
  C  C105  1  0.43133273  0.43490065  0.06543922  1.0
  C  C106  1  0.90537559  0.54612711  0.38976697  1.0
  C  C107  1  0.92804856  0.53320751  0.60908993  1.0
  C  C108  1  0.54007791  0.93778984  0.61240323  1.0
  C  C109  1  0.54343220  0.51977612  0.61482138  1.0
  C  C110  1  0.46160106  0.46604014  0.10922928  1.0
  C  C111  1  0.47381808  0.06141875  0.11227252  1.0
  C  C112  1  0.06333715  0.48148091  0.11498293  1.0
  C  C113  1  0.12639956  0.40116330  0.75323035  1.0
  C  C114  1  0.46948519  0.13164527  0.75764775  1.0
  C  C115  1  0.40414477  0.46474835  0.75780306  1.0
  C  C116  1  0.99843529  0.50003269  0.69733049  1.0
  C  C117  1  0.52814638  0.59882922  0.25281150  1.0
  C  C118  1  0.59523801  0.86756952  0.25780129  1.0
  C  C119  1  0.86856449  0.53668673  0.25778152  1.0
  C  C120  1  0.04642979  0.48655279  0.79280925  1.0
  C  C121  1  0.47701798  0.04301717  0.79613389  1.0
  C  C122  1  0.48226919  0.47004897  0.79891364  1.0
  C  C123  1  0.53329594  0.51421701  0.29279530  1.0
  C  C124  1  0.51563563  0.95698209  0.29625435  1.0
  C  C125  1  0.95216856  0.53055349  0.29896596  1.0
  C  C126  1  0.02166666  0.39805292  0.73101656  1.0
  C  C127  1  0.50972489  0.00406015  0.70095878  1.0
  C  C128  1  0.58238294  0.03716937  0.73462135  1.0
  C  C129  1  0.39627824  0.57294740  0.73429962  1.0
  C  C130  1  0.42043743  0.60151695  0.23068847  1.0
  C  C131  1  0.61551236  0.96063453  0.23441193  1.0
  C  C132  1  0.96850280  0.42846762  0.23429568  1.0
  C  C133  1  0.50552591  0.49393713  0.70381183  1.0
  N  N134  1  0.81714389  0.69171805  0.72837441  1.0
  N  N135  1  0.55396218  0.80127751  0.72526519  1.0
  N  N136  1  0.66947969  0.52726778  0.73454457  1.0
  N  N137  1  0.50992833  0.30770986  0.22887946  1.0
  N  N138  1  0.35382894  0.19955981  0.22510144  1.0
  N  N139  1  0.19680478  0.47292889  0.23466885  1.0
  O  O140  1  0.49228794  0.64377498  0.55165672  1.0
  O  O141  1  0.33667854  0.15305986  0.05432631  1.0
  O  O142  1  0.14076657  0.52229085  0.04981469  1.0
  O  O143  1  0.49999337  0.33515732  0.04934811  1.0
  O  O144  1  0.49087725  0.65759415  0.44832182  1.0
  O  O145  1  0.83247130  0.49394627  0.45275967  1.0
  O  O146  1  0.65848679  0.84765821  0.45238193  1.0
  O  O147  1  0.14302652  0.34763239  0.94930101  1.0
  O  O148  1  0.32861264  0.50598499  0.95332581  1.0
  O  O149  1  0.50604272  0.14956454  0.95392097  1.0
  O  O150  1  0.48462860  0.85900396  0.45555728  1.0
  O  O151  1  0.84317356  0.49354611  0.54581839  1.0
  O  O152  1  0.65096968  0.48368669  0.45619806  1.0
  O  O153  1  0.83989400  0.65809124  0.45695611  1.0
  O  O154  1  0.33806937  0.14820149  0.95288848  1.0
  O  O155  1  0.13549499  0.51898662  0.95553513  1.0
  O  O156  1  0.49828273  0.33964549  0.95645262  1.0
  O  O157  1  0.64559250  0.67259555  0.50217744  1.0
  O  O158  1  0.31728065  0.32822014  0.00203993  1.0
  O  O159  1  0.65193316  0.86011371  0.54575389  1.0
  O  O160  1  0.13736140  0.35565838  0.05263300  1.0
  O  O161  1  0.33557906  0.50693278  0.04644702  1.0
  O  O162  1  0.50989212  0.14221621  0.04724362  1.0
  O  O163  1  0.49369869  0.84341896  0.55639520  1.0
  O  O164  1  0.66350114  0.47844906  0.55040584  1.0
  O  O165  1  0.83454236  0.66585576  0.54974049  1.0
  O  O166  1  0.33332975  0.82346378  0.50580418  1.0
  O  O167  1  0.15618638  0.17652020  0.00144313  1.0
