# generated using pymatgen
data_Zn3C24Br8(NO3)4
_symmetry_space_group_name_H-M   'P 1'
_cell_length_a   18.48390723
_cell_length_b   18.48376603
_cell_length_c   23.31567724
_cell_angle_alpha   113.34171453
_cell_angle_beta   113.36516610
_cell_angle_gamma   89.99128243
_symmetry_Int_Tables_number   1
_chemical_formula_structural   Zn3C24Br8(NO3)4
_chemical_formula_sum   'Zn6 C48 Br16 N8 O24'
_cell_volume   6596.66255563
_cell_formula_units_Z   2
loop_
 _symmetry_equiv_pos_site_id
 _symmetry_equiv_pos_as_xyz
  1  'x, y, z'
loop_
 _atom_site_type_symbol
 _atom_site_label
 _atom_site_symmetry_multiplicity
 _atom_site_fract_x
 _atom_site_fract_y
 _atom_site_fract_z
 _atom_site_occupancy
  Zn  Zn0  1  0.92947265  0.50001598  0.99998790  1.0
  Zn  Zn1  1  0.96610334  0.96621768  0.93229543  1.0
  Zn  Zn2  1  0.03392698  0.03381512  0.06771888  1.0
  Zn  Zn3  1  0.50002247  0.07051931  0.00001904  1.0
  Zn  Zn4  1  0.07049629  0.50000516  0.99998139  1.0
  Zn  Zn5  1  0.50002594  0.92950002  0.00000909  1.0
  C  C6  1  0.99998445  0.63889744  0.99992039  1.0
  C  C7  1  0.78299085  0.28297701  0.56605205  1.0
  C  C8  1  0.71692474  0.21693788  0.43396442  1.0
  C  C9  1  0.21692618  0.71706378  0.43393457  1.0
  C  C10  1  0.28312888  0.78295556  0.56604032  1.0
  C  C11  1  0.06677803  0.56681946  0.13334184  1.0
  C  C12  1  0.56662284  0.06658432  0.13337851  1.0
  C  C13  1  0.93321548  0.43325874  0.86662581  1.0
  C  C14  1  0.63897140  0.00007876  0.00007972  1.0
  C  C15  1  0.43348597  0.93345289  0.86665177  1.0
  C  C16  1  0.99996463  0.71676419  0.99989620  1.0
  C  C17  1  0.71686294  0.00008760  0.00010667  1.0
  C  C18  1  0.00002307  0.28326424  0.00009659  1.0
  C  C19  1  0.28317155  0.99993241  0.99990409  1.0
  C  C20  1  0.99997813  0.36113504  0.00007716  1.0
  C  C21  1  0.99990372  0.78254185  0.99992714  1.0
  C  C22  1  0.78261646  0.99999546  0.00008819  1.0
  C  C23  1  0.00007383  0.21748533  0.00006982  1.0
  C  C24  1  0.21742771  0.00000758  0.99994003  1.0
  C  C25  1  0.36106276  0.99990455  0.99992156  1.0
  C  C26  1  0.14958383  0.68452026  0.24778200  1.0
  C  C27  1  0.68417637  0.09794908  0.24784849  1.0
  C  C28  1  0.09807902  0.56365213  0.24774991  1.0
  C  C29  1  0.56342178  0.14971459  0.24780421  1.0
  C  C30  1  0.90178326  0.31558229  0.75221678  1.0
  C  C31  1  0.43664739  0.90202803  0.75218807  1.0
  C  C32  1  0.85026664  0.43641208  0.75215838  1.0
  C  C33  1  0.31602251  0.85010253  0.75223614  1.0
  C  C34  1  0.18706331  0.72030094  0.32039714  1.0
  C  C35  1  0.72000887  0.13310640  0.32045599  1.0
  C  C36  1  0.13313087  0.60046895  0.32035661  1.0
  C  C37  1  0.60023190  0.18720392  0.32041579  1.0
  C  C38  1  0.86669174  0.27979371  0.67960583  1.0
  C  C39  1  0.39983452  0.86681334  0.67956976  1.0
  C  C40  1  0.81278258  0.39962864  0.67955279  1.0
  C  C41  1  0.28022208  0.81256415  0.67963322  1.0
  C  C42  1  0.17836691  0.67867676  0.35696563  1.0
  C  C43  1  0.67841345  0.17846733  0.35701015  1.0
  C  C44  1  0.82147162  0.32142727  0.64300464  1.0
  C  C45  1  0.32172645  0.82136664  0.64300939  1.0
  C  C46  1  0.13958391  0.99999429  0.99998619  1.0
  C  C47  1  0.99997589  0.86042458  0.99997135  1.0
  C  C48  1  0.86045789  0.00001597  0.00004483  1.0
  C  C49  1  0.00001604  0.13960289  0.00002761  1.0
  C  C50  1  0.10578337  0.60595336  0.21152403  1.0
  C  C51  1  0.60567796  0.10569974  0.21157818  1.0
  C  C52  1  0.89412930  0.39412180  0.78843420  1.0
  C  C53  1  0.39444349  0.89427099  0.78846149  1.0
  Br  Br54  1  0.15574448  0.74125544  0.19737231  1.0
  Br  Br55  1  0.74065029  0.04090382  0.19739432  1.0
  Br  Br56  1  0.04120972  0.45665338  0.19728617  1.0
  Br  Br57  1  0.45640473  0.15619974  0.19733772  1.0
  Br  Br58  1  0.95854876  0.25895067  0.80268103  1.0
  Br  Br59  1  0.54360987  0.95902434  0.80259613  1.0
  Br  Br60  1  0.84404293  0.54349164  0.80258757  1.0
  Br  Br61  1  0.25957726  0.84350613  0.80271820  1.0
  Br  Br62  1  0.25227728  0.82355527  0.37030661  1.0
  Br  Br63  1  0.82324540  0.11765491  0.37034613  1.0
  Br  Br64  1  0.11778339  0.54706904  0.37022675  1.0
  Br  Br65  1  0.54688706  0.25246327  0.37031363  1.0
  Br  Br66  1  0.88198585  0.17650792  0.62972261  1.0
  Br  Br67  1  0.45308781  0.88222871  0.62962698  1.0
  Br  Br68  1  0.74759020  0.45304418  0.62964757  1.0
  Br  Br69  1  0.17704651  0.74718934  0.62977287  1.0
  N  N70  1  0.18686680  0.77879435  0.46576741  1.0
  N  N71  1  0.68683257  0.18692758  0.46571615  1.0
  N  N72  1  0.27878493  0.68697933  0.46560246  1.0
  N  N73  1  0.77876948  0.27869041  0.46569618  1.0
  N  N74  1  0.72115807  0.22121196  0.53431755  1.0
  N  N75  1  0.22123184  0.81300242  0.53437323  1.0
  N  N76  1  0.81307765  0.31299752  0.53430269  1.0
  N  N77  1  0.31317570  0.72121388  0.53420825  1.0
  O  O78  1  0.93424800  0.60397007  0.99095677  1.0
  O  O79  1  0.60396718  0.05679972  0.99104436  1.0
  O  O80  1  0.05671048  0.38712070  0.99108024  1.0
  O  O81  1  0.38700196  0.93415358  0.99087466  1.0
  O  O82  1  0.94323497  0.39609505  0.00907462  1.0
  O  O83  1  0.61303388  0.94334623  0.00909799  1.0
  O  O84  1  0.06571264  0.61290320  0.00889582  1.0
  O  O85  1  0.39607475  0.06565839  0.00897353  1.0
  O  O86  1  0.99148535  0.56315257  0.10404868  1.0
  O  O87  1  0.56309940  0.11260369  0.10412790  1.0
  O  O88  1  0.11282977  0.54120123  0.10412792  1.0
  O  O89  1  0.54092589  0.99133680  0.10411009  1.0
  O  O90  1  0.88720838  0.43689444  0.89589084  1.0
  O  O91  1  0.45918449  0.88746846  0.89594382  1.0
  O  O92  1  0.00848749  0.45890195  0.89586911  1.0
  O  O93  1  0.43699104  0.00870235  0.89586956  1.0
  O  O94  1  0.13878735  0.02941124  0.05933066  1.0
  O  O95  1  0.02949132  0.92056504  0.05931476  1.0
  O  O96  1  0.92068626  0.02985160  0.05934371  1.0
  O  O97  1  0.02989322  0.13866875  0.05932700  1.0
  O  O98  1  0.07935310  0.97057478  0.94069010  1.0
  O  O99  1  0.97009306  0.07946624  0.94068745  1.0
  O  O100  1  0.86125570  0.97018505  0.94070130  1.0
  O  O101  1  0.97051405  0.86135518  0.94067165  1.0
