# generated using pymatgen
data_AlH6C14BrO5F
_symmetry_space_group_name_H-M   'P 1'
_cell_length_a   6.65650637
_cell_length_b   11.06074112
_cell_length_c   17.55972523
_cell_angle_alpha   93.14756735
_cell_angle_beta   96.74016830
_cell_angle_gamma   106.34984292
_symmetry_Int_Tables_number   1
_chemical_formula_structural   AlH6C14BrO5F
_chemical_formula_sum   'Al2 H12 C28 Br2 O10 F2'
_cell_volume   1226.73647583
_cell_formula_units_Z   2
loop_
 _symmetry_equiv_pos_site_id
 _symmetry_equiv_pos_as_xyz
  1  'x, y, z'
loop_
 _atom_site_type_symbol
 _atom_site_label
 _atom_site_symmetry_multiplicity
 _atom_site_fract_x
 _atom_site_fract_y
 _atom_site_fract_z
 _atom_site_occupancy
  Al  Al0  1  0.99693903  0.49914905  0.50033957  1.0
  Al  Al1  1  0.49850555  0.50256773  0.50112976  1.0
  H  H2  1  0.33038543  0.64975447  0.55542509  1.0
  H  H3  1  0.65347250  0.34531744  0.45932945  1.0
  H  H4  1  0.85649708  0.50920323  0.28293086  1.0
  H  H5  1  0.76667243  0.51363360  0.14158146  1.0
  H  H6  1  0.39296625  0.49493502  0.11148736  1.0
  H  H7  1  0.60941823  0.50944035  0.89034429  1.0
  H  H8  1  0.13888312  0.48784064  0.71727037  1.0
  H  H9  1  0.23096115  0.48379374  0.85851454  1.0
  H  H10  1  0.57919671  0.75828611  0.39429188  1.0
  H  H11  1  0.38293022  0.86991915  0.31081363  1.0
  H  H12  1  0.83282259  0.22743549  0.39627089  1.0
  H  H13  1  0.51202503  0.10556427  0.31132240  1.0
  C  C14  1  0.86278096  0.72506782  0.49526577  1.0
  C  C15  1  0.78545452  0.50573899  0.63860006  1.0
  C  C16  1  0.13711418  0.27548897  0.50539249  1.0
  C  C17  1  0.21229058  0.49644021  0.36258069  1.0
  C  C18  1  0.17195725  0.50164736  0.27761640  1.0
  C  C19  1  0.97233846  0.50727906  0.24441607  1.0
  C  C20  1  0.92250054  0.50941189  0.16571846  1.0
  C  C21  1  0.07266721  0.50428785  0.11600397  1.0
  C  C22  1  0.27396472  0.49951445  0.14819026  1.0
  C  C23  1  0.31943533  0.49886567  0.22717941  1.0
  C  C24  1  0.02256893  0.50219140  0.03529235  1.0
  C  C25  1  0.97848910  0.49858509  0.96555308  1.0
  C  C26  1  0.92749475  0.49664810  0.88489625  1.0
  C  C27  1  0.72699165  0.50344890  0.85330242  1.0
  C  C28  1  0.68059924  0.50478081  0.77439617  1.0
  C  C29  1  0.82616797  0.49984915  0.72350216  1.0
  C  C30  1  0.02469371  0.49163732  0.75615404  1.0
  C  C31  1  0.07579974  0.48962743  0.83479762  1.0
  C  C32  1  0.93406005  0.86684887  0.49768858  1.0
  C  C33  1  0.81757567  0.92905534  0.44789847  1.0
  C  C34  1  0.11019480  0.93664501  0.54802710  1.0
  C  C35  1  0.63466861  0.86095828  0.39608772  1.0
  C  C36  1  0.52494687  0.92363791  0.34912057  1.0
  C  C37  1  0.06989048  0.13359918  0.50243189  1.0
  C  C38  1  0.17804086  0.07086168  0.55082208  1.0
  C  C39  1  0.88823999  0.06441755  0.44966304  1.0
  C  C40  1  0.77605818  0.12533041  0.39799584  1.0
  C  C41  1  0.59705579  0.05665504  0.34967774  1.0
  Br  Br42  1  0.40994240  0.16462020  0.62394567  1.0
  Br  Br43  1  0.25376836  0.85464038  0.61909539  1.0
  O  O44  1  0.99269002  0.66678049  0.47799391  1.0
  O  O45  1  0.59652455  0.48920558  0.60712490  1.0
  O  O46  1  0.32118524  0.32965120  0.49012262  1.0
  O  O47  1  0.04786316  0.46704436  0.39648992  1.0
  O  O48  1  0.00043001  0.33022655  0.52045952  1.0
  O  O49  1  0.40234695  0.52032561  0.39484332  1.0
  O  O50  1  0.67724248  0.67425910  0.51047646  1.0
  O  O51  1  0.94860699  0.52821036  0.60410063  1.0
  O  O52  1  0.28549882  0.56234256  0.53321994  1.0
  O  O53  1  0.70665618  0.43691527  0.46777975  1.0
  F  F54  1  0.51473144  0.49146973  0.25437519  1.0
  F  F55  1  0.48664643  0.51484045  0.74789789  1.0
