# generated using pymatgen
data_CuH6C6(NO)2
_symmetry_space_group_name_H-M   'P 1'
_cell_length_a   14.11474126
_cell_length_b   14.11472777
_cell_length_c   14.11474956
_cell_angle_alpha   110.16893318
_cell_angle_beta   108.08536547
_cell_angle_gamma   110.16821785
_symmetry_Int_Tables_number   1
_chemical_formula_structural   CuH6C6(NO)2
_chemical_formula_sum   'Cu4 H24 C24 N8 O8'
_cell_volume   2163.74717740
_cell_formula_units_Z   4
loop_
 _symmetry_equiv_pos_site_id
 _symmetry_equiv_pos_as_xyz
  1  'x, y, z'
loop_
 _atom_site_type_symbol
 _atom_site_label
 _atom_site_symmetry_multiplicity
 _atom_site_fract_x
 _atom_site_fract_y
 _atom_site_fract_z
 _atom_site_occupancy
  Cu  Cu0  1  0.20462356  0.89528046  0.09990665  1.0
  Cu  Cu1  1  0.20462531  0.10471891  0.30934159  1.0
  Cu  Cu2  1  0.84990190  0.39528180  0.45461776  1.0
  Cu  Cu3  1  0.05933707  0.60471826  0.45461988  1.0
  H  H4  1  0.40519379  0.95360195  0.05991092  1.0
  H  H5  1  0.50480439  0.96029014  0.17998700  1.0
  H  H6  1  0.55362148  0.06899815  0.14382462  1.0
  H  H7  1  0.10630691  0.04639696  0.45159042  1.0
  H  H8  1  0.21969622  0.03970933  0.54451381  1.0
  H  H9  1  0.07482599  0.93100161  0.48462238  1.0
  H  H10  1  0.80991648  0.15472171  0.35630947  1.0
  H  H11  1  0.92998964  0.17518326  0.46969715  1.0
  H  H12  1  0.89382828  0.09020548  0.32482629  1.0
  H  H13  1  0.20158698  0.84527745  0.65519376  1.0
  H  H14  1  0.29451301  0.82481575  0.75480483  1.0
  H  H15  1  0.23462072  0.90979364  0.80362257  1.0
  H  H16  1  0.40519516  0.34528188  0.45159059  1.0
  H  H17  1  0.50480629  0.32481718  0.54451295  1.0
  H  H18  1  0.55362386  0.40979680  0.48462378  1.0
  H  H19  1  0.10630864  0.65471821  0.05991278  1.0
  H  H20  1  0.21969623  0.67518346  0.17998902  1.0
  H  H21  1  0.07482666  0.59020325  0.14382609  1.0
  H  H22  1  0.80991183  0.45360335  0.65519254  1.0
  H  H23  1  0.92998533  0.46028894  0.75480342  1.0
  H  H24  1  0.89382204  0.56899719  0.80361925  1.0
  H  H25  1  0.20158808  0.54639579  0.35630808  1.0
  H  H26  1  0.29451379  0.53971048  0.46969553  1.0
  H  H27  1  0.23462276  0.43100252  0.32482502  1.0
  C  C28  1  0.45086935  0.08603543  0.22486628  1.0
  C  C29  1  0.47977685  0.01307929  0.14712996  1.0
  C  C30  1  0.13883084  0.91396454  0.36483412  1.0
  C  C31  1  0.13404715  0.98691876  0.46669563  1.0
  C  C32  1  0.97487224  0.27399947  0.38883447  1.0
  C  C33  1  0.89713613  0.16735607  0.38405140  1.0
  C  C34  1  0.11483418  0.72599901  0.70087211  1.0
  C  C35  1  0.21669540  0.83264316  0.72977870  1.0
  C  C36  1  0.45087204  0.22600233  0.36483388  1.0
  C  C37  1  0.47978014  0.33264732  0.46669679  1.0
  C  C38  1  0.13883120  0.77399793  0.22486938  1.0
  C  C39  1  0.13405076  0.66735378  0.14713356  1.0
  C  C40  1  0.97486873  0.58603587  0.70087056  1.0
  C  C41  1  0.89712866  0.51307902  0.72977488  1.0
  C  C42  1  0.11483489  0.41396418  0.38883328  1.0
  C  C43  1  0.21669558  0.48691963  0.38404862  1.0
  C  C44  1  0.52321332  0.20078713  0.32242503  1.0
  C  C45  1  0.64532945  0.27575148  0.36957372  1.0
  C  C46  1  0.12163761  0.79921403  0.32242594  1.0
  C  C47  1  0.09382295  0.72424822  0.36957720  1.0
  C  C48  1  0.07243242  0.29921695  0.37164642  1.0
  C  C49  1  0.11958449  0.22425071  0.34383354  1.0
  C  C50  1  0.07242895  0.70078343  0.77321508  1.0
  C  C51  1  0.11958150  0.77575077  0.89533478  1.0
  N  N52  1  0.34374415  0.04721352  0.21149230  1.0
  N  N53  1  0.16427837  0.95278654  0.29653070  1.0
  N  N54  1  0.96149180  0.36774851  0.41427626  1.0
  N  N55  1  0.04652806  0.63225150  0.59374401  1.0
  N  N56  1  0.34374493  0.13225182  0.29653051  1.0
  N  N57  1  0.16427807  0.86774754  0.21149265  1.0
  N  N58  1  0.96148951  0.54721438  0.59374368  1.0
  N  N59  1  0.04652847  0.45278535  0.41427458  1.0
  O  O60  1  0.70425906  0.24378580  0.32503298  1.0
  O  O61  1  0.08124756  0.75621410  0.46047312  1.0
  O  O62  1  0.07504399  0.12077962  0.33125620  1.0
  O  O63  1  0.21047584  0.87922102  0.95426453  1.0
  O  O64  1  0.70425878  0.37922353  0.46046971  1.0
  O  O65  1  0.08124765  0.62077585  0.32503501  1.0
  O  O66  1  0.07504082  0.74378379  0.95426405  1.0
  O  O67  1  0.21048159  0.25621784  0.33125939  1.0
