# generated using pymatgen
data_AlH22(C5O)5
_symmetry_space_group_name_H-M   'P 1'
_cell_length_a   6.66799328
_cell_length_b   22.60376730
_cell_length_c   27.01752417
_cell_angle_alpha   78.12727984
_cell_angle_beta   89.94279383
_cell_angle_gamma   89.98763170
_symmetry_Int_Tables_number   1
_chemical_formula_structural   AlH22(C5O)5
_chemical_formula_sum   'Al4 H88 C100 O20'
_cell_volume   3985.01219441
_cell_formula_units_Z   4
loop_
 _symmetry_equiv_pos_site_id
 _symmetry_equiv_pos_as_xyz
  1  'x, y, z'
loop_
 _atom_site_type_symbol
 _atom_site_label
 _atom_site_symmetry_multiplicity
 _atom_site_fract_x
 _atom_site_fract_y
 _atom_site_fract_z
 _atom_site_occupancy
  Al  Al0  1  0.75844938  0.74862922  0.74913103  1.0
  Al  Al1  1  0.24530604  0.25000852  0.25093171  1.0
  Al  Al2  1  0.25846073  0.75138283  0.75100332  1.0
  Al  Al3  1  0.74530856  0.25009238  0.24914145  1.0
  H  H4  1  0.78987946  0.60715451  0.97861859  1.0
  H  H5  1  0.16051092  0.38418887  0.01791716  1.0
  H  H6  1  0.28891892  0.89295730  0.52145556  1.0
  H  H7  1  0.66277228  0.11543245  0.48182218  1.0
  H  H8  1  0.69054968  0.89318529  0.94083881  1.0
  H  H9  1  0.29971725  0.06022788  0.09422793  1.0
  H  H10  1  0.19148899  0.60690506  0.55941396  1.0
  H  H11  1  0.79932768  0.43979588  0.40565871  1.0
  H  H12  1  0.29434012  0.94893584  0.89808568  1.0
  H  H13  1  0.68324687  0.11102829  0.05967935  1.0
  H  H14  1  0.79520685  0.55110648  0.60188019  1.0
  H  H15  1  0.18267920  0.38925765  0.44053385  1.0
  H  H16  1  0.29084153  0.88159941  0.83575136  1.0
  H  H17  1  0.69889993  0.17634508  0.12190896  1.0
  H  H18  1  0.79180685  0.61848223  0.66418850  1.0
  H  H19  1  0.19780456  0.32396168  0.37827269  1.0
  H  H20  1  0.27208497  0.93152177  0.99500045  1.0
  H  H21  1  0.70604508  0.07251970  0.99961829  1.0
  H  H22  1  0.77256860  0.56850731  0.50488269  1.0
  H  H23  1  0.20611690  0.42759834  0.50071252  1.0
  H  H24  1  0.27025699  0.99431168  0.05856427  1.0
  H  H25  1  0.70412499  0.00670535  0.93813661  1.0
  H  H26  1  0.77015366  0.50574048  0.44130121  1.0
  H  H27  1  0.20479009  0.49338428  0.56222226  1.0
  H  H28  1  0.64453198  0.63856439  0.04359355  1.0
  H  H29  1  0.67380363  0.60124142  0.10773025  1.0
  H  H30  1  0.85207633  0.65555001  0.07885458  1.0
  H  H31  1  0.30688321  0.35087111  0.95609492  1.0
  H  H32  1  0.11348916  0.34094238  0.91388420  1.0
  H  H33  1  0.31221023  0.39175984  0.89259333  1.0
  H  H34  1  0.14243588  0.86180277  0.45657340  1.0
  H  H35  1  0.17158212  0.89917268  0.39242844  1.0
  H  H36  1  0.34930164  0.84460115  0.42108325  1.0
  H  H37  1  0.81127205  0.14843809  0.54348287  1.0
  H  H38  1  0.61866037  0.15873955  0.58587843  1.0
  H  H39  1  0.81651039  0.10757470  0.60699518  1.0
  H  H40  1  0.86895351  0.67095777  0.91383003  1.0
  H  H41  1  0.08506744  0.64343185  0.94922057  1.0
  H  H42  1  0.10817691  0.68125805  0.88523343  1.0
  H  H43  1  0.87024453  0.35202641  0.05298733  1.0
  H  H44  1  0.08842204  0.32207895  0.08648997  1.0
  H  H45  1  0.85518096  0.31730170  0.11796747  1.0
  H  H46  1  0.36674804  0.82913936  0.58631336  1.0
  H  H47  1  0.58325539  0.85618467  0.55077727  1.0
  H  H48  1  0.60594230  0.81837592  0.61476270  1.0
  H  H49  1  0.37143485  0.14784479  0.44727984  1.0
  H  H50  1  0.58907765  0.17785343  0.41345055  1.0
  H  H51  1  0.35528051  0.18266400  0.38234099  1.0
  H  H52  1  0.04565180  0.59178310  0.74491573  1.0
  H  H53  1  0.09823759  0.51392091  0.75149813  1.0
  H  H54  1  0.84635898  0.53903214  0.75189703  1.0
  H  H55  1  0.11590852  0.41369593  0.24858657  1.0
  H  H56  1  0.24049303  0.48303082  0.22806121  1.0
  H  H57  1  0.98721413  0.48284918  0.24732371  1.0
  H  H58  1  0.54785541  0.90814900  0.75501939  1.0
  H  H59  1  0.60156421  0.98593939  0.74833582  1.0
  H  H60  1  0.34930657  0.96114054  0.74821242  1.0
  H  H61  1  0.61574990  0.08630038  0.25134014  1.0
  H  H62  1  0.73933034  0.01678520  0.27174148  1.0
  H  H63  1  0.48600779  0.01733699  0.25258344  1.0
  H  H64  1  0.15050952  0.56862892  0.18679072  1.0
  H  H65  1  0.06781229  0.61230745  0.12858660  1.0
  H  H66  1  0.89443144  0.58738302  0.17843851  1.0
  H  H67  1  0.89760537  0.43779253  0.79813130  1.0
  H  H68  1  0.14309473  0.41337933  0.81638610  1.0
  H  H69  1  0.93769245  0.38957731  0.85745172  1.0
  H  H70  1  0.64853482  0.93126655  0.31300516  1.0
  H  H71  1  0.56563184  0.88766527  0.37126735  1.0
  H  H72  1  0.39229600  0.91276626  0.32152966  1.0
  H  H73  1  0.40212522  0.06234128  0.70184382  1.0
  H  H74  1  0.64788215  0.08634058  0.68334326  1.0
  H  H75  1  0.44244781  0.11044829  0.64246263  1.0
  H  H76  1  0.67328111  0.76588720  0.88887170  1.0
  H  H77  1  0.52640802  0.82139283  0.91065032  1.0
  H  H78  1  0.55988445  0.82311578  0.84475833  1.0
  H  H79  1  0.33186335  0.10745713  0.20701802  1.0
  H  H80  1  0.47095042  0.08759871  0.15640708  1.0
  H  H81  1  0.43345275  0.16470712  0.16094929  1.0
  H  H82  1  0.17430053  0.73424067  0.61131547  1.0
  H  H83  1  0.02757394  0.67873555  0.58956634  1.0
  H  H84  1  0.06064378  0.67702825  0.65545209  1.0
  H  H85  1  0.83076154  0.39252019  0.29282352  1.0
  H  H86  1  0.97004639  0.41251819  0.34327174  1.0
  H  H87  1  0.93279568  0.33536475  0.33886276  1.0
  H  H88  1  0.50892336  0.70507546  0.80978810  1.0
  H  H89  1  0.49094073  0.29695787  0.19101961  1.0
  H  H90  1  0.00929099  0.79489038  0.69031462  1.0
  H  H91  1  0.99061175  0.20315432  0.30904992  1.0
  C  C92  1  0.50398172  0.68916011  0.68540487  1.0
  C  C93  1  0.49458050  0.30725106  0.31722312  1.0
  C  C94  1  0.00305830  0.81089082  0.81470786  1.0
  C  C95  1  0.99551279  0.19286841  0.18284078  1.0
  C  C96  1  0.50961822  0.84757894  0.69278859  1.0
  C  C97  1  0.49944736  0.15126523  0.30661076  1.0
  C  C98  1  0.00952456  0.65237535  0.80725617  1.0
  C  C99  1  0.99938478  0.34880278  0.19341805  1.0
  C  C100  1  0.00252956  0.40754298  0.15559342  1.0
  C  C101  1  0.00923808  0.59195840  0.84254194  1.0
  C  C102  1  0.50235583  0.09248105  0.34439431  1.0
  C  C103  1  0.50982537  0.90793667  0.65743372  1.0
  C  C104  1  0.99821963  0.51672337  0.14001756  1.0
  C  C105  1  0.02016244  0.48317961  0.85362341  1.0
  C  C106  1  0.49708948  0.98330756  0.35989732  1.0
  C  C107  1  0.52300933  0.01668793  0.64628216  1.0
  C  C108  1  0.03245578  0.46165667  0.17326450  1.0
  C  C109  1  0.00860568  0.53983224  0.82136216  1.0
  C  C110  1  0.53177141  0.03836608  0.32666765  1.0
  C  C111  1  0.51066777  0.96008972  0.67858849  1.0
  C  C112  1  0.98089089  0.40679117  0.10437318  1.0
  C  C113  1  0.00084021  0.58984472  0.89434220  1.0
  C  C114  1  0.48099614  0.09318816  0.39564345  1.0
  C  C115  1  0.50074120  0.91002211  0.60565010  1.0
  C  C116  1  0.97973916  0.46332252  0.06899864  1.0
  C  C117  1  0.99588916  0.53189301  0.92772411  1.0
  C  C118  1  0.47974394  0.03662728  0.43097977  1.0
  C  C119  1  0.49668177  0.96796602  0.57222276  1.0
  C  C120  1  0.95171512  0.51737790  0.08837031  1.0
  C  C121  1  0.03475994  0.47913965  0.90707371  1.0
  C  C122  1  0.45092283  0.98263263  0.41159385  1.0
  C  C123  1  0.53700069  0.02065438  0.59281736  1.0
  C  C124  1  0.00417409  0.46902620  0.01482474  1.0
  C  C125  1  0.96007607  0.52453119  0.98155959  1.0
  C  C126  1  0.50485059  0.03082641  0.48513245  1.0
  C  C127  1  0.46032163  0.97536591  0.51842441  1.0
  C  C128  1  0.86855140  0.57032014  0.00313917  1.0
  C  C129  1  0.09107855  0.42272812  0.99314396  1.0
  C  C130  1  0.36790746  0.92970880  0.49689039  1.0
  C  C131  1  0.59304137  0.07699460  0.50669204  1.0
  C  C132  1  0.86759928  0.56906608  0.05415164  1.0
  C  C133  1  0.10239509  0.42541612  0.94188854  1.0
  C  C134  1  0.36647954  0.93101514  0.44587248  1.0
  C  C135  1  0.60525520  0.07426118  0.55793091  1.0
  C  C136  1  0.81748223  0.85256863  0.88277724  1.0
  C  C137  1  0.17433999  0.12078052  0.13640489  1.0
  C  C138  1  0.31848610  0.64754691  0.61738793  1.0
  C  C139  1  0.67362919  0.37928447  0.36356324  1.0
  C  C140  1  0.82188357  0.89142890  0.91698270  1.0
  C  C141  1  0.16443349  0.08503645  0.09998750  1.0
  C  C142  1  0.32285349  0.60867518  0.58320102  1.0
  C  C143  1  0.66393760  0.41503280  0.39997859  1.0
  C  C144  1  0.99079433  0.92595091  0.92360097  1.0
  C  C145  1  0.99163624  0.07962461  0.07150508  1.0
  C  C146  1  0.49169371  0.57411687  0.57651251  1.0
  C  C147  1  0.49122847  0.42050607  0.42856463  1.0
  C  C148  1  0.16198585  0.92191584  0.89413156  1.0
  C  C149  1  0.82275355  0.11358480  0.08008942  1.0
  C  C150  1  0.66290717  0.57815579  0.60587596  1.0
  C  C151  1  0.32215769  0.38663690  0.42005654  1.0
  C  C152  1  0.16010036  0.88463411  0.85921321  1.0
  C  C153  1  0.82977040  0.15025009  0.11543367  1.0
  C  C154  1  0.66106589  0.61546038  0.64079172  1.0
  C  C155  1  0.32890214  0.34997175  0.38469352  1.0
  C  C156  1  0.99124854  0.84986630  0.85298690  1.0
  C  C157  1  0.00197201  0.15420855  0.14430073  1.0
  C  C158  1  0.49226384  0.65022690  0.64709844  1.0
  C  C159  1  0.50109108  0.34591884  0.35574948  1.0
  C  C160  1  0.14828898  0.96293116  0.99571725  1.0
  C  C161  1  0.83025619  0.04115493  0.99981335  1.0
  C  C162  1  0.64869313  0.53711235  0.50427155  1.0
  C  C163  1  0.33040807  0.45895577  0.50041887  1.0
  C  C164  1  0.14683128  0.99895664  0.03166497  1.0
  C  C165  1  0.82877002  0.00399168  0.96467058  1.0
  C  C166  1  0.64690073  0.50111634  0.46830339  1.0
  C  C167  1  0.32925323  0.49609279  0.53558431  1.0
  C  C168  1  0.98933316  0.03978954  0.03429855  1.0
  C  C169  1  0.98913587  0.96465883  0.96143300  1.0
  C  C170  1  0.48923338  0.46031129  0.46579255  1.0
  C  C171  1  0.48978436  0.53539709  0.53869154  1.0
  C  C172  1  0.75494489  0.61859060  0.07235405  1.0
  C  C173  1  0.21329738  0.37474913  0.92489060  1.0
  C  C174  1  0.25286327  0.88167043  0.42771872  1.0
  C  C175  1  0.71755984  0.12475156  0.57480042  1.0
  C  C176  1  0.01567507  0.64919428  0.91179420  1.0
  C  C177  1  0.94761418  0.34664742  0.08937996  1.0
  C  C178  1  0.51399268  0.85060897  0.58824261  1.0
  C  C179  1  0.44818378  0.15328839  0.41075708  1.0
  C  C180  1  0.99961167  0.54643790  0.76465260  1.0
  C  C181  1  0.09574118  0.45987403  0.22704813  1.0
  C  C182  1  0.50226335  0.95353935  0.73530351  1.0
  C  C183  1  0.59491545  0.04013968  0.27284560  1.0
  C  C184  1  0.02793229  0.57433246  0.15911593  1.0
  C  C185  1  0.00027261  0.42799115  0.83054494  1.0
  C  C186  1  0.52604259  0.92568024  0.34076284  1.0
  C  C187  1  0.50457431  0.07195260  0.66933290  1.0
  C  C188  1  0.63406135  0.81414581  0.88172406  1.0
  C  C189  1  0.36339883  0.11996790  0.16639716  1.0
  C  C190  1  0.13504535  0.68598562  0.61848294  1.0
  C  C191  1  0.86254950  0.38008597  0.33341201  1.0
  O  O192  1  0.33931912  0.82547079  0.70770133  1.0
  O  O193  1  0.66791145  0.17435264  0.29120618  1.0
  O  O194  1  0.83934104  0.67467464  0.79255476  1.0
  O  O195  1  0.16771710  0.32552853  0.20858153  1.0
  O  O196  1  0.67819552  0.70264590  0.69952025  1.0
  O  O197  1  0.32179342  0.29258882  0.30305355  1.0
  O  O198  1  0.17735700  0.79713610  0.80074161  1.0
  O  O199  1  0.82270736  0.20792080  0.19680283  1.0
  O  O200  1  0.67811760  0.82266060  0.70543792  1.0
  O  O201  1  0.32899304  0.17413202  0.29243426  1.0
  O  O202  1  0.17821093  0.67715614  0.79447670  1.0
  O  O203  1  0.82881079  0.32617124  0.20787781  1.0
  O  O204  1  0.83787722  0.79392526  0.79869935  1.0
  O  O205  1  0.16231986  0.20886450  0.19886058  1.0
  O  O206  1  0.33872431  0.70635913  0.70129404  1.0
  O  O207  1  0.66139864  0.29083902  0.30143365  1.0
  O  O208  1  0.50947981  0.73927504  0.78139902  1.0
  O  O209  1  0.49426189  0.26233008  0.21902916  1.0
  O  O210  1  0.00974075  0.76073512  0.71874132  1.0
  O  O211  1  0.99403624  0.23778424  0.28104518  1.0
