# generated using pymatgen
data_AlH8C12NO7
_symmetry_space_group_name_H-M   'P 1'
_cell_length_a   6.84346789
_cell_length_b   11.08571952
_cell_length_c   15.13156775
_cell_angle_alpha   83.52557184
_cell_angle_beta   78.67275263
_cell_angle_gamma   73.20302544
_symmetry_Int_Tables_number   1
_chemical_formula_structural   AlH8C12NO7
_chemical_formula_sum   'Al2 H16 C24 N2 O14'
_cell_volume   1075.64933151
_cell_formula_units_Z   2
loop_
 _symmetry_equiv_pos_site_id
 _symmetry_equiv_pos_as_xyz
  1  'x, y, z'
loop_
 _atom_site_type_symbol
 _atom_site_label
 _atom_site_symmetry_multiplicity
 _atom_site_fract_x
 _atom_site_fract_y
 _atom_site_fract_z
 _atom_site_occupancy
  Al  Al0  1  0.49479769  0.51173804  0.49933291  1.0
  Al  Al1  1  0.99524854  0.51114402  0.49953607  1.0
  H  H2  1  0.27614297  0.37941225  0.57973575  1.0
  H  H3  1  0.71188939  0.64730260  0.42334345  1.0
  H  H4  1  0.34790740  0.89962214  0.53012225  1.0
  H  H5  1  0.64113813  0.12307095  0.47006700  1.0
  H  H6  1  0.21725738  0.43316451  0.05227018  1.0
  H  H7  1  0.84098486  0.44250447  0.95157391  1.0
  H  H8  1  0.30626430  0.59827340  0.75695852  1.0
  H  H9  1  0.20221173  0.60568416  0.92399862  1.0
  H  H10  1  0.60251620  0.59224473  0.23573974  1.0
  H  H11  1  0.69536526  0.60666252  0.06819721  1.0
  H  H12  1  0.02902959  0.35902634  0.17367254  1.0
  H  H13  1  0.13805146  0.31577308  0.27435210  1.0
  H  H14  1  0.94462746  0.45836870  0.26654277  1.0
  H  H15  1  0.09769323  0.37559150  0.83290512  1.0
  H  H16  1  0.02792283  0.33857022  0.73412506  1.0
  H  H17  1  0.08368338  0.48319320  0.73596348  1.0
  C  C18  1  0.67912060  0.51574182  0.66026882  1.0
  C  C19  1  0.84610671  0.28649084  0.49456371  1.0
  C  C20  1  0.31010937  0.50700404  0.33877280  1.0
  C  C21  1  0.14328082  0.73630033  0.50515226  1.0
  C  C22  1  0.92474047  0.14529547  0.49454569  1.0
  C  C23  1  0.06427053  0.87744573  0.50549942  1.0
  C  C24  1  0.12385645  0.07986528  0.51014588  1.0
  C  C25  1  0.86513034  0.94286417  0.48997916  1.0
  C  C26  1  0.19369758  0.94924146  0.51654910  1.0
  C  C27  1  0.79530163  0.07346702  0.48358484  1.0
  C  C28  1  0.35747472  0.50654271  0.23849048  1.0
  C  C29  1  0.63059980  0.51864761  0.76043577  1.0
  C  C30  1  0.24519093  0.46010993  0.18706323  1.0
  C  C31  1  0.29921824  0.47057497  0.09289934  1.0
  C  C32  1  0.78631322  0.47436196  0.81483146  1.0
  C  C33  1  0.72389774  0.47971340  0.90840114  1.0
  C  C34  1  0.42238596  0.56467514  0.80065800  1.0
  C  C35  1  0.36435413  0.56809762  0.89382767  1.0
  C  C36  1  0.51904608  0.55761150  0.19442493  1.0
  C  C37  1  0.57127176  0.56507795  0.10101946  1.0
  C  C38  1  0.46016346  0.52173426  0.04864134  1.0
  C  C39  1  0.51593730  0.52486035  0.94923501  1.0
  C  C40  1  0.07980024  0.39524287  0.22728149  1.0
  C  C41  1  0.01088452  0.41522889  0.77772726  1.0
  N  N42  1  0.27603134  0.14911901  0.51286939  1.0
  N  N43  1  0.71316161  0.87341749  0.48737437  1.0
  O  O44  1  0.54015888  0.49912646  0.62105752  1.0
  O  O45  1  0.97524557  0.34197319  0.50806719  1.0
  O  O46  1  0.13488590  0.49265413  0.37827596  1.0
  O  O47  1  0.32925400  0.68621862  0.51540768  1.0
  O  O48  1  0.44665539  0.52612605  0.37839328  1.0
  O  O49  1  0.01468507  0.68052578  0.49152727  1.0
  O  O50  1  0.85534172  0.52881877  0.62111601  1.0
  O  O51  1  0.66039751  0.33704521  0.48416716  1.0
  O  O52  1  0.25438993  0.45564930  0.54015645  1.0
  O  O53  1  0.73607905  0.56712579  0.45861435  1.0
  O  O54  1  0.36384287  0.18121732  0.43820293  1.0
  O  O55  1  0.31410933  0.16355721  0.58702441  1.0
  O  O56  1  0.67554597  0.85837726  0.41324091  1.0
  O  O57  1  0.62540444  0.84149362  0.56207390  1.0
