# generated using pymatgen
data_SmH24C25S2N3O8
_symmetry_space_group_name_H-M   'P 1'
_cell_length_a   16.13949842
_cell_length_b   16.13955857
_cell_length_c   27.95061053
_cell_angle_alpha   80.33708084
_cell_angle_beta   80.33717652
_cell_angle_gamma   62.78455561
_symmetry_Int_Tables_number   1
_chemical_formula_structural   SmH24C25S2N3O8
_chemical_formula_sum   'Sm4 H96 C100 S8 N12 O32'
_cell_volume   6348.26938293
_cell_formula_units_Z   4
loop_
 _symmetry_equiv_pos_site_id
 _symmetry_equiv_pos_as_xyz
  1  'x, y, z'
loop_
 _atom_site_type_symbol
 _atom_site_label
 _atom_site_symmetry_multiplicity
 _atom_site_fract_x
 _atom_site_fract_y
 _atom_site_fract_z
 _atom_site_occupancy
  Sm  Sm0  1  0.93385953  0.47034326  0.95496951  1.0
  Sm  Sm1  1  0.52965669  0.06614004  0.54503010  1.0
  Sm  Sm2  1  0.06614024  0.52965509  0.04502968  1.0
  Sm  Sm3  1  0.47034281  0.93386182  0.45497020  1.0
  H  H4  1  0.93687489  0.37003232  0.79606083  1.0
  H  H5  1  0.62996844  0.06312490  0.70393839  1.0
  H  H6  1  0.06312426  0.62996743  0.20393864  1.0
  H  H7  1  0.37003165  0.93687415  0.29606105  1.0
  H  H8  1  0.89415638  0.29034192  0.74050066  1.0
  H  H9  1  0.70965876  0.10584261  0.75949867  1.0
  H  H10  1  0.10584309  0.70965713  0.25949920  1.0
  H  H11  1  0.29034101  0.89415574  0.24050088  1.0
  H  H12  1  0.79692434  0.15208139  0.86589373  1.0
  H  H13  1  0.84791865  0.20307656  0.63410622  1.0
  H  H14  1  0.20307576  0.84791766  0.13410643  1.0
  H  H15  1  0.15208145  0.79692249  0.36589394  1.0
  H  H16  1  0.83983157  0.23251273  0.92135509  1.0
  H  H17  1  0.76748754  0.16016948  0.57864444  1.0
  H  H18  1  0.16016884  0.76748702  0.07864497  1.0
  H  H19  1  0.23251350  0.83983027  0.42135520  1.0
  H  H20  1  0.16899017  0.68315593  0.91658590  1.0
  H  H21  1  0.31684544  0.83100691  0.58341497  1.0
  H  H22  1  0.83100683  0.31684733  0.08341415  1.0
  H  H23  1  0.68315592  0.16899214  0.41658542  1.0
  H  H24  1  0.23237626  0.75545784  0.84136320  1.0
  H  H25  1  0.24454322  0.76762186  0.65863795  1.0
  H  H26  1  0.76762323  0.24454261  0.15863724  1.0
  H  H27  1  0.75545783  0.23237789  0.34136241  1.0
  H  H28  1  0.14448580  0.62558859  0.75123514  1.0
  H  H29  1  0.37440956  0.85551649  0.74876591  1.0
  H  H30  1  0.85551774  0.37440835  0.24876525  1.0
  H  H31  1  0.62559180  0.14448256  0.25123484  1.0
  H  H32  1  0.08130441  0.55284880  0.82706507  1.0
  H  H33  1  0.44715011  0.91869663  0.67293567  1.0
  H  H34  1  0.91869789  0.44714955  0.17293566  1.0
  H  H35  1  0.55285062  0.08130242  0.32706514  1.0
  H  H36  1  0.20190728  0.16486715  0.94326810  1.0
  H  H37  1  0.83513144  0.79809047  0.55673190  1.0
  H  H38  1  0.79809187  0.83513121  0.05673222  1.0
  H  H39  1  0.16486711  0.20191068  0.44326784  1.0
  H  H40  1  0.36269963  0.03239783  0.95440748  1.0
  H  H41  1  0.96760066  0.63729888  0.54559301  1.0
  H  H42  1  0.63730015  0.96760053  0.04559278  1.0
  H  H43  1  0.03239789  0.36270228  0.45440710  1.0
  H  H44  1  0.41585755  0.19748424  0.03967192  1.0
  H  H45  1  0.80251226  0.58414309  0.46032761  1.0
  H  H46  1  0.58414286  0.80251551  0.96032706  1.0
  H  H47  1  0.19748565  0.41585807  0.53967256  1.0
  H  H48  1  0.25433387  0.32864685  0.02989479  1.0
  H  H49  1  0.67135075  0.74566737  0.47010509  1.0
  H  H50  1  0.74566623  0.67135359  0.97010416  1.0
  H  H51  1  0.32864748  0.25433449  0.52989498  1.0
  H  H52  1  0.64466015  0.71883744  0.88693715  1.0
  H  H53  1  0.28116347  0.35533998  0.61306268  1.0
  H  H54  1  0.35533997  0.28116441  0.11306238  1.0
  H  H55  1  0.71883695  0.64465977  0.38693774  1.0
  H  H56  1  0.65496564  0.71476552  0.82227392  1.0
  H  H57  1  0.28523646  0.34503347  0.67772591  1.0
  H  H58  1  0.34503418  0.28523703  0.17772592  1.0
  H  H59  1  0.71476396  0.65496628  0.32227451  1.0
  H  H60  1  0.71327157  0.76888341  0.84680465  1.0
  H  H61  1  0.23111709  0.28672907  0.65319518  1.0
  H  H62  1  0.28672856  0.23111844  0.15319523  1.0
  H  H63  1  0.76888333  0.71327068  0.34680488  1.0
  H  H64  1  0.86489243  0.67498892  0.79781980  1.0
  H  H65  1  0.32501179  0.13510898  0.70218045  1.0
  H  H66  1  0.13510863  0.32501223  0.20217970  1.0
  H  H67  1  0.67498865  0.86489217  0.29782054  1.0
  H  H68  1  0.81876926  0.61056800  0.77210629  1.0
  H  H69  1  0.38943425  0.18123091  0.72789322  1.0
  H  H70  1  0.18123024  0.38943385  0.22789294  1.0
  H  H71  1  0.61056775  0.81876953  0.27210697  1.0
  H  H72  1  0.92400226  0.54837626  0.80239614  1.0
  H  H73  1  0.45162524  0.07599787  0.69760357  1.0
  H  H74  1  0.07599754  0.45162489  0.19760349  1.0
  H  H75  1  0.54837581  0.92400188  0.30239643  1.0
  H  H76  1  0.59659521  0.53186835  0.94530400  1.0
  H  H77  1  0.46813189  0.40340326  0.55469650  1.0
  H  H78  1  0.40340334  0.46813281  0.05469646  1.0
  H  H79  1  0.53186821  0.59659580  0.44530401  1.0
  H  H80  1  0.60351723  0.42075782  0.97566718  1.0
  H  H81  1  0.57924290  0.39648158  0.52433332  1.0
  H  H82  1  0.39648162  0.57924263  0.02433296  1.0
  H  H83  1  0.42075752  0.60351817  0.47566746  1.0
  H  H84  1  0.68923185  0.42295312  0.92600793  1.0
  H  H85  1  0.57704758  0.31076652  0.57399231  1.0
  H  H86  1  0.31076700  0.57704734  0.07399221  1.0
  H  H87  1  0.42295345  0.68923183  0.42600782  1.0
  H  H88  1  0.66607319  0.53197111  0.07068167  1.0
  H  H89  1  0.46802839  0.33392684  0.42931864  1.0
  H  H90  1  0.33392660  0.46802865  0.92931845  1.0
  H  H91  1  0.53197140  0.66607292  0.57068148  1.0
  H  H92  1  0.59136888  0.48299215  0.06074800  1.0
  H  H93  1  0.51700801  0.40863047  0.43925229  1.0
  H  H94  1  0.40863090  0.51700761  0.93925248  1.0
  H  H95  1  0.48299304  0.59136928  0.56074770  1.0
  H  H96  1  0.58268706  0.59212263  0.02641046  1.0
  H  H97  1  0.40787707  0.41731255  0.47358978  1.0
  H  H98  1  0.41731272  0.40787713  0.97359002  1.0
  H  H99  1  0.59212304  0.58268790  0.52641060  1.0
  C  C100  1  0.90777716  0.35964072  0.89411936  1.0
  C  C101  1  0.64036064  0.09222249  0.60587981  1.0
  C  C102  1  0.09222263  0.64035903  0.10588005  1.0
  C  C103  1  0.35964042  0.90777865  0.39411898  1.0
  C  C104  1  0.88921866  0.30660995  0.86160893  1.0
  C  C105  1  0.69339079  0.11078224  0.63839019  1.0
  C  C106  1  0.11078113  0.69338980  0.13839048  1.0
  C  C107  1  0.30660994  0.88921821  0.36160941  1.0
  C  C108  1  0.90621703  0.32200464  0.81066389  1.0
  C  C109  1  0.67799626  0.09378339  0.68933491  1.0
  C  C110  1  0.09378275  0.67799511  0.18933552  1.0
  C  C111  1  0.32200416  0.90621636  0.31066443  1.0
  C  C112  1  0.88321503  0.27810586  0.78008549  1.0
  C  C113  1  0.72189491  0.11678468  0.71991376  1.0
  C  C114  1  0.11678444  0.72189319  0.21991401  1.0
  C  C115  1  0.27810582  0.88321436  0.28008562  1.0
  C  C116  1  0.84250063  0.21754624  0.80044091  1.0
  C  C117  1  0.78245387  0.15750011  0.69955868  1.0
  C  C118  1  0.15749947  0.78245281  0.19955889  1.0
  C  C119  1  0.21754623  0.84249894  0.30044112  1.0
  C  C120  1  0.82780795  0.19997360  0.85134760  1.0
  C  C121  1  0.80002617  0.17219356  0.64865231  1.0
  C  C122  1  0.17219308  0.80002475  0.14865218  1.0
  C  C123  1  0.19997425  0.82780619  0.35134811  1.0
  C  C124  1  0.85112033  0.24431949  0.88175365  1.0
  C  C125  1  0.75568132  0.14888129  0.61824577  1.0
  C  C126  1  0.14888040  0.75567956  0.11824645  1.0
  C  C127  1  0.24432035  0.85111846  0.38175380  1.0
  C  C128  1  0.08513836  0.56964625  0.92024182  1.0
  C  C129  1  0.43035334  0.91486152  0.57975860  1.0
  C  C130  1  0.91485828  0.43035351  0.07975718  1.0
  C  C131  1  0.56964868  0.08514033  0.42024288  1.0
  C  C132  1  0.12309478  0.61295933  0.87570579  1.0
  C  C133  1  0.38704237  0.87690333  0.62429460  1.0
  C  C134  1  0.87690502  0.38704182  0.12429455  1.0
  C  C135  1  0.61295992  0.12309502  0.37570577  1.0
  C  C136  1  0.16527743  0.67033985  0.88007285  1.0
  C  C137  1  0.32966156  0.83472016  0.61992761  1.0
  C  C138  1  0.83472016  0.32966061  0.11992742  1.0
  C  C139  1  0.67034012  0.16527959  0.38007268  1.0
  C  C140  1  0.20003248  0.71030512  0.83881139  1.0
  C  C141  1  0.28969746  0.79996451  0.66118937  1.0
  C  C142  1  0.79996670  0.28969603  0.16119009  1.0
  C  C143  1  0.71030483  0.20003383  0.33881136  1.0
  C  C144  1  0.19295637  0.69294651  0.79225678  1.0
  C  C145  1  0.30705398  0.80704280  0.70774397  1.0
  C  C146  1  0.80704405  0.30705324  0.20774363  1.0
  C  C147  1  0.69294707  0.19295696  0.29225674  1.0
  C  C148  1  0.14963952  0.63676139  0.78783647  1.0
  C  C149  1  0.36323800  0.85036032  0.71216434  1.0
  C  C150  1  0.85036310  0.36323766  0.21216380  1.0
  C  C151  1  0.63676273  0.14963873  0.28783612  1.0
  C  C152  1  0.11504905  0.59692662  0.82932107  1.0
  C  C153  1  0.40307366  0.88495036  0.67067970  1.0
  C  C154  1  0.88495136  0.40307313  0.17067899  1.0
  C  C155  1  0.59692864  0.11504798  0.32932067  1.0
  C  C156  1  0.12270218  0.33001357  0.98001038  1.0
  C  C157  1  0.66998494  0.87729796  0.51998960  1.0
  C  C158  1  0.87729696  0.66998478  0.01998852  1.0
  C  C159  1  0.33001425  0.12270459  0.48001102  1.0
  C  C160  1  0.21887239  0.25358558  0.98631165  1.0
  C  C161  1  0.74641133  0.78112872  0.51368814  1.0
  C  C162  1  0.78112801  0.74641276  0.01368747  1.0
  C  C163  1  0.25358753  0.21887313  0.48631151  1.0
  C  C164  1  0.24962008  0.17035415  0.96458806  1.0
  C  C165  1  0.82964532  0.75037974  0.53541204  1.0
  C  C166  1  0.75038032  0.82964420  0.03541142  1.0
  C  C167  1  0.17035354  0.24962212  0.46458797  1.0
  C  C168  1  0.33798660  0.09760917  0.97057822  1.0
  C  C169  1  0.90238804  0.66201199  0.52942162  1.0
  C  C170  1  0.66201285  0.90238849  0.02942143  1.0
  C  C171  1  0.09760987  0.33798917  0.47057855  1.0
  C  C172  1  0.39744031  0.10793804  0.99828868  1.0
  C  C173  1  0.89206115  0.60255998  0.50171082  1.0
  C  C174  1  0.60256041  0.89206100  0.00171034  1.0
  C  C175  1  0.10793708  0.39744188  0.49828889  1.0
  C  C176  1  0.36738637  0.19182507  0.01894565  1.0
  C  C177  1  0.80817328  0.63261473  0.48105397  1.0
  C  C178  1  0.63261498  0.80817398  0.98105295  1.0
  C  C179  1  0.19182559  0.36738712  0.51894639  1.0
  C  C180  1  0.27836310  0.26408423  0.01339335  1.0
  C  C181  1  0.73591217  0.72163813  0.48660670  1.0
  C  C182  1  0.72163793  0.73591412  0.98660607  1.0
  C  C183  1  0.26408607  0.27836373  0.51339336  1.0
  C  C184  1  0.69083103  0.71291087  0.85281570  1.0
  C  C185  1  0.28709060  0.30916879  0.64718413  1.0
  C  C186  1  0.30916816  0.28709168  0.14718420  1.0
  C  C187  1  0.71290952  0.69083166  0.35281624  1.0
  C  C188  1  0.85624973  0.61054175  0.80146747  1.0
  C  C189  1  0.38945958  0.14375116  0.69853244  1.0
  C  C190  1  0.14374976  0.38946010  0.19853247  1.0
  C  C191  1  0.61054116  0.85624929  0.30146823  1.0
  C  C192  1  0.64340233  0.45891044  0.95713843  1.0
  C  C193  1  0.54108998  0.35659569  0.54286182  1.0
  C  C194  1  0.35659589  0.54109001  0.04286178  1.0
  C  C195  1  0.45891044  0.64340406  0.45713859  1.0
  C  C196  1  0.62966379  0.52348601  0.04345753  1.0
  C  C197  1  0.47651328  0.37033653  0.45654240  1.0
  C  C198  1  0.37033663  0.47651374  0.95654253  1.0
  C  C199  1  0.52348620  0.62966392  0.54345768  1.0
  S  S200  1  0.79128963  0.60004570  0.85947561  1.0
  S  S201  1  0.39995578  0.20870980  0.64052405  1.0
  S  S202  1  0.20871017  0.39995545  0.14052402  1.0
  S  S203  1  0.60004464  0.79128996  0.35947601  1.0
  S  S204  1  0.71960371  0.45743471  0.99821362  1.0
  S  S205  1  0.54256518  0.28039565  0.50178696  1.0
  S  S206  1  0.28039608  0.54256504  0.00178650  1.0
  S  S207  1  0.45743492  0.71960340  0.49821356  1.0
  N  N208  1  0.80919327  0.17547593  0.77292855  1.0
  N  N209  1  0.82452377  0.19080723  0.72707074  1.0
  N  N210  1  0.19080744  0.82452172  0.22707132  1.0
  N  N211  1  0.17547601  0.80919112  0.27292916  1.0
  N  N212  1  0.22717807  0.72790231  0.74778152  1.0
  N  N213  1  0.27209734  0.77282171  0.75221961  1.0
  N  N214  1  0.77282359  0.27209603  0.25221855  1.0
  N  N215  1  0.72790402  0.22717734  0.24778078  1.0
  N  N216  1  0.48817320  0.03913559  0.00760694  1.0
  N  N217  1  0.96086233  0.51182784  0.49239292  1.0
  N  N218  1  0.51182783  0.96086276  0.99239248  1.0
  N  N219  1  0.03913622  0.48817331  0.50760719  1.0
  O  O220  1  0.94211377  0.41663830  0.87497460  1.0
  O  O221  1  0.58336215  0.05788655  0.62502493  1.0
  O  O222  1  0.05788539  0.58336146  0.12502487  1.0
  O  O223  1  0.41663673  0.94211670  0.37497422  1.0
  O  O224  1  0.88579908  0.34922766  0.93997878  1.0
  O  O225  1  0.65077318  0.11420075  0.56002041  1.0
  O  O226  1  0.11420070  0.65077209  0.06002063  1.0
  O  O227  1  0.34922788  0.88580040  0.43997873  1.0
  O  O228  1  0.09803808  0.58229385  0.96167215  1.0
  O  O229  1  0.41770409  0.90196271  0.53832834  1.0
  O  O230  1  0.90196045  0.41770592  0.03832916  1.0
  O  O231  1  0.58229633  0.09803704  0.46167136  1.0
  O  O232  1  0.04343256  0.52340792  0.91282632  1.0
  O  O233  1  0.47659026  0.95656809  0.58717418  1.0
  O  O234  1  0.95656850  0.47659323  0.08717354  1.0
  O  O235  1  0.52340888  0.04343027  0.41282615  1.0
  O  O236  1  0.09188279  0.40335601  0.00249931  1.0
  O  O237  1  0.59664195  0.90811662  0.49750164  1.0
  O  O238  1  0.90811637  0.59664375  0.99750159  1.0
  O  O239  1  0.40335597  0.09188454  0.50249817  1.0
  O  O240  1  0.07324286  0.32104758  0.95238778  1.0
  O  O241  1  0.67895291  0.92675441  0.54761261  1.0
  O  O242  1  0.92675724  0.67895147  0.04761238  1.0
  O  O243  1  0.32104625  0.07324534  0.45238685  1.0
  O  O244  1  0.84328393  0.60902476  0.89721751  1.0
  O  O245  1  0.39097572  0.15671547  0.60278228  1.0
  O  O246  1  0.15671554  0.39097570  0.10278222  1.0
  O  O247  1  0.60902376  0.84328499  0.39721780  1.0
  O  O248  1  0.75763137  0.52524843  0.97182520  1.0
  O  O249  1  0.47475183  0.24236751  0.52817430  1.0
  O  O250  1  0.24236779  0.47475132  0.02817427  1.0
  O  O251  1  0.52524765  0.75763294  0.47182579  1.0
