# generated using pymatgen
data_Al6H69C85ClO28
_symmetry_space_group_name_H-M   'P 1'
_cell_length_a   12.61195106
_cell_length_b   12.74597577
_cell_length_c   28.48972726
_cell_angle_alpha   89.29779657
_cell_angle_beta   89.23798681
_cell_angle_gamma   60.50195138
_symmetry_Int_Tables_number   1
_chemical_formula_structural   Al6H69C85ClO28
_chemical_formula_sum   'Al6 H69 C85 Cl1 O28'
_cell_volume   3985.66738570
_cell_formula_units_Z   1
loop_
 _symmetry_equiv_pos_site_id
 _symmetry_equiv_pos_as_xyz
  1  'x, y, z'
loop_
 _atom_site_type_symbol
 _atom_site_label
 _atom_site_symmetry_multiplicity
 _atom_site_fract_x
 _atom_site_fract_y
 _atom_site_fract_z
 _atom_site_occupancy
  Al  Al0  1  0.59318135  0.59174469  0.49778172  1.0
  Al  Al1  1  0.34326778  0.58175856  0.50006358  1.0
  Al  Al2  1  0.57830908  0.34732068  0.50020489  1.0
  Al  Al3  1  0.07755637  0.06991885  0.99771640  1.0
  Al  Al4  1  0.08375159  0.31902523  0.99968176  1.0
  Al  Al5  1  0.32289871  0.08845149  0.99889058  1.0
  H  H6  1  0.39555539  0.44584070  0.20570438  1.0
  H  H7  1  0.86962426  0.48214467  0.21212934  1.0
  H  H8  1  0.51982747  0.72427126  0.20332488  1.0
  H  H9  1  0.20154201  0.54363098  0.27255269  1.0
  H  H10  1  0.52330237  0.70216988  0.28406740  1.0
  H  H11  1  0.27515514  0.00809533  0.30233943  1.0
  H  H12  1  0.43446426  0.91380198  0.29891237  1.0
  H  H13  1  0.42831683  0.94851602  0.21771729  1.0
  H  H14  1  0.26876247  0.04240138  0.22109648  1.0
  H  H15  1  0.19243886  0.76848961  0.28378324  1.0
  H  H16  1  0.13598751  0.92366550  0.29174412  1.0
  H  H17  1  0.99274324  0.15224505  0.29977663  1.0
  H  H18  1  0.19775278  0.79145583  0.20199098  1.0
  H  H19  1  0.42257460  0.66223632  0.19768001  1.0
  H  H20  1  0.53700337  0.25637625  0.26977870  1.0
  H  H21  1  0.13025047  0.94822905  0.20982537  1.0
  H  H22  1  0.51478803  0.21758766  0.79457573  1.0
  H  H23  1  0.53331821  0.24173550  0.71382555  1.0
  H  H24  1  0.22899650  0.26328372  0.69867768  1.0
  H  H25  1  0.38688861  0.16236423  0.70447450  1.0
  H  H26  1  0.35728908  0.15228369  0.78488978  1.0
  H  H27  1  0.20192679  0.26215318  0.78006102  1.0
  H  H28  1  0.01917756  0.14380794  0.21804833  1.0
  H  H29  1  0.24874068  0.54483221  0.71388687  1.0
  H  H30  1  0.14758998  0.48784740  0.70846055  1.0
  H  H31  1  0.24493246  0.52942748  0.79592543  1.0
  H  H32  1  0.44288486  0.11681432  0.23065223  1.0
  H  H33  1  0.47743436  0.39772844  0.72096257  1.0
  H  H34  1  0.47014070  0.37121302  0.80225873  1.0
  H  H35  1  0.13463269  0.48363284  0.79054979  1.0
  H  H36  1  0.75914395  0.52340446  0.79185096  1.0
  H  H37  1  0.72835872  0.52908773  0.71067830  1.0
  H  H38  1  0.01119817  0.23180887  0.69733133  1.0
  H  H39  1  0.04810564  0.26552210  0.22021628  1.0
  H  H40  1  0.95239689  0.38947602  0.69728997  1.0
  H  H41  1  0.98388575  0.38291531  0.77845756  1.0
  H  H42  1  0.04195614  0.22534568  0.77841237  1.0
  H  H43  1  0.71335453  0.24228635  0.71930628  1.0
  H  H44  1  0.24934196  0.21389209  0.29718432  1.0
  H  H45  1  0.87056389  0.14556483  0.71063390  1.0
  H  H46  1  0.74280218  0.23789945  0.80052851  1.0
  H  H47  1  0.62827551  0.47091212  0.71968145  1.0
  H  H48  1  0.65954642  0.46462577  0.80091205  1.0
  H  H49  1  0.89985393  0.13990555  0.79210653  1.0
  H  H50  1  0.69556011  0.51476914  0.28713462  1.0
  H  H51  1  0.22546686  0.77407057  0.80181125  1.0
  H  H52  1  0.21487439  0.75408839  0.72039376  1.0
  H  H53  1  0.27842458  0.00724898  0.69611224  1.0
  H  H54  1  0.16080837  0.97033696  0.70157698  1.0
  H  H55  1  0.15687382  0.99131831  0.78348081  1.0
  H  H56  1  0.10746139  0.40431049  0.23349311  1.0
  H  H57  1  0.26347567  0.04216080  0.77696957  1.0
  H  H58  1  0.53750537  0.69512316  0.71080033  1.0
  H  H59  1  0.49770756  0.84659674  0.69973055  1.0
  H  H60  1  0.53575458  0.72715071  0.79109152  1.0
  H  H61  1  0.84529003  0.48763981  0.29413933  1.0
  H  H62  1  0.36887068  0.63910241  0.72078962  1.0
  H  H63  1  0.38184563  0.66657054  0.80131093  1.0
  H  H64  1  0.80594357  0.18051065  0.20619645  1.0
  H  H65  1  0.77943289  0.18729564  0.28804373  1.0
  H  H66  1  0.01906630  0.27611544  0.30189882  1.0
  H  H67  1  0.35773291  0.59213230  0.27061543  1.0
  H  H68  1  0.51740356  0.51486977  0.26219422  1.0
  H  H69  1  0.45479327  0.56699129  0.31918780  1.0
  H  H70  1  0.72078945  0.50582529  0.20527879  1.0
  H  H71  1  0.65637926  0.33547417  0.28322980  1.0
  H  H72  1  0.68309760  0.32900931  0.20143223  1.0
  H  H73  1  0.66768952  0.71769101  0.52238733  1.0
  H  H74  1  0.98170692  0.96402593  0.02587842  1.0
  C  C75  1  0.38057483  0.71797988  0.43233971  1.0
  C  C76  1  0.34790180  0.35730138  0.34739532  1.0
  C  C77  1  0.75219679  0.27707868  0.27333560  1.0
  C  C78  1  0.38739067  0.39630523  0.43494055  1.0
  C  C79  1  0.96450519  0.24198837  0.28481673  1.0
  C  C80  1  0.98267113  0.23626178  0.23088062  1.0
  C  C81  1  0.90190373  0.30060855  0.11370202  1.0
  C  C82  1  0.82871768  0.32645440  0.29692766  1.0
  C  C83  1  0.76984081  0.27257680  0.21947244  1.0
  C  C84  1  0.85978270  0.31782177  0.20589300  1.0
  C  C85  1  0.80760762  0.44887249  0.22315539  1.0
  C  C86  1  0.36179203  0.37012462  0.38885208  1.0
  C  C87  1  0.79059935  0.45378611  0.27702135  1.0
  C  C88  1  0.88060536  0.31031663  0.15561081  1.0
  C  C89  1  0.80636932  0.33398530  0.34709922  1.0
  C  C90  1  0.72322928  0.37726853  0.43424582  1.0
  C  C91  1  0.77898362  0.34633510  0.38848717  1.0
  C  C92  1  0.43981123  0.70731617  0.27017722  1.0
  C  C93  1  0.34781979  0.92987944  0.28396577  1.0
  C  C94  1  0.34373486  0.95264294  0.23041846  1.0
  C  C95  1  0.31668682  0.89927441  0.11198447  1.0
  C  C96  1  0.33194484  0.81886161  0.29460901  1.0
  C  C97  1  0.20316502  0.37111201  0.24185322  1.0
  C  C98  1  0.43454696  0.73060824  0.21644931  1.0
  C  C99  1  0.32717546  0.85618608  0.20399824  1.0
  C  C100  1  0.20731964  0.86131253  0.22062439  1.0
  C  C101  1  0.20852258  0.84331968  0.27437752  1.0
  C  C102  1  0.37886314  0.71958030  0.56549195  1.0
  C  C103  1  0.32369469  0.87794829  0.15385627  1.0
  C  C104  1  0.33726696  0.79654440  0.34475626  1.0
  C  C105  1  0.34798762  0.77133595  0.38631841  1.0
  C  C106  1  0.45858814  0.32397506  0.72921573  1.0
  C  C107  1  0.31120835  0.24777920  0.71736991  1.0
  C  C108  1  0.31059761  0.31646168  0.20424770  1.0
  C  C109  1  0.29471466  0.24253675  0.77110968  1.0
  C  C110  1  0.29875048  0.30830125  0.88850447  1.0
  C  C111  1  0.33804135  0.35114382  0.70502270  1.0
  C  C112  1  0.44944284  0.30942910  0.78292696  1.0
  C  C113  1  0.31942339  0.33554220  0.79639023  1.0
  C  C114  1  0.38901365  0.39190411  0.56545825  1.0
  C  C115  1  0.22610361  0.46340721  0.77892743  1.0
  C  C116  1  0.23319687  0.47059949  0.72476697  1.0
  C  C117  1  0.30862701  0.32285710  0.84671210  1.0
  C  C118  1  0.35035411  0.36023533  0.65456856  1.0
  C  C119  1  0.28156307  0.26548861  0.27642229  1.0
  C  C120  1  0.36275543  0.36920448  0.61252337  1.0
  C  C121  1  0.71994913  0.45551480  0.72754467  1.0
  C  C122  1  0.94364430  0.31602713  0.71412926  1.0
  C  C123  1  0.96414813  0.31182263  0.76769343  1.0
  C  C124  1  0.89774982  0.31293774  0.88637140  1.0
  C  C125  1  0.81479610  0.33517459  0.70453252  1.0
  C  C126  1  0.71431760  0.38546634  0.56695209  1.0
  C  C127  1  0.74040642  0.45165430  0.78106300  1.0
  C  C128  1  0.84966686  0.32847273  0.79504382  1.0
  C  C129  1  0.82323252  0.22670041  0.78087093  1.0
  C  C130  1  0.33428026  0.34391272  0.29889465  1.0
  C  C131  1  0.80357400  0.23018646  0.72731483  1.0
  C  C132  1  0.87303031  0.32270654  0.84492555  1.0
  C  C133  1  0.79152584  0.34269274  0.65458237  1.0
  C  C134  1  0.76556141  0.35478642  0.61322690  1.0
  C  C135  1  0.30677357  0.73288846  0.73101293  1.0
  C  C136  1  0.25062498  0.94883979  0.71495202  1.0
  C  C137  1  0.24639263  0.96820306  0.76851075  1.0
  C  C138  1  0.25540167  0.44872592  0.26281944  1.0
  C  C139  1  0.32354500  0.90061151  0.88507296  1.0
  C  C140  1  0.34301548  0.81600552  0.70335800  1.0
  C  C141  1  0.38937811  0.21166916  0.24030594  1.0
  C  C142  1  0.31259464  0.74984184  0.78434943  1.0
  C  C143  1  0.34263239  0.85222742  0.79376256  1.0
  C  C144  1  0.47092371  0.80964482  0.77260696  1.0
  C  C145  1  0.47094521  0.78873974  0.71942745  1.0
  C  C146  1  0.33704415  0.87538741  0.84367453  1.0
  C  C147  1  0.34613302  0.79347661  0.65348558  1.0
  C  C148  1  0.35336106  0.76924306  0.61205557  1.0
  C  C149  1  0.94934560  0.27427809  0.06655028  1.0
  C  C150  1  0.36324551  0.39473601  0.22670142  1.0
  C  C151  1  0.26845891  0.27467237  0.06587790  1.0
  C  C152  1  0.44159346  0.28921371  0.26124716  1.0
  C  C153  1  0.29063151  0.94665167  0.06491397  1.0
  C  C154  1  0.94856764  0.28411977  0.93271415  1.0
  C  C155  1  0.27517963  0.27941100  0.93499941  1.0
  C  C156  1  0.29060717  0.95173810  0.93133011  1.0
  C  C157  1  0.29065474  0.29594855  0.11323301  1.0
  C  C158  1  0.44247086  0.58880777  0.28155806  1.0
  C  C159  1  0.29977712  0.30501248  0.15540454  1.0
  Cl  Cl160  1  0.52447458  0.91450275  0.78448897  1.0
  O  O161  1  0.70068091  0.47754550  0.45081216  1.0
  O  O162  1  0.34915055  0.17820225  0.04606327  1.0
  O  O163  1  0.36884505  0.97146253  0.04549267  1.0
  O  O164  1  0.48726434  0.68604663  0.44562807  1.0
  O  O165  1  0.18646631  0.97628662  0.94633479  1.0
  O  O166  1  0.97271500  0.18279570  0.94947130  1.0
  O  O167  1  0.96997694  0.36267451  0.95223644  1.0
  O  O168  1  0.17437503  0.35416394  0.95456619  1.0
  O  O169  1  0.35390061  0.17793097  0.95250309  1.0
  O  O170  1  0.36823918  0.97247542  0.95238413  1.0
  O  O171  1  0.16253977  0.16009199  0.99903271  1.0
  O  O172  1  0.31142764  0.49046185  0.54580448  1.0
  O  O173  1  0.30010331  0.70249132  0.45519658  1.0
  O  O174  1  0.31094358  0.49843345  0.45246894  1.0
  O  O175  1  0.48700528  0.31871443  0.45410509  1.0
  O  O176  1  0.69580377  0.30122409  0.45340002  1.0
  O  O177  1  0.68713433  0.48880027  0.55141596  1.0
  O  O178  1  0.47733487  0.70114069  0.54631957  1.0
  O  O179  1  0.30094807  0.69313192  0.54828036  1.0
  O  O180  1  0.49131200  0.31460981  0.54749357  1.0
  O  O181  1  0.69605228  0.30638020  0.54616044  1.0
  O  O182  1  0.50368037  0.50611160  0.49967763  1.0
  O  O183  1  0.19157011  0.96514905  0.04730993  1.0
  O  O184  1  0.97744922  0.17174007  0.05063614  1.0
  O  O185  1  0.96405500  0.35628173  0.04528895  1.0
  O  O186  1  0.16650548  0.35127388  0.04786102  1.0
  O  O187  1  0.67515951  0.66949648  0.49531067  1.0
  O  O188  1  0.00019005  0.98773566  0.99588589  1.0
