# generated using pymatgen
data_Zn4H24C42O13
_symmetry_space_group_name_H-M   'P 1'
_cell_length_a   24.28201221
_cell_length_b   24.40917360
_cell_length_c   24.43779914
_cell_angle_alpha   60.62470734
_cell_angle_beta   60.54313567
_cell_angle_gamma   60.51875388
_symmetry_Int_Tables_number   1
_chemical_formula_structural   Zn4H24C42O13
_chemical_formula_sum   'Zn8 H48 C84 O26'
_cell_volume   10372.06069535
_cell_formula_units_Z   2
loop_
 _symmetry_equiv_pos_site_id
 _symmetry_equiv_pos_as_xyz
  1  'x, y, z'
loop_
 _atom_site_type_symbol
 _atom_site_label
 _atom_site_symmetry_multiplicity
 _atom_site_fract_x
 _atom_site_fract_y
 _atom_site_fract_z
 _atom_site_occupancy
  Zn  Zn0  1  0.96261044  0.10771048  0.95945258  1.0
  Zn  Zn1  1  0.96143604  0.97847463  0.95681811  1.0
  Zn  Zn2  1  0.96064750  0.97773613  0.08870135  1.0
  Zn  Zn3  1  0.09260318  0.97691892  0.96065485  1.0
  Zn  Zn4  1  0.52789710  0.41272559  0.52263188  1.0
  Zn  Zn5  1  0.52730999  0.54457640  0.52312197  1.0
  Zn  Zn6  1  0.39599931  0.54243867  0.52544445  1.0
  Zn  Zn7  1  0.52561920  0.54116625  0.39409615  1.0
  H  H8  1  0.87411569  0.24574480  0.81099621  1.0
  H  H9  1  0.80473325  0.31818424  0.73679813  1.0
  H  H10  1  0.74380473  0.15442955  0.79141195  1.0
  H  H11  1  0.81611762  0.08179110  0.86273970  1.0
  H  H12  1  0.74693720  0.20634039  0.68335929  1.0
  H  H13  1  0.67360734  0.27836790  0.61302256  1.0
  H  H14  1  0.62572640  0.44540093  0.66403255  1.0
  H  H15  1  0.69659834  0.37348185  0.73684127  1.0
  H  H16  1  0.81929468  0.24488760  0.05980145  1.0
  H  H17  1  0.74687556  0.31642800  0.13180760  1.0
  H  H18  1  0.79902880  0.14879844  0.29867132  1.0
  H  H19  1  0.86877072  0.07719395  0.22669637  1.0
  H  H20  1  0.69104674  0.20265576  0.35056443  1.0
  H  H21  1  0.61983176  0.27452235  0.42231758  1.0
  H  H22  1  0.67462781  0.44049826  0.25748836  1.0
  H  H23  1  0.74898559  0.36834807  0.18613826  1.0
  H  H24  1  0.06508318  0.24329269  0.86798477  1.0
  H  H25  1  0.13690602  0.31524421  0.79538299  1.0
  H  H26  1  0.30213912  0.14890518  0.73774005  1.0
  H  H27  1  0.23052514  0.07686345  0.81301037  1.0
  H  H28  1  0.35676566  0.20274493  0.73999836  1.0
  H  H29  1  0.42833115  0.27497522  0.66691302  1.0
  H  H30  1  0.25995814  0.44000080  0.61506204  1.0
  H  H31  1  0.18852020  0.36760188  0.68516811  1.0
  H  H32  1  0.86913113  0.83112739  0.05557923  1.0
  H  H33  1  0.79979789  0.75670095  0.12731317  1.0
  H  H34  1  0.74339842  0.81471666  0.29323852  1.0
  H  H35  1  0.81530944  0.88655535  0.22160462  1.0
  H  H36  1  0.74952005  0.70476271  0.34554794  1.0
  H  H37  1  0.67533293  0.63525350  0.41892663  1.0
  H  H38  1  0.61800954  0.68581464  0.25515876  1.0
  H  H39  1  0.68928147  0.75828489  0.18188639  1.0
  H  H40  1  0.06348546  0.88410993  0.81322472  1.0
  H  H41  1  0.13575217  0.81281032  0.74096026  1.0
  H  H42  1  0.30236350  0.75843217  0.79844305  1.0
  H  H43  1  0.23016247  0.83209980  0.86834884  1.0
  H  H44  1  0.35591688  0.76063987  0.68970464  1.0
  H  H45  1  0.42775215  0.68783536  0.61888528  1.0
  H  H46  1  0.26025082  0.63390038  0.67091121  1.0
  H  H47  1  0.18865425  0.70389398  0.74450605  1.0
  H  H48  1  0.05898084  0.83165936  0.22781743  1.0
  H  H49  1  0.13006462  0.75801872  0.30038423  1.0
  H  H50  1  0.29839445  0.81383111  0.13723166  1.0
  H  H51  1  0.22740003  0.88487021  0.06453653  1.0
  H  H52  1  0.35067036  0.70471980  0.18844021  1.0
  H  H53  1  0.42287348  0.63329938  0.25995522  1.0
  H  H54  1  0.25630513  0.68505819  0.42709089  1.0
  H  H55  1  0.18394874  0.75865610  0.35575407  1.0
  C  C56  1  0.89193664  0.11563562  0.88511295  1.0
  C  C57  1  0.84954684  0.15925628  0.84128285  1.0
  C  C58  1  0.84545347  0.22625473  0.80616413  1.0
  C  C59  1  0.80607877  0.26667274  0.76520991  1.0
  C  C60  1  0.76913979  0.24162397  0.75864558  1.0
  C  C61  1  0.77335295  0.17441588  0.79441645  1.0
  C  C62  1  0.81317228  0.13369983  0.83490610  1.0
  C  C63  1  0.72695773  0.28454770  0.71556739  1.0
  C  C64  1  0.71961090  0.25846619  0.68028372  1.0
  C  C65  1  0.67916829  0.29856152  0.64041171  1.0
  C  C66  1  0.64520880  0.36619110  0.63429890  1.0
  C  C67  1  0.65257843  0.39291195  0.66872155  1.0
  C  C68  1  0.69274669  0.35253416  0.70890241  1.0
  C  C69  1  0.60133388  0.40896019  0.59199283  1.0
  C  C70  1  0.89074171  0.11375212  0.09582252  1.0
  C  C71  1  0.84831542  0.15671993  0.13890003  1.0
  C  C72  1  0.81438465  0.22444182  0.11225221  1.0
  C  C73  1  0.77448849  0.26427631  0.15262151  1.0
  C  C74  1  0.76774103  0.23782117  0.22048518  1.0
  C  C75  1  0.80234277  0.16988577  0.24658818  1.0
  C  C76  1  0.84187129  0.12975236  0.20650725  1.0
  C  C77  1  0.72519769  0.28029773  0.26312108  1.0
  C  C78  1  0.68868845  0.25444898  0.33026753  1.0
  C  C79  1  0.64830044  0.29450151  0.37042714  1.0
  C  C80  1  0.64273193  0.36188845  0.34421221  1.0
  C  C81  1  0.67882262  0.38822928  0.27735035  1.0
  C  C82  1  0.71974123  0.34782293  0.23755213  1.0
  C  C83  1  0.59884281  0.40511478  0.38701928  1.0
  C  C84  1  0.10035121  0.11257832  0.88934771  1.0
  C  C85  1  0.14346126  0.15565087  0.84511724  1.0
  C  C86  1  0.11715920  0.22316896  0.83926898  1.0
  C  C87  1  0.15737091  0.26327842  0.79811594  1.0
  C  C88  1  0.22479371  0.23729764  0.76127331  1.0
  C  C89  1  0.25052493  0.16958391  0.76717311  1.0
  C  C90  1  0.21059443  0.12919400  0.80871175  1.0
  C  C91  1  0.26740979  0.27994389  0.71795701  1.0
  C  C92  1  0.33558510  0.25440889  0.71167098  1.0
  C  C93  1  0.37566860  0.29467310  0.67142643  1.0
  C  C94  1  0.34837763  0.36190047  0.63686572  1.0
  C  C95  1  0.28054092  0.38787255  0.64264277  1.0
  C  C96  1  0.24075909  0.34731528  0.68241022  1.0
  C  C97  1  0.39108427  0.40539445  0.59456717  1.0
  C  C98  1  0.88899764  0.90710750  0.09166901  1.0
  C  C99  1  0.84654475  0.86331094  0.13423789  1.0
  C  C100  1  0.84135859  0.82707923  0.10777449  1.0
  C  C101  1  0.80206171  0.78597644  0.14799842  1.0
  C  C102  1  0.76652355  0.78024209  0.21556089  1.0
  C  C103  1  0.77187107  0.81710319  0.24145821  1.0
  C  C104  1  0.81142496  0.85787354  0.20153118  1.0
  C  C105  1  0.72440701  0.73705962  0.25846100  1.0
  C  C106  1  0.71974314  0.70187403  0.32575321  1.0
  C  C107  1  0.67887305  0.66245349  0.36687560  1.0
  C  C108  1  0.64198678  0.65652372  0.34157559  1.0
  C  C109  1  0.64698401  0.69053711  0.27437258  1.0
  C  C110  1  0.68741218  0.73046319  0.23353055  1.0
  C  C111  1  0.59782508  0.61450305  0.38578371  1.0
  C  C112  1  0.09908647  0.90590315  0.88781614  1.0
  C  C113  1  0.14242047  0.86247189  0.84516063  1.0
  C  C114  1  0.11592233  0.85630589  0.80957572  1.0
  C  C115  1  0.15642272  0.81593791  0.76972198  1.0
  C  C116  1  0.22430740  0.78036780  0.76452644  1.0
  C  C117  1  0.25029663  0.78679900  0.80059393  1.0
  C  C118  1  0.21005599  0.82738630  0.84022602  1.0
  C  C119  1  0.26705395  0.73757276  0.72218308  1.0
  C  C120  1  0.33501948  0.73196049  0.68671343  1.0
  C  C121  1  0.37523544  0.69187662  0.64656308  1.0
  C  C122  1  0.34831697  0.65665039  0.64038996  1.0
  C  C123  1  0.28064318  0.66186372  0.67552485  1.0
  C  C124  1  0.24073435  0.70154499  0.71605083  1.0
  C  C125  1  0.39108349  0.61413462  0.59681620  1.0
  C  C126  1  0.09651796  0.90569343  0.09786442  1.0
  C  C127  1  0.13890438  0.86256122  0.14168923  1.0
  C  C128  1  0.11156471  0.82725562  0.20853638  1.0
  C  C129  1  0.15142561  0.78663224  0.24901020  1.0
  C  C130  1  0.21951068  0.78044570  0.22406912  1.0
  C  C131  1  0.24622652  0.81654165  0.15706781  1.0
  C  C132  1  0.20665992  0.85683352  0.11633251  1.0
  C  C133  1  0.26204929  0.73714290  0.26678675  1.0
  C  C134  1  0.32993964  0.70151751  0.24049496  1.0
  C  C135  1  0.37042810  0.66107513  0.28030137  1.0
  C  C136  1  0.34396079  0.65487996  0.34781196  1.0
  C  C137  1  0.27631519  0.68980862  0.37469674  1.0
  C  C138  1  0.23603044  0.73044985  0.33464387  1.0
  C  C139  1  0.38753690  0.61174709  0.39038463  1.0
  O  O140  1  0.99436996  0.01007648  0.99122703  1.0
  O  O141  1  0.89933790  0.05353130  0.90962300  1.0
  O  O142  1  0.91745640  0.14386679  0.89469489  1.0
  O  O143  1  0.57582200  0.47114478  0.58446464  1.0
  O  O144  1  0.59264707  0.37979789  0.56681429  1.0
  O  O145  1  0.91529885  0.05140296  0.12457041  1.0
  O  O146  1  0.89914799  0.14267774  0.03360851  1.0
  O  O147  1  0.58926371  0.46760463  0.35813763  1.0
  O  O148  1  0.57420074  0.37631664  0.44922062  1.0
  O  O149  1  0.12916250  0.05018697  0.89787033  1.0
  O  O150  1  0.03800326  0.14153417  0.91520871  1.0
  O  O151  1  0.36128078  0.46777855  0.57151706  1.0
  O  O152  1  0.45400031  0.37676965  0.58493388  1.0
  O  O153  1  0.89656586  0.93286297  0.12113230  1.0
  O  O154  1  0.91440915  0.91536382  0.02938948  1.0
  O  O155  1  0.57218787  0.60469889  0.35787443  1.0
  O  O156  1  0.58913409  0.59178829  0.44796845  1.0
  O  O157  1  0.12777241  0.91331751  0.91460247  1.0
  O  O158  1  0.03678458  0.93221192  0.89417030  1.0
  O  O159  1  0.36164623  0.58897671  0.58830703  1.0
  O  O160  1  0.45369539  0.60625682  0.57138417  1.0
  O  O161  1  0.12621864  0.93111882  0.03608449  1.0
  O  O162  1  0.03385524  0.91379078  0.12553077  1.0
  O  O163  1  0.35950426  0.60532634  0.45225926  1.0
  O  O164  1  0.44955572  0.58466122  0.36152086  1.0
  O  O165  1  0.49421735  0.51033196  0.49155776  1.0
