# generated using pymatgen
data_AlHC7N3O11
_symmetry_space_group_name_H-M   'P 1'
_cell_length_a   7.02127822
_cell_length_b   16.19007246
_cell_length_c   19.28792177
_cell_angle_alpha   76.03392981
_cell_angle_beta   79.51551486
_cell_angle_gamma   77.48736873
_symmetry_Int_Tables_number   1
_chemical_formula_structural   AlHC7N3O11
_chemical_formula_sum   'Al4 H4 C28 N12 O44'
_cell_volume   2057.65068891
_cell_formula_units_Z   4
loop_
 _symmetry_equiv_pos_site_id
 _symmetry_equiv_pos_as_xyz
  1  'x, y, z'
loop_
 _atom_site_type_symbol
 _atom_site_label
 _atom_site_symmetry_multiplicity
 _atom_site_fract_x
 _atom_site_fract_y
 _atom_site_fract_z
 _atom_site_occupancy
  Al  Al0  1  0.38746897  0.24997365  0.75177380  1.0
  Al  Al1  1  0.61253681  0.75002544  0.24821202  1.0
  Al  Al2  1  0.88922385  0.25003289  0.74819879  1.0
  Al  Al3  1  0.11078789  0.74996247  0.25179592  1.0
  H  H32  1  0.09427637  0.36464149  0.72405304  1.0
  H  H33  1  0.90574686  0.63536053  0.27592056  1.0
  H  H34  1  0.68300903  0.13536035  0.77602920  1.0
  H  H35  1  0.31699456  0.86463713  0.22397968  1.0
  C  C4  1  0.22878664  0.15487204  0.66950233  1.0
  C  C5  1  0.77122058  0.84511622  0.33049996  1.0
  C  C6  1  0.55343697  0.34527880  0.83038180  1.0
  C  C7  1  0.44656877  0.65471435  0.16961003  1.0
  C  C8  1  0.13060085  0.14877349  0.86146172  1.0
  C  C9  1  0.86936959  0.85124729  0.13854461  1.0
  C  C10  1  0.64083632  0.35115738  0.63845845  1.0
  C  C11  1  0.35919175  0.64883084  0.36153067  1.0
  C  C12  1  0.64809489  0.41572107  0.56724795  1.0
  C  C13  1  0.35193136  0.58425848  0.43274208  1.0
  C  C14  1  0.13124663  0.08420419  0.93267822  1.0
  C  C15  1  0.86870877  0.91584331  0.06734003  1.0
  C  C16  1  0.49863175  0.46619110  0.53250187  1.0
  C  C17  1  0.50138468  0.53379116  0.46748799  1.0
  C  C18  1  0.99743771  0.03377968  0.96748241  1.0
  C  C19  1  0.00252486  0.96625407  0.03252953  1.0
  C  C20  1  0.50921201  0.39277948  0.88733575  1.0
  C  C21  1  0.49079378  0.60721315  0.11265649  1.0
  C  C22  1  0.28909736  0.10752097  0.61243797  1.0
  C  C23  1  0.71093517  0.89245925  0.38755879  1.0
  C  C24  1  0.44068635  0.47638732  0.99173017  1.0
  C  C25  1  0.55930840  0.52359367  0.00826730  1.0
  C  C26  1  0.40891489  0.02368280  0.50821841  1.0
  C  C27  1  0.59110365  0.97634337  0.49177178  1.0
  C  C28  1  0.51891128  0.56881546  0.06358894  1.0
  C  C29  1  0.48107301  0.43116904  0.93641170  1.0
  C  C30  1  0.65108776  0.93096052  0.43653829  1.0
  C  C31  1  0.34892406  0.06904349  0.56344760  1.0
  N  N36  1  0.69525327  0.55523456  0.42872749  1.0
  N  N37  1  0.30477851  0.44474757  0.57126313  1.0
  N  N38  1  0.17915163  0.94476294  0.07123775  1.0
  N  N39  1  0.82082371  0.05525809  0.92876705  1.0
  N  N40  1  0.14969775  0.57415637  0.45953289  1.0
  N  N41  1  0.85032948  0.42582939  0.54045751  1.0
  N  N42  1  0.68319678  0.92591898  0.04054993  1.0
  N  N43  1  0.31671575  0.07414685  0.95949016  1.0
  N  N44  1  0.75448813  0.53029013  0.96142338  1.0
  N  N45  1  0.24550692  0.46969630  0.03857375  1.0
  N  N46  1  0.74619339  0.96972092  0.53856306  1.0
  N  N47  1  0.25383961  0.03028995  0.46142204  1.0
  O  O48  1  0.97457741  0.17049224  0.83279930  1.0
  O  O49  1  0.02541687  0.82951788  0.16719563  1.0
  O  O50  1  0.47789700  0.32941874  0.66714306  1.0
  O  O51  1  0.52212315  0.67056859  0.33285138  1.0
  O  O52  1  0.36914986  0.17195928  0.69409171  1.0
  O  O53  1  0.63087306  0.82803492  0.30590457  1.0
  O  O54  1  0.73547213  0.32815267  0.80582881  1.0
  O  O55  1  0.26453280  0.67184386  0.19416695  1.0
  O  O56  1  0.29465734  0.17297357  0.83761708  1.0
  O  O57  1  0.70532891  0.82705108  0.16238223  1.0
  O  O58  1  0.80518224  0.32701758  0.66233266  1.0
  O  O59  1  0.19484247  0.67296612  0.33766201  1.0
  O  O60  1  0.40723516  0.32655065  0.81074173  1.0
  O  O61  1  0.59277390  0.67344108  0.18925056  1.0
  O  O62  1  0.04427447  0.17347715  0.68919271  1.0
  O  O63  1  0.95573709  0.82650851  0.31080635  1.0
  O  O64  1  0.11705483  0.30208691  0.74058692  1.0
  O  O65  1  0.88296281  0.69791512  0.25938931  1.0
  O  O66  1  0.65977991  0.19790400  0.75940488  1.0
  O  O67  1  0.34023041  0.80209032  0.24058801  1.0
  O  O68  1  0.74206249  0.61725960  0.44310009  1.0
  O  O69  1  0.77930789  0.51306780  0.38296926  1.0
  O  O70  1  0.25795112  0.38273069  0.55688740  1.0
  O  O71  1  0.22074848  0.48691176  0.61702603  1.0
  O  O72  1  0.30230646  0.88274349  0.05682686  1.0
  O  O73  1  0.17542292  0.98690859  0.11699128  1.0
  O  O74  1  0.69768026  0.11728400  0.94317153  1.0
  O  O75  1  0.82451709  0.01310445  0.88302380  1.0
  O  O76  1  0.05304025  0.62224956  0.49888441  1.0
  O  O77  1  0.09771877  0.51929083  0.43602518  1.0
  O  O78  1  0.90230568  0.48069119  0.56396884  1.0
  O  O79  1  0.94699419  0.37774048  0.50110723  1.0
  O  O80  1  0.67401507  0.87780588  0.00121163  1.0
  O  O81  1  0.55282928  0.98075954  0.06406136  1.0
  O  O82  1  0.44708817  0.01929573  0.93599369  1.0
  O  O83  1  0.32588364  0.12225904  0.99882851  1.0
  O  O84  1  0.78626764  0.60461329  0.93828176  1.0
  O  O85  1  0.86355145  0.46272368  0.95066919  1.0
  O  O86  1  0.21373711  0.39537239  0.06172521  1.0
  O  O87  1  0.13644924  0.53726546  0.04932251  1.0
  O  O88  1  0.82812056  0.89537906  0.56217457  1.0
  O  O89  1  0.77804734  0.03736170  0.54878973  1.0
  O  O90  1  0.17191514  0.10462909  0.43781069  1.0
  O  O91  1  0.22199093  0.96264789  0.45120034  1.0
