# generated using pymatgen
data_AlH12C27N7O12
_symmetry_space_group_name_H-M   'P 1'
_cell_length_a   3.92932512
_cell_length_b   18.05432109
_cell_length_c   18.13619871
_cell_angle_alpha   119.82443592
_cell_angle_beta   91.15856744
_cell_angle_gamma   90.81273166
_symmetry_Int_Tables_number   1
_chemical_formula_structural   AlH12C27N7O12
_chemical_formula_sum   'Al1 H12 C27 N7 O12'
_cell_volume   1115.53490049
_cell_formula_units_Z   1
loop_
 _symmetry_equiv_pos_site_id
 _symmetry_equiv_pos_as_xyz
  1  'x, y, z'
loop_
 _atom_site_type_symbol
 _atom_site_label
 _atom_site_symmetry_multiplicity
 _atom_site_fract_x
 _atom_site_fract_y
 _atom_site_fract_z
 _atom_site_occupancy
  Al  Al0  1  0.00879642  0.00045088  0.50011821  1.0
  H  H1  1  0.79906038  0.30150151  0.40374931  1.0
  H  H2  1  0.79091693  0.09492415  0.89691258  1.0
  H  H3  1  0.75039383  0.60727924  0.19720362  1.0
  H  H4  1  0.26581937  0.30212656  0.89254557  1.0
  H  H5  1  0.23326620  0.60058136  0.40255473  1.0
  H  H6  1  0.23223919  0.09154466  0.19542165  1.0
  H  H7  1  0.15049135  0.98501606  0.31303536  1.0
  H  H8  1  0.86881831  0.18660510  0.51358403  1.0
  H  H9  1  0.15690786  0.82475104  0.51225116  1.0
  H  H10  1  0.82553646  0.83207777  0.31449327  1.0
  H  H11  1  0.18986561  0.18658208  0.66878325  1.0
  H  H12  1  0.86602161  0.98714973  0.67401277  1.0
  C  C13  1  0.50844563  0.06727392  0.43266597  1.0
  C  C14  1  0.52345646  0.06736140  0.63361250  1.0
  C  C15  1  0.49510991  0.86631116  0.43288964  1.0
  C  C16  1  0.67533602  0.23864596  0.37608674  1.0
  C  C17  1  0.51533325  0.20079420  0.29544033  1.0
  C  C18  1  0.67814459  0.12281691  0.86132894  1.0
  C  C19  1  0.52804888  0.20270138  0.90315536  1.0
  C  C20  1  0.49197610  0.59553622  0.29567579  1.0
  C  C21  1  0.63766341  0.64068747  0.25943507  1.0
  C  C22  1  0.38014896  0.23977309  0.85883866  1.0
  C  C23  1  0.36379018  0.19404086  0.77044213  1.0
  C  C24  1  0.52792056  0.11374886  0.72538616  1.0
  C  C25  1  0.69430389  0.08023198  0.77311035  1.0
  C  C26  1  0.65344677  0.72948333  0.30579486  1.0
  C  C27  1  0.49082600  0.77411014  0.38589572  1.0
  C  C28  1  0.32714501  0.72558896  0.41867133  1.0
  C  C29  1  0.34406916  0.63694376  0.37541049  1.0
  C  C30  1  0.35469406  0.12003146  0.25833763  1.0
  C  C31  1  0.33626272  0.07785876  0.30486360  1.0
  C  C32  1  0.51160157  0.11257337  0.38576445  1.0
  C  C33  1  0.69000078  0.19320113  0.41942386  1.0
  C  C34  1  0.50482168  0.37748189  0.25418809  1.0
  C  C35  1  0.51973019  0.24282808  0.11975928  1.0
  C  C36  1  0.51438686  0.24803284  0.24831364  1.0
  C  C37  1  0.49715479  0.50122210  0.24852696  1.0
  C  C38  1  0.50982537  0.37819461  0.11989483  1.0
  C  C39  1  0.52336450  0.24935260  0.99701357  1.0
  N  N40  1  0.51139960  0.33282835  0.16461292  1.0
  N  N41  1  0.51204239  0.20087507  0.16296579  1.0
  N  N42  1  0.51562280  0.33374337  0.29559039  1.0
  N  N43  1  0.48760779  0.46239256  0.29542832  1.0
  N  N44  1  0.51232181  0.46334112  0.16339110  1.0
  N  N45  1  0.53576849  0.20181942  0.03522671  1.0
  N  N46  1  0.50605720  0.33487787  0.03514370  1.0
  O  O47  1  0.27021917  0.90617713  0.49004930  1.0
  O  O48  1  0.26988597  0.01015785  0.41644863  1.0
  O  O49  1  0.29126910  0.08358391  0.59190488  1.0
  O  O50  1  0.72615778  0.90840863  0.41713541  1.0
  O  O51  1  0.74941369  0.01015356  0.59375636  1.0
  O  O52  1  0.74440982  0.08421643  0.49061542  1.0
  O  O53  1  0.15932511  0.00279971  0.26964102  1.0
  O  O54  1  0.86511822  0.22928975  0.49459837  1.0
  O  O55  1  0.16508356  0.76313952  0.49307075  1.0
  O  O56  1  0.81548054  0.77073430  0.27116741  1.0
  O  O57  1  0.19965963  0.22950047  0.73002317  1.0
  O  O58  1  0.85839652  0.00567789  0.73518004  1.0
