# generated using pymatgen
data_Zn4H44C83N20O11F12
_symmetry_space_group_name_H-M   'P 1'
_cell_length_a   19.67589863
_cell_length_b   19.75485859
_cell_length_c   21.60975269
_cell_angle_alpha   106.18717367
_cell_angle_beta   108.85114329
_cell_angle_gamma   109.27310470
_symmetry_Int_Tables_number   1
_chemical_formula_structural   Zn4H44C83N20O11F12
_chemical_formula_sum   'Zn4 H44 C83 N20 O11 F12'
_cell_volume   6769.22691266
_cell_formula_units_Z   1
loop_
 _symmetry_equiv_pos_site_id
 _symmetry_equiv_pos_as_xyz
  1  'x, y, z'
loop_
 _atom_site_type_symbol
 _atom_site_label
 _atom_site_symmetry_multiplicity
 _atom_site_fract_x
 _atom_site_fract_y
 _atom_site_fract_z
 _atom_site_occupancy
  Zn  Zn0  1  0.86972722  0.88268633  0.48019180  1.0
  Zn  Zn1  1  0.10249015  0.10591865  0.50451602  1.0
  Zn  Zn2  1  0.09218478  0.97671165  0.58835597  1.0
  Zn  Zn3  1  0.84678592  0.97178017  0.37316445  1.0
  H  H4  1  0.12368713  0.86794628  0.48240219  1.0
  H  H5  1  0.62207968  0.16681698  0.74462229  1.0
  H  H6  1  0.12631259  0.64721685  0.47293187  1.0
  H  H7  1  0.18769132  0.10127562  0.75012110  1.0
  H  H8  1  0.11440486  0.54100460  0.50353051  1.0
  H  H9  1  0.89812066  0.40946996  0.37176934  1.0
  H  H10  1  0.89888471  0.53155352  0.39044434  1.0
  H  H11  1  0.94099666  0.37141891  0.28624888  1.0
  H  H12  1  0.00760114  0.51838685  0.27397405  1.0
  H  H13  1  0.13357265  0.60165381  0.39416096  1.0
  H  H14  1  0.77714903  0.08386096  0.45493484  1.0
  H  H15  1  0.12123790  0.05887435  0.36597919  1.0
  H  H16  1  0.91276966  0.47368465  0.27213214  1.0
  H  H17  1  0.64067471  0.44888889  0.16799782  1.0
  H  H18  1  0.71158296  0.58262322  0.27135944  1.0
  H  H19  1  0.59551178  0.55349900  0.01884524  1.0
  H  H20  1  0.52034407  0.37359113  0.83535374  1.0
  H  H21  1  0.22286542  0.25042935  0.63885803  1.0
  H  H22  1  0.94443801  0.08411402  0.07907182  1.0
  H  H23  1  0.90210795  0.05026636  0.87824020  1.0
  H  H24  1  0.88500754  0.99883154  0.75227236  1.0
  H  H25  1  0.09972119  0.99538135  0.24186757  1.0
  H  H26  1  0.86212669  0.73385729  0.37082335  1.0
  H  H27  1  0.05621374  0.94263918  0.93713067  1.0
  H  H28  1  0.11534711  0.99221940  0.13110808  1.0
  H  H29  1  0.88939592  0.01748408  0.62021805  1.0
  H  H30  1  0.71077116  0.69675147  0.35827348  1.0
  H  H31  1  0.76266448  0.83850458  0.55167160  1.0
  H  H32  1  0.82750971  0.00089208  0.20083942  1.0
  H  H33  1  0.18358575  0.29433393  0.46314124  1.0
  H  H34  1  0.55703946  0.03112127  0.47832012  1.0
  H  H35  1  0.68617342  0.31407978  0.80236267  1.0
  H  H36  1  0.02047755  0.47710459  0.53077476  1.0
  H  H37  1  0.77836343  0.81374901  0.22968427  1.0
  H  H38  1  0.10107160  0.47109117  0.29248133  1.0
  H  H39  1  0.18517000  0.46705769  0.46578413  1.0
  H  H40  1  0.46333842  0.31782584  0.71998379  1.0
  H  H41  1  0.64283738  0.74395429  0.15242868  1.0
  H  H42  1  0.13113683  0.95641296  0.77303783  1.0
  H  H43  1  0.49935066  0.01705541  0.55759374  1.0
  H  H44  1  0.62042877  0.00806897  0.58113594  1.0
  H  H45  1  0.68675421  0.20705626  0.57170608  1.0
  H  H46  1  0.51437765  0.12861037  0.52254521  1.0
  H  H47  1  0.58198292  0.22691563  0.58907532  1.0
  C  C48  1  0.88635299  0.88884781  0.63309548  1.0
  C  C49  1  0.92497649  0.77824398  0.40462706  1.0
  C  C50  1  0.76674833  0.79720350  0.27048544  1.0
  C  C51  1  0.07442176  0.23204807  0.47217806  1.0
  C  C52  1  0.26999198  0.04217184  0.60517351  1.0
  C  C53  1  0.72595506  0.72116042  0.26614754  1.0
  C  C54  1  0.31894885  0.08472127  0.58012540  1.0
  C  C55  1  0.99500704  0.77048907  0.41024858  1.0
  C  C56  1  0.99991286  0.03478575  0.28488953  1.0
  C  C57  1  0.62783237  0.05753542  0.62618664  1.0
  C  C58  1  0.64178236  0.15358450  0.56824100  1.0
  C  C59  1  0.02086076  0.26514426  0.45303513  1.0
  C  C60  1  0.56980469  0.16487412  0.57459525  1.0
  C  C61  1  0.40207607  0.11194186  0.60305884  1.0
  C  C62  1  0.68700528  0.13746192  0.63304925  1.0
  C  C63  1  0.18269487  0.12827852  0.71281484  1.0
  C  C64  1  0.54525111  0.05618834  0.61438972  1.0
  C  C65  1  0.55257272  0.14072161  0.63243787  1.0
  C  C66  1  0.62626609  0.19618224  0.70840091  1.0
  C  C67  1  0.70504938  0.20514728  0.70300546  1.0
  C  C68  1  0.47465524  0.13516880  0.62529251  1.0
  C  C69  1  0.75688953  0.13193406  0.62762379  1.0
  C  C70  1  0.23962524  0.20046731  0.72142648  1.0
  C  C71  1  0.79385285  0.10700395  0.59992468  1.0
  C  C72  1  0.10594814  0.52547381  0.44736666  1.0
  C  C73  1  0.95685971  0.45847026  0.41531963  1.0
  C  C74  1  0.96006641  0.53752637  0.41574852  1.0
  C  C75  1  0.80726955  0.05884907  0.48635900  1.0
  C  C76  1  0.99941002  0.69899319  0.38445088  1.0
  C  C77  1  0.02479690  0.44635951  0.39901705  1.0
  C  C78  1  0.09958222  0.59116248  0.42503001  1.0
  C  C79  1  0.00985650  0.56721901  0.37765517  1.0
  C  C80  1  0.97809127  0.49623595  0.30465573  1.0
  C  C81  1  0.82466132  0.07036142  0.55829328  1.0
  C  C82  1  0.99605599  0.42898672  0.31669479  1.0
  C  C83  1  0.00268800  0.63635385  0.37130616  1.0
  C  C84  1  0.02964722  0.38029074  0.41370864  1.0
  C  C85  1  0.02801247  0.32702503  0.43208231  1.0
  C  C86  1  0.68859908  0.64405601  0.20450043  1.0
  C  C87  1  0.20146827  0.20437359  0.65576017  1.0
  C  C88  1  0.65653266  0.63448264  0.13168837  1.0
  C  C89  1  0.62241179  0.56007690  0.07422087  1.0
  C  C90  1  0.61458333  0.49258869  0.08663639  1.0
  C  C91  1  0.64706166  0.50158938  0.15854106  1.0
  C  C92  1  0.73344134  0.73764938  0.33656201  1.0
  C  C93  1  0.68491949  0.57624541  0.21596813  1.0
  C  C94  1  0.40828560  0.30012228  0.91265984  1.0
  C  C95  1  0.33360725  0.25502522  0.85098641  1.0
  C  C96  1  0.47740355  0.34750383  0.90915861  1.0
  C  C97  1  0.32085007  0.25070833  0.78173559  1.0
  C  C98  1  0.39272102  0.29318523  0.77721196  1.0
  C  C99  1  0.86510411  0.02521677  0.57146379  1.0
  C  C100  1  0.46711589  0.33935281  0.83965275  1.0
  C  C101  1  0.96104872  0.94198119  0.77248304  1.0
  C  C102  1  0.00883903  0.92793592  0.82686037  1.0
  C  C103  1  0.26050709  0.09007902  0.52592772  1.0
  C  C104  1  0.01972033  0.95590468  0.89702172  1.0
  C  C105  1  0.98092509  0.00092000  0.91560024  1.0
  C  C106  1  0.93219957  0.01590618  0.86297202  1.0
  C  C107  1  0.92268632  0.98683252  0.79277159  1.0
  C  C108  1  0.97894398  0.06518428  0.11475505  1.0
  C  C109  1  0.97261219  0.06766120  0.17693745  1.0
  C  C110  1  0.02941148  0.03526511  0.09733534  1.0
  C  C111  1  0.95550835  0.21846213  0.46082338  1.0
  C  C112  1  0.01287023  0.04061099  0.22352390  1.0
  C  C113  1  0.06699751  0.01616577  0.20689326  1.0
  C  C114  1  0.05876729  0.84655295  0.46104712  1.0
  C  C115  1  0.07577115  0.01392390  0.14534517  1.0
  C  C116  1  0.01817568  0.92509717  0.67977281  1.0
  C  C117  1  0.95482024  0.91661440  0.69973895  1.0
  C  C118  1  0.80003952  0.86225932  0.61162727  1.0
  C  C119  1  0.84688930  0.99848806  0.25357389  1.0
  C  C120  1  0.15151828  0.24589240  0.47500672  1.0
  C  C121  1  0.61323581  0.08641171  0.49584820  1.0
  C  C122  1  0.63431836  0.27788191  0.74665597  1.0
  C  C123  1  0.95929275  0.45405189  0.48540499  1.0
  C  C124  1  0.05666139  0.41728356  0.29139039  1.0
  C  C125  1  0.92901181  0.01566191  0.29492431  1.0
  C  C126  1  0.17967579  0.51487729  0.44994387  1.0
  C  C127  1  0.39927225  0.29413672  0.71085191  1.0
  C  C128  1  0.64760482  0.69850676  0.11220048  1.0
  C  C129  1  0.10367831  0.94892209  0.71678386  1.0
  C  C130  1  0.05733442  0.04193914  0.34842639  1.0
  N  N131  1  0.91059607  0.88418979  0.57972922  1.0
  N  N132  1  0.54813375  0.41150295  0.96753334  1.0
  N  N133  1  0.98369873  0.02830953  0.98438523  1.0
  N  N134  1  0.03946829  0.17236549  0.48889736  1.0
  N  N135  1  0.03323010  0.01848656  0.03129929  1.0
  N  N136  1  0.11874445  0.09029341  0.64640227  1.0
  N  N137  1  0.83375849  0.00927686  0.45939214  1.0
  N  N138  1  0.13043813  0.13864001  0.61149908  1.0
  N  N139  1  0.86982363  0.98827982  0.51149640  1.0
  N  N140  1  0.96672895  0.16357388  0.48197085  1.0
  N  N141  1  0.98933018  0.90750576  0.60793628  1.0
  N  N142  1  0.18623736  0.05626191  0.51996866  1.0
  N  N143  1  0.77470708  0.81671014  0.37875274  1.0
  N  N144  1  0.02835006  0.89436925  0.48486306  1.0
  N  N145  1  0.94656332  0.01242768  0.36029122  1.0
  N  N146  1  0.02424563  0.02936505  0.39305287  1.0
  N  N147  1  0.94588824  0.85220647  0.45005763  1.0
  N  N148  1  0.79508523  0.85311763  0.33714043  1.0
  N  N149  1  0.19293656  0.02480423  0.57072016  1.0
  N  N150  1  0.56231369  0.41538075  0.03056670  1.0
  O  O151  1  0.76859464  0.86397530  0.65216744  1.0
  O  O152  1  0.64215678  0.70148927  0.05498508  1.0
  O  O153  1  0.14697714  0.96032699  0.68551311  1.0
  O  O154  1  0.79572516  0.98091558  0.27709355  1.0
  O  O155  1  0.18328434  0.20328985  0.49024367  1.0
  O  O156  1  0.64543940  0.09044371  0.45658731  1.0
  O  O157  1  0.58920362  0.30334801  0.72107812  1.0
  O  O158  1  0.89833928  0.42736217  0.49221515  1.0
  O  O159  1  0.05819531  0.35400419  0.27093700  1.0
  O  O160  1  0.23072772  0.55526198  0.43739597  1.0
  O  O161  1  0.34466725  0.27305331  0.65121585  1.0
  F  F162  1  0.27336924  0.12240064  0.48141526  1.0
  F  F163  1  0.92381873  0.09721781  0.19375601  1.0
  F  F164  1  0.04521884  0.88257327  0.80873517  1.0
  F  F165  1  0.88668167  0.22402073  0.44887326  1.0
  F  F166  1  0.29399880  0.01854592  0.65708283  1.0
  F  F167  1  0.75990892  0.20870440  0.76420040  1.0
  F  F168  1  0.74304944  0.27794677  0.70162763  1.0
  F  F169  1  0.66150383  0.04816274  0.68892442  1.0
  F  F170  1  0.51805932  0.02495635  0.65731000  1.0
  F  F171  1  0.99748646  0.59553281  0.48855723  1.0
  F  F172  1  0.27018290  0.21545025  0.86129201  1.0
  F  F173  1  0.41026507  0.30090251  0.97561180  1.0
