# generated using pymatgen
data_Al4H28C45(NO10)2
_symmetry_space_group_name_H-M   'P 1'
_cell_length_a   6.66417892
_cell_length_b   15.32553643
_cell_length_c   17.60593360
_cell_angle_alpha   78.42910043
_cell_angle_beta   85.00806010
_cell_angle_gamma   86.78991670
_symmetry_Int_Tables_number   1
_chemical_formula_structural   Al4H28C45(NO10)2
_chemical_formula_sum   'Al4 H28 C45 N2 O20'
_cell_volume   1753.53740896
_cell_formula_units_Z   1
loop_
 _symmetry_equiv_pos_site_id
 _symmetry_equiv_pos_as_xyz
  1  'x, y, z'
loop_
 _atom_site_type_symbol
 _atom_site_label
 _atom_site_symmetry_multiplicity
 _atom_site_fract_x
 _atom_site_fract_y
 _atom_site_fract_z
 _atom_site_occupancy
  Al  Al0  1  0.86251592  0.49987300  0.50054065  1.0
  Al  Al1  1  0.36323566  0.49978716  0.50140237  1.0
  Al  Al2  1  0.37266948  0.99865097  0.99804404  1.0
  Al  Al3  1  0.86997709  0.99993183  0.99839064  1.0
  H  H4  1  0.77180015  0.10422954  0.20140500  1.0
  H  H5  1  0.50229467  0.31541775  0.18821310  1.0
  H  H6  1  0.73899713  0.19703786  0.30401578  1.0
  H  H7  1  0.47136074  0.40287759  0.29404948  1.0
  H  H8  1  0.87888278  0.30749492  0.36792762  1.0
  H  H9  1  0.30206156  0.19570751  0.63999072  1.0
  H  H10  1  0.47187167  0.21780058  0.77808182  1.0
  H  H11  1  0.26147376  0.38717926  0.76426202  1.0
  H  H12  1  0.93098447  0.30093978  0.85958895  1.0
  H  H13  1  0.76144993  0.27872330  0.72212629  1.0
  H  H14  1  0.97226499  0.10969641  0.73529925  1.0
  H  H15  1  0.62251523  0.90025754  0.27371917  1.0
  H  H16  1  0.32545447  0.77429372  0.34024106  1.0
  H  H17  1  0.60826096  0.59629377  0.22622820  1.0
  H  H18  1  0.89958081  0.72482347  0.15773940  1.0
  H  H19  1  0.92967069  0.76468505  0.30774781  1.0
  H  H20  1  0.38079121  0.81093274  0.86830696  1.0
  H  H21  1  0.98410758  0.89380158  0.79541369  1.0
  H  H22  1  0.22977918  0.70064293  0.80540442  1.0
  H  H23  1  0.00923943  0.80033658  0.69355836  1.0
  H  H24  1  0.25461528  0.60715059  0.70363737  1.0
  H  H25  1  0.85768523  0.69012883  0.63040056  1.0
  H  H26  1  0.16597981  0.68848572  0.21791535  1.0
  H  H27  1  0.27625686  0.72390903  0.12970325  1.0
  H  H28  1  0.61714780  0.38616282  0.53906045  1.0
  H  H29  1  0.10680498  0.61595077  0.46991837  1.0
  H  H30  1  0.60412115  0.11202237  0.01254178  1.0
  H  H31  1  0.12113609  0.89104057  0.04728359  1.0
  C  C32  1  0.62876490  0.62036695  0.38976381  1.0
  C  C33  1  0.57219560  0.58943403  0.59972930  1.0
  C  C34  1  0.09620627  0.37960694  0.61203000  1.0
  C  C35  1  0.15544118  0.41235566  0.40035542  1.0
  C  C36  1  0.06658058  0.14809731  0.15643961  1.0
  C  C37  1  0.17191486  0.35987463  0.33682982  1.0
  C  C38  1  0.36672045  0.31289309  0.22790131  1.0
  C  C39  1  0.34966555  0.36176032  0.28599111  1.0
  C  C40  1  0.01514515  0.30784506  0.32876606  1.0
  C  C41  1  0.03086984  0.25447957  0.27140808  1.0
  C  C42  1  0.20972568  0.25740429  0.21944781  1.0
  C  C43  1  0.22363702  0.20309239  0.16148659  1.0
  C  C44  1  0.89162448  0.14686855  0.20810475  1.0
  C  C45  1  0.87424886  0.19832796  0.26418073  1.0
  C  C46  1  0.31490951  0.23220592  0.76464151  1.0
  C  C47  1  0.22057695  0.21808119  0.68977313  1.0
  C  C48  1  0.10075044  0.31042974  0.68359955  1.0
  C  C49  1  0.19779801  0.32455292  0.75905567  1.0
  C  C50  1  0.01322527  0.27873149  0.80990432  1.0
  C  C51  1  0.91889801  0.26460875  0.73502661  1.0
  C  C52  1  0.03602472  0.17226536  0.74060266  1.0
  C  C53  1  0.13281842  0.18648989  0.81598055  1.0
  C  C54  1  0.45409007  0.76340999  0.29966656  1.0
  C  C55  1  0.61912530  0.83199877  0.26415719  1.0
  C  C56  1  0.60598355  0.80803388  0.18127710  1.0
  C  C57  1  0.43903364  0.73975496  0.21783654  1.0
  C  C58  1  0.61180129  0.66469942  0.23567092  1.0
  C  C59  1  0.77439276  0.73388431  0.20001002  1.0
  C  C60  1  0.78987088  0.75778843  0.28161381  1.0
  C  C61  1  0.62417803  0.68968739  0.31819548  1.0
  C  C62  1  0.67966833  0.85676165  0.83756977  1.0
  C  C63  1  0.55878382  0.64429680  0.66118718  1.0
  C  C64  1  0.36618254  0.69877780  0.76659867  1.0
  C  C65  1  0.37946694  0.64699453  0.71076951  1.0
  C  C66  1  0.72086836  0.69395045  0.66856791  1.0
  C  C67  1  0.70991912  0.74932191  0.72422334  1.0
  C  C68  1  0.52871385  0.75180020  0.77444551  1.0
  C  C69  1  0.51760750  0.80715208  0.83010876  1.0
  C  C70  1  0.85913358  0.85410122  0.78804475  1.0
  C  C71  1  0.87251075  0.80230628  0.73219004  1.0
  C  C72  1  0.66522777  0.91141010  0.89921600  1.0
  C  C73  1  0.60384641  0.87760129  0.10959527  1.0
  C  C74  1  0.07905120  0.09046744  0.09663023  1.0
  C  C75  1  0.13845562  0.11713488  0.88756911  1.0
  C  C76  1  0.40070204  0.20948907  0.10908057  1.0
  N  N77  1  0.55050330  0.22208368  0.06933703  1.0
  N  N78  1  0.25433526  0.73636153  0.18477357  1.0
  O  O79  1  0.40946242  0.55753163  0.58599763  1.0
  O  O80  1  0.79960171  0.58470397  0.40853310  1.0
  O  O81  1  0.98138413  0.42034045  0.43498159  1.0
  O  O82  1  0.74515538  0.58015779  0.56441784  1.0
  O  O83  1  0.92598281  0.41459807  0.59186061  1.0
  O  O84  1  0.45888991  0.59997059  0.42657358  1.0
  O  O85  1  0.61914772  0.44403684  0.50447681  1.0
  O  O86  1  0.26683258  0.39960320  0.57537116  1.0
  O  O87  1  0.31757591  0.44328185  0.41534219  1.0
  O  O88  1  0.10670144  0.55450691  0.49739000  1.0
  O  O89  1  0.77477676  0.89729618  0.07319763  1.0
  O  O90  1  0.49276395  0.91918360  0.93512387  1.0
  O  O91  1  0.30805111  0.07993699  0.90548978  1.0
  O  O92  1  0.43332186  0.91318287  0.09060880  1.0
  O  O93  1  0.25232690  0.08000044  0.06256004  1.0
  O  O94  1  0.82627779  0.94458709  0.91275436  1.0
  O  O95  1  0.61403862  0.05393160  0.99745401  1.0
  O  O96  1  0.91633683  0.05760969  0.08500920  1.0
  O  O97  1  0.96933593  0.09976796  0.92596515  1.0
  O  O98  1  0.12609827  0.94313490  0.00537169  1.0
