# generated using pymatgen
data_AlH16C17(NO)6
_symmetry_space_group_name_H-M   'P 1'
_cell_length_a   6.62773821
_cell_length_b   20.24668372
_cell_length_c   22.98346698
_cell_angle_alpha   87.37767589
_cell_angle_beta   89.99036555
_cell_angle_gamma   89.98381602
_symmetry_Int_Tables_number   1
_chemical_formula_structural   AlH16C17(NO)6
_chemical_formula_sum   'Al4 H64 C68 N24 O24'
_cell_volume   3080.91516552
_cell_formula_units_Z   4
loop_
 _symmetry_equiv_pos_site_id
 _symmetry_equiv_pos_as_xyz
  1  'x, y, z'
loop_
 _atom_site_type_symbol
 _atom_site_label
 _atom_site_symmetry_multiplicity
 _atom_site_fract_x
 _atom_site_fract_y
 _atom_site_fract_z
 _atom_site_occupancy
  Al  Al0  1  0.20946808  0.24958996  0.75120217  1.0
  Al  Al1  1  0.78837292  0.75024837  0.24916618  1.0
  Al  Al2  1  0.70946559  0.25044472  0.74878861  1.0
  Al  Al3  1  0.28838301  0.74978681  0.25082768  1.0
  H  H4  1  0.57663927  0.65456050  0.43380746  1.0
  H  H5  1  0.70248368  0.68803470  0.37517211  1.0
  H  H6  1  0.29365522  0.31181604  0.62563677  1.0
  H  H7  1  0.43535528  0.36075302  0.58306272  1.0
  H  H8  1  0.07696637  0.84538495  0.06597902  1.0
  H  H9  1  0.20243839  0.81197842  0.12473873  1.0
  H  H10  1  0.79377034  0.18817432  0.87437366  1.0
  H  H11  1  0.93535089  0.13927740  0.91703040  1.0
  H  H12  1  0.37995620  0.61775251  0.33192926  1.0
  H  H13  1  0.45387240  0.53911979  0.36258549  1.0
  H  H14  1  0.54545803  0.46089419  0.63681773  1.0
  H  H15  1  0.62028769  0.38358070  0.66827657  1.0
  H  H16  1  0.95350908  0.96097353  0.13751985  1.0
  H  H17  1  0.87969464  0.88234335  0.16816326  1.0
  H  H18  1  0.04589036  0.03904720  0.86308665  1.0
  H  H19  1  0.12043892  0.11638911  0.83168515  1.0
  H  H20  1  0.16375758  0.46264256  0.32233875  1.0
  H  H21  1  0.18496807  0.37998756  0.35400724  1.0
  H  H22  1  0.37221814  0.41111878  0.30300066  1.0
  H  H23  1  0.63198369  0.57951550  0.70224142  1.0
  H  H24  1  0.83197257  0.52628315  0.67984608  1.0
  H  H25  1  0.83078182  0.61172407  0.65542953  1.0
  H  H26  1  0.66293762  0.03740619  0.17771154  1.0
  H  H27  1  0.68375809  0.12000635  0.14603809  1.0
  H  H28  1  0.87111990  0.08900952  0.19707719  1.0
  H  H29  1  0.13327728  0.92040191  0.79759446  1.0
  H  H30  1  0.33283341  0.97371651  0.81999984  1.0
  H  H31  1  0.33225129  0.88831664  0.84440831  1.0
  H  H32  1  0.37478632  0.32167612  0.50338634  1.0
  H  H33  1  0.47719752  0.35524367  0.43963034  1.0
  H  H34  1  0.55554242  0.64709450  0.57045861  1.0
  H  H35  1  0.67214215  0.68727369  0.51207002  1.0
  H  H36  1  0.87428106  0.17839980  0.99668362  1.0
  H  H37  1  0.97641738  0.14487202  0.06047737  1.0
  H  H38  1  0.05683990  0.85275735  0.92931548  1.0
  H  H39  1  0.17325477  0.81262817  0.98775379  1.0
  H  H40  1  0.36420143  0.57037037  0.92680657  1.0
  H  H41  1  0.23307537  0.63785572  0.94508102  1.0
  H  H42  1  0.66090732  0.41534514  0.07827993  1.0
  H  H43  1  0.77754009  0.35552640  0.04346940  1.0
  H  H44  1  0.86409530  0.92947099  0.57323003  1.0
  H  H45  1  0.73297202  0.86201559  0.55491110  1.0
  H  H46  1  0.16153294  0.08495887  0.42170614  1.0
  H  H47  1  0.27791934  0.14457817  0.45679104  1.0
  H  H48  1  0.79881527  0.61190471  0.90588621  1.0
  H  H49  1  0.85095160  0.54710212  0.86689696  1.0
  H  H50  1  0.10117928  0.42488519  0.12938172  1.0
  H  H51  1  0.32293859  0.44917483  0.10273365  1.0
  H  H52  1  0.29874901  0.88810636  0.59412965  1.0
  H  H53  1  0.35085789  0.95289719  0.63312642  1.0
  H  H54  1  0.60229454  0.07490904  0.37060718  1.0
  H  H55  1  0.82376321  0.05073194  0.39754120  1.0
  H  H56  1  0.32058534  0.40657792  0.93338289  1.0
  H  H57  1  0.46343237  0.43189159  0.98791018  1.0
  H  H58  1  0.53353627  0.56576150  0.01177095  1.0
  H  H59  1  0.67009475  0.58937319  0.06821914  1.0
  H  H60  1  0.82076365  0.09325444  0.56668161  1.0
  H  H61  1  0.96348764  0.06799797  0.51209110  1.0
  H  H62  1  0.03364458  0.93426496  0.48827804  1.0
  H  H63  1  0.17006911  0.91074059  0.43177614  1.0
  H  H64  1  0.46076986  0.32764748  0.77664625  1.0
  H  H65  1  0.53743767  0.67194466  0.22441639  1.0
  H  H66  1  0.96090245  0.17238762  0.72335312  1.0
  H  H67  1  0.03737476  0.82807969  0.27560326  1.0
  C  C68  1  0.45723890  0.17302088  0.67200028  1.0
  C  C69  1  0.54018694  0.82824306  0.32707002  1.0
  C  C70  1  0.95713228  0.32700680  0.82799614  1.0
  C  C71  1  0.04022168  0.67180617  0.17290780  1.0
  C  C72  1  0.46366987  0.16873559  0.83294088  1.0
  C  C73  1  0.53546487  0.83043033  0.16626413  1.0
  C  C74  1  0.96358202  0.33129230  0.66705965  1.0
  C  C75  1  0.03560421  0.66959081  0.33372813  1.0
  C  C76  1  0.86593010  0.62397196  0.42510444  1.0
  C  C77  1  0.13727929  0.37809500  0.57653632  1.0
  C  C78  1  0.36608245  0.87601641  0.07483265  1.0
  C  C79  1  0.63728236  0.12191406  0.92347414  1.0
  C  C80  1  0.03087427  0.62354158  0.38501997  1.0
  C  C81  1  0.96997780  0.37720166  0.61562126  1.0
  C  C82  1  0.53085829  0.87647896  0.11497247  1.0
  C  C83  1  0.47006730  0.12280794  0.88436980  1.0
  C  C84  1  0.18815146  0.57544964  0.39291841  1.0
  C  C85  1  0.81203725  0.42482289  0.60680822  1.0
  C  C86  1  0.68801414  0.92458537  0.10712333  1.0
  C  C87  1  0.31230743  0.07513396  0.89313035  1.0
  C  C88  1  0.15933595  0.52122138  0.43420830  1.0
  C  C89  1  0.84396006  0.47983033  0.56699657  1.0
  C  C90  1  0.65920668  0.97880582  0.06582277  1.0
  C  C91  1  0.34438988  0.02011712  0.93292068  1.0
  C  C92  1  0.00722835  0.52599714  0.47761617  1.0
  C  C93  1  0.99659543  0.47570033  0.52360179  1.0
  C  C94  1  0.50733278  0.97398965  0.02237095  1.0
  C  C95  1  0.49677557  0.02428653  0.97635895  1.0
  C  C96  1  0.86645478  0.58002657  0.47511831  1.0
  C  C97  1  0.13576220  0.42142700  0.52619409  1.0
  C  C98  1  0.36673617  0.91993228  0.02480731  1.0
  C  C99  1  0.63567168  0.07858487  0.97382123  1.0
  C  C100  1  0.27650045  0.46188915  0.43354111  1.0
  C  C101  1  0.72701874  0.53913423  0.56808971  1.0
  C  C102  1  0.77618587  0.03816822  0.06651051  1.0
  C  C103  1  0.22760998  0.96078168  0.93179609  1.0
  C  C104  1  0.26472286  0.41203851  0.47644043  1.0
  C  C105  1  0.73469002  0.58810320  0.52439092  1.0
  C  C106  1  0.76440188  0.08800976  0.02360638  1.0
  C  C107  1  0.23531500  0.91181850  0.97547717  1.0
  C  C108  1  0.90481269  0.53222380  0.95368727  1.0
  C  C109  1  0.09186003  0.46520271  0.04692435  1.0
  C  C110  1  0.40475755  0.96776843  0.54634532  1.0
  C  C111  1  0.59210629  0.03473686  0.45311998  1.0
  C  C112  1  0.12519314  0.54825484  0.97868400  1.0
  C  C113  1  0.87457678  0.44994302  0.02198822  1.0
  C  C114  1  0.62517278  0.95167316  0.52134912  1.0
  C  C115  1  0.37478299  0.05008176  0.47805554  1.0
  C  C116  1  0.04377350  0.62648426  0.12701619  1.0
  C  C117  1  0.95260722  0.37239388  0.87394946  1.0
  C  C118  1  0.54367974  0.87356945  0.37295585  1.0
  C  C119  1  0.45279559  0.12761601  0.62607102  1.0
  C  C120  1  0.82055741  0.52562694  0.01801131  1.0
  C  C121  1  0.17678630  0.47245436  0.98296501  1.0
  C  C122  1  0.32061112  0.97439343  0.48202961  1.0
  C  C123  1  0.67689740  0.02745752  0.51707968  1.0
  C  C124  1  0.03354678  0.54381504  0.04277783  1.0
  C  C125  1  0.96223621  0.45604778  0.95750920  1.0
  C  C126  1  0.53358583  0.95615452  0.45725568  1.0
  C  C127  1  0.46233906  0.04392881  0.54253518  1.0
  C  C128  1  0.05097118  0.58864086  0.08711174  1.0
  C  C129  1  0.94278404  0.41123643  0.91294101  1.0
  C  C130  1  0.55092290  0.91136236  0.41289466  1.0
  C  C131  1  0.44290013  0.08876153  0.58707806  1.0
  C  C132  1  0.26997710  0.42400742  0.33829151  1.0
  C  C133  1  0.73488335  0.56848283  0.66651248  1.0
  C  C134  1  0.76904090  0.07605412  0.16175777  1.0
  C  C135  1  0.23593488  0.93148919  0.83335625  1.0
  N  N136  1  0.71174551  0.66986068  0.41716686  1.0
  N  N137  1  0.30170997  0.33525088  0.58545722  1.0
  N  N138  1  0.21193109  0.83014125  0.08274445  1.0
  N  N139  1  0.80168030  0.16475232  0.91455862  1.0
  N  N140  1  0.36088742  0.57896068  0.36097287  1.0
  N  N141  1  0.63145580  0.41939493  0.63593658  1.0
  N  N142  1  0.86058750  0.92113671  0.13912127  1.0
  N  N143  1  0.13176116  0.08054969  0.86399977  1.0
  N  N144  1  0.35718539  0.35179541  0.46703698  1.0
  N  N145  1  0.61584600  0.64441212  0.53003439  1.0
  N  N146  1  0.85653020  0.14829004  0.03303473  1.0
  N  N147  1  0.11676131  0.85547378  0.96978936  1.0
  N  N148  1  0.27887460  0.59150967  0.95815861  1.0
  N  N149  1  0.72669011  0.40310198  0.04010712  1.0
  N  N150  1  0.77878019  0.90836695  0.54187141  1.0
  N  N151  1  0.22699558  0.09700869  0.45997539  1.0
  N  N152  1  0.79615772  0.56149375  0.90585685  1.0
  N  N153  1  0.18724308  0.42870144  0.09254414  1.0
  N  N154  1  0.29607743  0.93851425  0.59417347  1.0
  N  N155  1  0.68782916  0.07119691  0.40754381  1.0
  N  N156  1  0.35206583  0.44537796  0.95871806  1.0
  N  N157  1  0.64104800  0.55123092  0.04185674  1.0
  N  N158  1  0.85223073  0.05447449  0.54131133  1.0
  N  N159  1  0.14105382  0.94885879  0.45817921  1.0
  O  O160  1  0.63077937  0.18875073  0.80993714  1.0
  O  O161  1  0.36728571  0.81057109  0.18880543  1.0
  O  O162  1  0.13070538  0.31133904  0.69009655  1.0
  O  O163  1  0.86744273  0.68936169  0.31110872  1.0
  O  O164  1  0.28731385  0.19072925  0.69208058  1.0
  O  O165  1  0.71045758  0.80998825  0.30750198  1.0
  O  O166  1  0.78725963  0.30934768  0.80788514  1.0
  O  O167  1  0.21042317  0.68994531  0.19256201  1.0
  O  O168  1  0.29153633  0.18600831  0.81109915  1.0
  O  O169  1  0.70681994  0.81282595  0.18836983  1.0
  O  O170  1  0.79145033  0.31397715  0.68887084  1.0
  O  O171  1  0.20697384  0.68728892  0.31169852  1.0
  O  O172  1  0.12978166  0.30799995  0.81064085  1.0
  O  O173  1  0.86770351  0.69060674  0.19069179  1.0
  O  O174  1  0.62985032  0.19199004  0.68937723  1.0
  O  O175  1  0.36772794  0.80954773  0.30920583  1.0
  O  O176  1  0.45890938  0.29191916  0.74983707  1.0
  O  O177  1  0.53867043  0.70807567  0.25080900  1.0
  O  O178  1  0.95896374  0.20811988  0.75015671  1.0
  O  O179  1  0.03862400  0.79194968  0.24920886  1.0
  O  O180  1  0.39372603  0.44786649  0.38443133  1.0
  O  O181  1  0.61050979  0.55300948  0.61756568  1.0
  O  O182  1  0.89314272  0.05223194  0.11565296  1.0
  O  O183  1  0.11140606  0.94690606  0.88229194  1.0
