# generated using pymatgen
data_ZnH23C27NClO4
_symmetry_space_group_name_H-M   'P 1'
_cell_length_a   10.90869857
_cell_length_b   14.57446118
_cell_length_c   15.85782083
_cell_angle_alpha   78.45960781
_cell_angle_beta   87.87120377
_cell_angle_gamma   69.89564683
_symmetry_Int_Tables_number   1
_chemical_formula_structural   ZnH23C27NClO4
_chemical_formula_sum   'Zn2 H46 C54 N2 Cl2 O8'
_cell_volume   2318.35396731
_cell_formula_units_Z   2
loop_
 _symmetry_equiv_pos_site_id
 _symmetry_equiv_pos_as_xyz
  1  'x, y, z'
loop_
 _atom_site_type_symbol
 _atom_site_label
 _atom_site_symmetry_multiplicity
 _atom_site_fract_x
 _atom_site_fract_y
 _atom_site_fract_z
 _atom_site_occupancy
  Zn  Zn0  1  0.44840472  0.59631856  0.50995338  1.0
  Zn  Zn1  1  0.54408662  0.39919547  0.48735379  1.0
  H  H2  1  0.85740023  0.56077022  0.61138670  1.0
  H  H3  1  0.13767761  0.42237336  0.40600775  1.0
  H  H4  1  0.96843249  0.33853579  0.51119116  1.0
  H  H5  1  0.17628074  0.33630633  0.54273555  1.0
  H  H6  1  0.30869312  0.76350546  0.93881687  1.0
  H  H7  1  0.45693199  0.53959204  0.77756773  1.0
  H  H8  1  0.62821546  0.23380022  0.75897994  1.0
  H  H9  1  0.59805682  0.22680822  0.06277971  1.0
  H  H10  1  0.29729516  0.80984147  0.08022311  1.0
  H  H11  1  0.34226207  0.76109528  0.23968718  1.0
  H  H12  1  0.49869672  0.45411351  0.22277390  1.0
  H  H13  1  0.80560517  0.65141061  0.51657900  1.0
  H  H14  1  0.37748499  0.63772980  0.84878285  1.0
  H  H15  1  0.52840836  0.35295928  0.15250975  1.0
  H  H16  1  0.63824837  0.18243308  0.91965269  1.0
  H  H17  1  0.72003345  0.97185358  0.32107909  1.0
  H  H18  1  0.52862280  0.76665355  0.45601784  1.0
  H  H19  1  0.26482692  0.70598918  0.63116321  1.0
  H  H20  1  0.71135092  0.29883480  0.35661902  1.0
  H  H21  1  0.46402078  0.22909382  0.53943789  1.0
  H  H22  1  0.01875625  0.65284164  0.48744775  1.0
  H  H23  1  0.61337673  0.85874893  0.39388964  1.0
  H  H24  1  0.35512257  0.14991759  0.58208138  1.0
  H  H25  1  0.20924075  0.87022178  0.67540847  1.0
  H  H26  1  0.91780261  0.37703612  0.60890035  1.0
  H  H27  1  0.92391268  0.45264044  0.37658760  1.0
  H  H28  1  0.05300885  0.14467514  0.57135300  1.0
  H  H29  1  0.05297348  0.02135953  0.60731258  1.0
  H  H30  1  0.99381483  0.11046971  0.67442995  1.0
  H  H31  1  0.21875508  0.99684178  0.72732861  1.0
  H  H32  1  0.21853379  0.11867430  0.68781319  1.0
  H  H33  1  0.75662964  0.28641673  0.21167529  1.0
  H  H34  1  0.89463399  0.23138786  0.28418232  1.0
  H  H35  1  0.89707869  0.19338641  0.18453365  1.0
  H  H36  1  0.86310511  0.06431433  0.30135070  1.0
  H  H37  1  0.72723913  0.11850563  0.22973744  1.0
  H  H38  1  0.33899250  0.31160928  0.67113429  1.0
  H  H39  1  0.27713772  0.43775991  0.68209422  1.0
  H  H40  1  0.26847206  0.34335686  0.76887822  1.0
  H  H41  1  0.04978645  0.43328808  0.69303920  1.0
  H  H42  1  0.10717180  0.30583056  0.69053370  1.0
  H  H43  1  0.93967992  0.58479623  0.22676721  1.0
  H  H44  1  0.79799689  0.55012294  0.24578907  1.0
  H  H45  1  0.78162486  0.67765446  0.21436566  1.0
  H  H46  1  0.74643398  0.63312747  0.37153193  1.0
  H  H47  1  0.88304391  0.67237874  0.35467481  1.0
  C  C48  1  0.45266554  0.57323086  0.33379767  1.0
  C  C49  1  0.11610110  0.49466808  0.51407486  1.0
  C  C50  1  0.10192883  0.39684779  0.56745352  1.0
  C  C51  1  0.07827295  0.49562262  0.41874740  1.0
  C  C52  1  0.42481617  0.60391293  0.23859936  1.0
  C  C53  1  0.54125538  0.39081220  0.76063616  1.0
  C  C54  1  0.34219776  0.73164654  0.11140679  1.0
  C  C55  1  0.36681072  0.70544827  0.19923445  1.0
  C  C56  1  0.45561816  0.53115173  0.18905326  1.0
  C  C57  1  0.43342531  0.55545983  0.09902867  1.0
  C  C58  1  0.37573344  0.65847576  0.05950346  1.0
  C  C59  1  0.73699273  0.49632295  0.49207060  1.0
  C  C60  1  0.46942473  0.48075177  0.04587072  1.0
  C  C61  1  0.45383359  0.51081606  0.95503120  1.0
  C  C62  1  0.39372041  0.61428216  0.91830526  1.0
  C  C63  1  0.35494297  0.68494009  0.96841843  1.0
  C  C64  1  0.52099691  0.37671026  0.08271360  1.0
  C  C65  1  0.55980486  0.30584707  0.03273359  1.0
  C  C66  1  0.55268534  0.33316045  0.94115898  1.0
  C  C67  1  0.49916448  0.43651081  0.90172181  1.0
  C  C68  1  0.59804293  0.26101007  0.88849930  1.0
  C  C69  1  0.59302330  0.28877016  0.79986984  1.0
  C  C70  1  0.53223129  0.42462393  0.66469194  1.0
  C  C71  1  0.49526129  0.46223654  0.81117668  1.0
  C  C72  1  0.69258695  0.15612764  0.35372642  1.0
  C  C73  1  0.66813779  0.24290876  0.38429240  1.0
  C  C74  1  0.52766524  0.20419324  0.48791806  1.0
  C  C75  1  0.54325381  0.11378747  0.46250541  1.0
  C  C76  1  0.63068673  0.08776614  0.39495782  1.0
  C  C77  1  0.47464097  0.04861289  0.50324348  1.0
  C  C78  1  0.50141628  0.95547007  0.47914585  1.0
  C  C79  1  0.59205977  0.93016373  0.41312494  1.0
  C  C80  1  0.65282521  0.99392324  0.37180632  1.0
  C  C81  1  0.25770638  0.49356827  0.51204459  1.0
  C  C82  1  0.37891488  0.07661093  0.56591860  1.0
  C  C83  1  0.31198720  0.01668161  0.60642114  1.0
  C  C84  1  0.34126820  0.91978150  0.58589722  1.0
  C  C85  1  0.43463409  0.88996962  0.52213376  1.0
  C  C86  1  0.28040988  0.85149410  0.62604520  1.0
  C  C87  1  0.31036576  0.76034770  0.60276712  1.0
  C  C88  1  0.45820637  0.79505668  0.50332097  1.0
  C  C89  1  0.88060451  0.57994795  0.54359935  1.0
  C  C90  1  0.01659335  0.58937423  0.53723320  1.0
  C  C91  1  0.96416888  0.39568237  0.54817487  1.0
  C  C92  1  0.92988070  0.51337914  0.40609021  1.0
  C  C93  1  0.87622010  0.49744880  0.49778184  1.0
  C  C94  1  0.20665952  0.05397282  0.66805939  1.0
  C  C95  1  0.06861247  0.08415528  0.62810029  1.0
  C  C96  1  0.78112537  0.13438886  0.27931823  1.0
  C  C97  1  0.83499030  0.21614981  0.23803309  1.0
  C  C98  1  0.12559968  0.37613307  0.66564391  1.0
  C  C99  1  0.25984788  0.36653752  0.69839331  1.0
  C  C100  1  0.84666275  0.61237360  0.34823240  1.0
  C  C101  1  0.84179315  0.60582157  0.25342305  1.0
  N  N102  1  0.58872501  0.26539575  0.45076014  1.0
  N  N103  1  0.39824335  0.73322469  0.54156262  1.0
  Cl  Cl104  1  0.05444460  0.62224601  0.63555309  1.0
  Cl  Cl105  1  0.13346219  0.58069481  0.34094871  1.0
  O  O106  1  0.43184217  0.64166486  0.37708855  1.0
  O  O107  1  0.49513323  0.47979508  0.36443244  1.0
  O  O108  1  0.64453421  0.57352997  0.50460820  1.0
  O  O109  1  0.72417685  0.41815979  0.47564078  1.0
  O  O110  1  0.48231287  0.51804313  0.63618326  1.0
  O  O111  1  0.57350571  0.35804846  0.61882535  1.0
  O  O112  1  0.27376170  0.57547783  0.51281148  1.0
  O  O113  1  0.34660192  0.41198780  0.50549387  1.0
