# generated using pymatgen
data_Zn6H53C60NO24
_symmetry_space_group_name_H-M   'P 1'
_cell_length_a   18.50603625
_cell_length_b   18.55188870
_cell_length_c   18.59766453
_cell_angle_alpha   109.12027331
_cell_angle_beta   109.45843204
_cell_angle_gamma   109.19999609
_symmetry_Int_Tables_number   1
_chemical_formula_structural   Zn6H53C60NO24
_chemical_formula_sum   'Zn6 H53 C60 N1 O24'
_cell_volume   4953.27112223
_cell_formula_units_Z   1
loop_
 _symmetry_equiv_pos_site_id
 _symmetry_equiv_pos_as_xyz
  1  'x, y, z'
loop_
 _atom_site_type_symbol
 _atom_site_label
 _atom_site_symmetry_multiplicity
 _atom_site_fract_x
 _atom_site_fract_y
 _atom_site_fract_z
 _atom_site_occupancy
  Zn  Zn0  1  0.00261382  0.07413741  0.57092122  1.0
  Zn  Zn1  1  0.00250577  0.94776412  0.44708590  1.0
  Zn  Zn2  1  0.44210189  0.93539287  0.00246068  1.0
  Zn  Zn3  1  0.56527424  0.05928714  0.99853852  1.0
  Zn  Zn4  1  0.56170932  0.49926553  0.55725778  1.0
  Zn  Zn5  1  0.43952413  0.50570902  0.43390501  1.0
  H  H6  1  0.69941901  0.92757301  0.32731477  1.0
  H  H7  1  0.76949642  0.02659635  0.15050212  1.0
  H  H8  1  0.72410830  0.10189179  0.25430702  1.0
  H  H9  1  0.87993974  0.78908988  0.54949876  1.0
  H  H10  1  0.75560757  0.66022848  0.52704240  1.0
  H  H11  1  0.58682383  0.76891152  0.46354123  1.0
  H  H12  1  0.17312517  0.86583496  0.58533846  1.0
  H  H13  1  0.29049877  0.07437576  0.89691676  1.0
  H  H14  1  0.18425685  0.08150325  0.77774222  1.0
  H  H15  1  0.10138127  0.13734864  0.36735671  1.0
  H  H16  1  0.20494189  0.24755115  0.34911531  1.0
  H  H17  1  0.36070071  0.41081100  0.62922835  1.0
  H  H18  1  0.24815476  0.30840143  0.64624650  1.0
  H  H19  1  0.55123604  0.29727792  0.14702477  1.0
  H  H20  1  0.53959486  0.40211935  0.26255503  1.0
  H  H21  1  0.52823586  0.24073707  0.38466721  1.0
  H  H22  1  0.52356737  0.12843472  0.26031034  1.0
  H  H23  1  0.65750497  0.92457466  0.83349780  1.0
  H  H24  1  0.43144548  0.61591158  0.70659658  1.0
  H  H25  1  0.42952946  0.73850604  0.81361763  1.0
  H  H26  1  0.57864155  0.87291166  0.19648697  1.0
  H  H27  1  0.80063648  0.07113933  0.39302325  1.0
  H  H28  1  0.66597114  0.04013415  0.29087941  1.0
  H  H29  1  0.87381661  0.99457883  0.22671396  1.0
  H  H30  1  0.79647271  0.88442077  0.18007833  1.0
  H  H31  1  0.70667427  0.91243874  0.08036753  1.0
  H  H32  1  0.83503760  0.23248385  0.38421371  1.0
  H  H33  1  0.90255412  0.22868794  0.47519666  1.0
  H  H34  1  0.95039272  0.28106401  0.42545306  1.0
  H  H35  1  0.94044462  0.13395226  0.38188050  1.0
  H  H36  1  0.87542937  0.13674387  0.28964907  1.0
  H  H37  1  0.68208738  0.96152738  0.60687656  1.0
  H  H38  1  0.79410330  0.02201712  0.63605578  1.0
  H  H39  1  0.71423978  0.04509111  0.57865945  1.0
  H  H40  1  0.75110439  0.95855743  0.47683634  1.0
  H  H41  1  0.63990217  0.89731087  0.44721807  1.0
  H  H42  1  0.33865213  0.87923494  0.61782107  1.0
  H  H43  1  0.41875691  0.92882200  0.72944263  1.0
  H  H44  1  0.38056791  0.81762391  0.65637793  1.0
  H  H45  1  0.30909220  0.82343660  0.74928740  1.0
  H  H46  1  0.22981020  0.77594831  0.63869743  1.0
  H  H47  1  0.61363570  0.78449461  0.31495199  1.0
  H  H48  1  0.56870995  0.72220148  0.20045758  1.0
  H  H49  1  0.63344893  0.69722230  0.27227863  1.0
  H  H50  1  0.72244224  0.78080305  0.22016519  1.0
  H  H51  1  0.76700261  0.83355616  0.33377728  1.0
  H  H52  1  0.55541878  0.74828109  0.09697519  1.0
  H  H53  1  0.65214499  0.78825120  0.10382703  1.0
  H  H54  1  0.73049943  0.94452202  0.75684399  1.0
  H  H55  1  0.79266018  0.92627636  0.83817265  1.0
  H  H56  1  0.80261793  0.90518699  0.74261902  1.0
  H  H57  1  0.71128361  0.76376786  0.72712686  1.0
  H  H58  1  0.64890664  0.78285050  0.64901127  1.0
  C  C59  1  0.88151486  0.92499672  0.53615292  1.0
  C  C60  1  0.66854498  0.96177643  0.17659366  1.0
  C  C61  1  0.71220231  0.04541354  0.26536538  1.0
  C  C62  1  0.73865109  0.96385501  0.14855136  1.0
  C  C63  1  0.81611314  0.78526915  0.53370384  1.0
  C  C64  1  0.74716296  0.71323522  0.51973461  1.0
  C  C65  1  0.66408335  0.70722296  0.49326588  1.0
  C  C66  1  0.65224405  0.77529438  0.48490279  1.0
  C  C67  1  0.72265191  0.85129323  0.50389112  1.0
  C  C68  1  0.80470846  0.85433225  0.52681850  1.0
  C  C69  1  0.19928046  0.91101956  0.65411609  1.0
  C  C70  1  0.87734122  0.97601496  0.36490149  1.0
  C  C71  1  0.25754309  0.90477188  0.71964527  1.0
  C  C72  1  0.29059207  0.96555279  0.80731614  1.0
  C  C73  1  0.26398111  0.02842864  0.82835808  1.0
  C  C74  1  0.20545071  0.03294330  0.76245534  1.0
  C  C75  1  0.17390365  0.97488741  0.67457104  1.0
  C  C76  1  0.15655977  0.19903723  0.42408692  1.0
  C  C77  1  0.21476771  0.25975119  0.41400108  1.0
  C  C78  1  0.28923298  0.33524034  0.48822825  1.0
  C  C79  1  0.30188601  0.35241461  0.57202083  1.0
  C  C80  1  0.24010946  0.29496604  0.58164828  1.0
  C  C81  1  0.10876890  0.14920547  0.51827558  1.0
  C  C82  1  0.16881262  0.21663760  0.50786034  1.0
  C  C83  1  0.53174792  0.13774629  0.12205202  1.0
  C  C84  1  0.59529866  0.96427409  0.11105359  1.0
  C  C85  1  0.53647584  0.90891349  0.88808324  1.0
  C  C86  1  0.36066030  0.96972500  0.88105951  1.0
  C  C87  1  0.54017315  0.62632101  0.64315416  1.0
  C  C88  1  0.59152870  0.62833677  0.47798960  1.0
  C  C89  1  0.52542583  0.38938044  0.39817512  1.0
  C  C90  1  0.35916618  0.39535266  0.48029129  1.0
  C  C91  1  0.54437369  0.28466354  0.19830265  1.0
  C  C92  1  0.11459568  0.98322887  0.60466274  1.0
  C  C93  1  0.53902886  0.34336965  0.26310618  1.0
  C  C94  1  0.53319163  0.32733252  0.33013903  1.0
  C  C95  1  0.53148701  0.25171585  0.33146013  1.0
  C  C96  1  0.53013999  0.19000076  0.26311514  1.0
  C  C97  1  0.53720304  0.20651293  0.19665708  1.0
  C  C98  1  0.60918041  0.85633188  0.80553876  1.0
  C  C99  1  0.61332033  0.78891872  0.74791733  1.0
  C  C100  1  0.54749780  0.70216060  0.71270534  1.0
  C  C101  1  0.48170005  0.68371220  0.73577483  1.0
  C  C102  1  0.47977553  0.75136063  0.79429094  1.0
  C  C103  1  0.71124899  0.89779367  0.27348816  1.0
  C  C104  1  0.54290773  0.83816192  0.82832335  1.0
  C  C105  1  0.63578399  0.88006472  0.18739046  1.0
  C  C106  1  0.79977705  0.05858392  0.33062956  1.0
  C  C107  1  0.80697032  0.95135484  0.21061183  1.0
  C  C108  1  0.80095649  0.97092900  0.29496503  1.0
  C  C109  1  0.88085741  0.13792674  0.35088066  1.0
  C  C110  1  0.89280891  0.22481586  0.41207298  1.0
  C  C111  1  0.70827819  0.92512509  0.49789240  1.0
  C  C112  1  0.72569919  0.99249676  0.58517623  1.0
  C  C113  1  0.28684201  0.83773298  0.69557401  1.0
  C  C114  1  0.36057877  0.86757958  0.67351057  1.0
  C  C115  1  0.71096608  0.81474556  0.27253289  1.0
  C  C116  1  0.62701642  0.75127237  0.26418511  1.0
  C  C117  1  0.68246821  0.80604083  0.71995486  1.0
  C  C118  1  0.75585004  0.90078040  0.76721380  1.0
  N  N119  1  0.60363103  0.80206780  0.10546204  1.0
  O  O120  1  0.90976639  0.00602482  0.58813743  1.0
  O  O121  1  0.57984546  0.16250271  0.08895994  1.0
  O  O122  1  0.51457723  0.91413595  0.08676471  1.0
  O  O123  1  0.61918924  0.01976400  0.08625113  1.0
  O  O124  1  0.47823260  0.88541196  0.90996905  1.0
  O  O125  1  0.58881468  0.98967220  0.91420176  1.0
  O  O126  1  0.33706063  0.91831939  0.91125654  1.0
  O  O127  1  0.43897486  0.02586807  0.90900783  1.0
  O  O128  1  0.59221395  0.59592319  0.66555719  1.0
  O  O129  1  0.48062127  0.59595264  0.56583852  1.0
  O  O130  1  0.61396184  0.58807167  0.51703880  1.0
  O  O131  1  0.91456491  0.89817593  0.49052140  1.0
  O  O132  1  0.51099870  0.60504061  0.42734778  1.0
  O  O133  1  0.57078795  0.40853909  0.47806581  1.0
  O  O134  1  0.47443274  0.41839565  0.37237983  1.0
  O  O135  1  0.43785782  0.41904495  0.53231758  1.0
  O  O136  1  0.33575860  0.41876609  0.42222419  1.0
  O  O137  1  0.90542538  0.02862607  0.44426770  1.0
  O  O138  1  0.90923741  0.92614961  0.34081638  1.0
  O  O139  1  0.08617460  0.17566802  0.57619449  1.0
  O  O140  1  0.08460308  0.06998800  0.46913298  1.0
  O  O141  1  0.09326727  0.04191335  0.62855418  1.0
  O  O142  1  0.08849229  0.93126340  0.52411257  1.0
  O  O143  1  0.47878705  0.05894053  0.09613088  1.0
