# generated using pymatgen
data_ZnH11C19(NO2)2
_symmetry_space_group_name_H-M   'P 1'
_cell_length_a   11.49343344
_cell_length_b   15.22169843
_cell_length_c   18.17099082
_cell_angle_alpha   89.99998808
_cell_angle_beta   89.99999691
_cell_angle_gamma   89.99996464
_symmetry_Int_Tables_number   1
_chemical_formula_structural   ZnH11C19(NO2)2
_chemical_formula_sum   'Zn4 H44 C76 N8 O16'
_cell_volume   3179.00717124
_cell_formula_units_Z   4
loop_
 _symmetry_equiv_pos_site_id
 _symmetry_equiv_pos_as_xyz
  1  'x, y, z'
loop_
 _atom_site_type_symbol
 _atom_site_label
 _atom_site_symmetry_multiplicity
 _atom_site_fract_x
 _atom_site_fract_y
 _atom_site_fract_z
 _atom_site_occupancy
  Zn  Zn0  1  0.50000006  0.44769094  0.90165139  1.0
  Zn  Zn1  1  0.50000006  0.55230880  0.09834846  1.0
  Zn  Zn2  1  0.50000025  0.05230937  0.40165117  1.0
  Zn  Zn3  1  0.49999987  0.94769103  0.59834868  1.0
  H  H4  1  0.50000027  0.02824835  0.16715818  1.0
  H  H5  1  0.49999985  0.97175205  0.83284167  1.0
  H  H6  1  0.50000006  0.47175202  0.66715840  1.0
  H  H7  1  0.50000006  0.52824838  0.33284145  1.0
  H  H8  1  0.50000016  0.20400262  0.97964496  1.0
  H  H9  1  0.49999996  0.79599712  0.02035489  1.0
  H  H10  1  0.50000014  0.29599702  0.47964470  1.0
  H  H11  1  0.49999998  0.70400273  0.52035515  1.0
  H  H12  1  0.50000015  0.30723890  0.20089380  1.0
  H  H13  1  0.49999997  0.69276085  0.79910660  1.0
  H  H14  1  0.50000018  0.19276081  0.70089351  1.0
  H  H15  1  0.49999994  0.80723959  0.29910634  1.0
  H  H16  1  0.30234725  0.32274566  0.95211646  1.0
  H  H17  1  0.30234715  0.67725418  0.04788340  1.0
  H  H18  1  0.69765305  0.17725398  0.45211621  1.0
  H  H19  1  0.69765366  0.82274567  0.54788363  1.0
  H  H20  1  0.69765374  0.67725343  0.04788394  1.0
  H  H21  1  0.69765297  0.32274623  0.95211645  1.0
  H  H22  1  0.30234620  0.82274642  0.54788364  1.0
  H  H23  1  0.30234646  0.17725407  0.45211622  1.0
  H  H24  1  0.08697906  0.31535757  0.95266019  1.0
  H  H25  1  0.08697982  0.68464171  0.04733968  1.0
  H  H26  1  0.91302038  0.18464207  0.45266048  1.0
  H  H27  1  0.91302011  0.81535814  0.54734046  1.0
  H  H28  1  0.91302019  0.68464217  0.04734022  1.0
  H  H29  1  0.91302030  0.31535804  0.95266017  1.0
  H  H30  1  0.08697974  0.81535833  0.54733992  1.0
  H  H31  1  0.08697914  0.18464226  0.45265994  1.0
  H  H32  1  0.08661614  0.57531018  0.85512393  1.0
  H  H33  1  0.08661624  0.42468976  0.14487594  1.0
  H  H34  1  0.91338376  0.92468959  0.35512418  1.0
  H  H35  1  0.91338410  0.07531062  0.64487620  1.0
  H  H36  1  0.91338398  0.42468957  0.14487592  1.0
  H  H37  1  0.91338388  0.57530999  0.85512391  1.0
  H  H38  1  0.08661636  0.07531081  0.64487622  1.0
  H  H39  1  0.08661602  0.92468978  0.35512420  1.0
  H  H40  1  0.30175638  0.56957818  0.85801095  1.0
  H  H41  1  0.30175734  0.43042166  0.14198891  1.0
  H  H42  1  0.69824352  0.93042159  0.35801120  1.0
  H  H43  1  0.69824299  0.06957872  0.64198919  1.0
  H  H44  1  0.69824287  0.43042156  0.14198946  1.0
  H  H45  1  0.69824365  0.56957809  0.85801094  1.0
  H  H46  1  0.30175660  0.06957816  0.64198920  1.0
  H  H47  1  0.30175713  0.93042168  0.35801066  1.0
  C  C48  1  0.50000021  0.16607068  0.19198400  1.0
  C  C49  1  0.49999991  0.83392841  0.80801640  1.0
  C  C50  1  0.50000012  0.33392903  0.69198369  1.0
  C  C51  1  0.50000000  0.66607138  0.30801616  1.0
  C  C52  1  0.49999937  0.09425347  0.14407413  1.0
  C  C53  1  0.49999988  0.90574561  0.85592572  1.0
  C  C54  1  0.50000009  0.40574625  0.64407381  1.0
  C  C55  1  0.50000003  0.59425416  0.35592605  1.0
  C  C56  1  0.49999937  0.10642033  0.06713501  1.0
  C  C57  1  0.49999988  0.89357942  0.93286484  1.0
  C  C58  1  0.50000010  0.39357941  0.56713469  1.0
  C  C59  1  0.49999915  0.60642099  0.43286516  1.0
  C  C60  1  0.49999934  0.19256643  0.03890099  1.0
  C  C61  1  0.49999991  0.80743331  0.96109886  1.0
  C  C62  1  0.50000014  0.30743331  0.53890068  1.0
  C  C63  1  0.49999998  0.69256643  0.46109862  1.0
  C  C64  1  0.49999930  0.26444211  0.08700348  1.0
  C  C65  1  0.49999995  0.73555763  0.91299637  1.0
  C  C66  1  0.50000016  0.23555762  0.58700373  1.0
  C  C67  1  0.49999996  0.76444278  0.41299667  1.0
  C  C68  1  0.50000018  0.25138048  0.16340163  1.0
  C  C69  1  0.49999994  0.74861992  0.83659822  1.0
  C  C70  1  0.50000016  0.24861989  0.66340188  1.0
  C  C71  1  0.49999996  0.75137986  0.33659852  1.0
  C  C72  1  0.50000021  0.15106052  0.27419912  1.0
  C  C73  1  0.49999991  0.84893922  0.72580074  1.0
  C  C74  1  0.50000011  0.34893917  0.77419935  1.0
  C  C75  1  0.50000001  0.65106124  0.22580105  1.0
  C  C76  1  0.50000014  0.35556598  0.05582520  1.0
  C  C77  1  0.49999998  0.64443311  0.94417520  1.0
  C  C78  1  0.50000020  0.14443311  0.55582493  1.0
  C  C79  1  0.49999992  0.85556730  0.44417493  1.0
  C  C80  1  0.49999940  0.03250020  0.01964944  1.0
  C  C81  1  0.49999985  0.96749955  0.98035096  1.0
  C  C82  1  0.50000007  0.46749956  0.51964910  1.0
  C  C83  1  0.49999918  0.53250085  0.48035075  1.0
  C  C84  1  0.25005911  0.37722317  0.93143734  1.0
  C  C85  1  0.25005905  0.62277669  0.06856307  1.0
  C  C86  1  0.74994120  0.12277582  0.43143765  1.0
  C  C87  1  0.74994088  0.87722315  0.56856274  1.0
  C  C88  1  0.74994101  0.62277592  0.06856306  1.0
  C  C89  1  0.74994107  0.37722305  0.93143733  1.0
  C  C90  1  0.25005892  0.87722392  0.56856275  1.0
  C  C91  1  0.25005924  0.12277594  0.43143711  1.0
  C  C92  1  0.12915704  0.37408689  0.93132232  1.0
  C  C93  1  0.12915697  0.62591303  0.06867754  1.0
  C  C94  1  0.87084327  0.12591342  0.43132263  1.0
  C  C95  1  0.87084296  0.87408681  0.56867776  1.0
  C  C96  1  0.87084221  0.62591286  0.06867808  1.0
  C  C97  1  0.87084228  0.37408671  0.93132231  1.0
  C  C98  1  0.12915685  0.87408698  0.56867832  1.0
  C  C99  1  0.12915716  0.12591294  0.43132209  1.0
  C  C100  1  0.06451662  0.44554542  0.90438047  1.0
  C  C101  1  0.06451661  0.55445453  0.09561939  1.0
  C  C102  1  0.93548282  0.05445489  0.40438024  1.0
  C  C103  1  0.93548245  0.94554597  0.59561905  1.0
  C  C104  1  0.93548263  0.55445432  0.09561993  1.0
  C  C105  1  0.93548264  0.44554522  0.90438046  1.0
  C  C106  1  0.06451643  0.94554551  0.59562016  1.0
  C  C107  1  0.06451680  0.05445444  0.40437970  1.0
  C  C108  1  0.12887769  0.51714714  0.87745898  1.0
  C  C109  1  0.12887774  0.48285277  0.12254033  1.0
  C  C110  1  0.87112222  0.98285262  0.37745868  1.0
  C  C111  1  0.87112173  0.01714827  0.62254116  1.0
  C  C112  1  0.87112156  0.48285260  0.12254087  1.0
  C  C113  1  0.87112151  0.51714763  0.87745897  1.0
  C  C114  1  0.12887790  0.01714712  0.62254117  1.0
  C  C115  1  0.12887839  0.98285279  0.37745924  1.0
  C  C116  1  0.24973627  0.51509741  0.87900760  1.0
  C  C117  1  0.24973631  0.48490245  0.12099226  1.0
  C  C118  1  0.75026451  0.98490235  0.37900730  1.0
  C  C119  1  0.75026402  0.01509793  0.62099254  1.0
  C  C120  1  0.75026472  0.48490168  0.12099280  1.0
  C  C121  1  0.75026381  0.51509729  0.87900760  1.0
  C  C122  1  0.24973648  0.01509805  0.62099255  1.0
  C  C123  1  0.24973610  0.98490247  0.37900731  1.0
  N  N124  1  0.30992196  0.44682512  0.90631982  1.0
  N  N125  1  0.30992195  0.55317472  0.09368003  1.0
  N  N126  1  0.69007835  0.05317454  0.40631960  1.0
  N  N127  1  0.69007884  0.94682512  0.59368025  1.0
  N  N128  1  0.69007729  0.55317463  0.09368058  1.0
  N  N129  1  0.69007817  0.44682503  0.90631982  1.0
  N  N130  1  0.30992264  0.94682521  0.59368025  1.0
  N  N131  1  0.30992215  0.05317463  0.40631906  1.0
  O  O132  1  0.50000010  0.36195346  0.98607002  1.0
  O  O133  1  0.50000002  0.63804695  0.01393038  1.0
  O  O134  1  0.50000021  0.13804684  0.48606979  1.0
  O  O135  1  0.49999991  0.86195291  0.51393006  1.0
  O  O136  1  0.50000011  0.41895049  0.10145177  1.0
  O  O137  1  0.50000001  0.58104925  0.89854808  1.0
  O  O138  1  0.50000023  0.08104924  0.60145150  1.0
  O  O139  1  0.49999989  0.91895051  0.39854835  1.0
  O  O140  1  0.50000024  0.06878061  0.29333182  1.0
  O  O141  1  0.49999987  0.93121914  0.70666859  1.0
  O  O142  1  0.50000008  0.43121908  0.79333149  1.0
  O  O143  1  0.50000004  0.56878067  0.20666836  1.0
  O  O144  1  0.50000018  0.21440167  0.31789568  1.0
  O  O145  1  0.49999994  0.78559741  0.68210362  1.0
  O  O146  1  0.50000013  0.28559800  0.81789593  1.0
  O  O147  1  0.49999999  0.71440240  0.18210392  1.0
