# generated using pymatgen
data_ZnH4C12NO4F
_symmetry_space_group_name_H-M   'P 1'
_cell_length_a   8.93328258
_cell_length_b   14.83858305
_cell_length_c   16.26011585
_cell_angle_alpha   89.93572528
_cell_angle_beta   89.68506281
_cell_angle_gamma   100.83843122
_symmetry_Int_Tables_number   1
_chemical_formula_structural   ZnH4C12NO4F
_chemical_formula_sum   'Zn2 H8 C24 N2 O8 F2'
_cell_volume   2116.90987803
_cell_formula_units_Z   2
loop_
 _symmetry_equiv_pos_site_id
 _symmetry_equiv_pos_as_xyz
  1  'x, y, z'
loop_
 _atom_site_type_symbol
 _atom_site_label
 _atom_site_symmetry_multiplicity
 _atom_site_fract_x
 _atom_site_fract_y
 _atom_site_fract_z
 _atom_site_occupancy
  Zn  Zn0  1  0.48592346  0.40460781  0.50002473  1.0
  Zn  Zn1  1  0.51408453  0.59539289  0.49997407  1.0
  H  H2  1  0.02998134  0.60577427  0.50000695  1.0
  H  H3  1  0.97003167  0.39422442  0.49999123  1.0
  H  H4  1  0.74208254  0.49764653  0.92391852  1.0
  H  H5  1  0.25788511  0.50234629  0.07608034  1.0
  H  H6  1  0.74618955  0.94379627  0.49993283  1.0
  H  H7  1  0.25382686  0.05620655  0.50007211  1.0
  H  H8  1  0.74642750  0.11241838  0.49991269  1.0
  H  H9  1  0.25359076  0.88758309  0.50009040  1.0
  C  C10  1  0.49877435  0.49971569  0.66128111  1.0
  C  C11  1  0.50122525  0.50028699  0.33871770  1.0
  C  C12  1  0.49981611  0.09340534  0.50000037  1.0
  C  C13  1  0.50020234  0.90659681  0.50000518  1.0
  C  C14  1  0.36042726  0.03068092  0.50004304  1.0
  C  C15  1  0.63958538  0.96932049  0.49996251  1.0
  C  C16  1  0.49710385  0.18889814  0.50002999  1.0
  C  C17  1  0.50291157  0.81111289  0.49997495  1.0
  C  C18  1  0.79564355  0.52544401  0.49996299  1.0
  C  C19  1  0.20436874  0.47455605  0.50003396  1.0
  C  C20  1  0.96444051  0.53594677  0.49998802  1.0
  C  C21  1  0.03556841  0.46405325  0.50000955  1.0
  C  C22  1  0.63304538  0.49901693  0.04146770  1.0
  C  C23  1  0.36691909  0.50097655  0.95853301  1.0
  C  C24  1  0.49962335  0.50035235  0.08771418  1.0
  C  C25  1  0.50034283  0.49964319  0.91228592  1.0
  C  C26  1  0.36439621  0.50135693  0.04351496  1.0
  C  C27  1  0.63557407  0.49863728  0.95648452  1.0
  C  C28  1  0.50121313  0.50047552  0.17462526  1.0
  C  C29  1  0.49876772  0.49952426  0.82537297  1.0
  C  C30  1  0.49874570  0.49958370  0.75046422  1.0
  C  C31  1  0.50126143  0.50042178  0.24953458  1.0
  C  C32  1  0.63966215  0.06286858  0.49995765  1.0
  C  C33  1  0.36035274  0.93713286  0.50004790  1.0
  N  N34  1  0.50902908  0.73370992  0.49993038  1.0
  N  N35  1  0.49099189  0.26628542  0.50007209  1.0
  O  O36  1  0.48500226  0.42170886  0.62673130  1.0
  O  O37  1  0.51499898  0.57829177  0.37327059  1.0
  O  O38  1  0.51269626  0.57782984  0.62668633  1.0
  O  O39  1  0.48729490  0.42217072  0.37331065  1.0
  O  O40  1  0.71689122  0.44438575  0.49999140  1.0
  O  O41  1  0.28311731  0.55561290  0.50000371  1.0
  O  O42  1  0.74335803  0.59992861  0.49994555  1.0
  O  O43  1  0.25665353  0.40007281  0.50005140  1.0
  F  F44  1  0.76520036  0.49811054  0.08230148  1.0
  F  F45  1  0.23476894  0.50188024  0.91769738  1.0
