# generated using pymatgen
data_CdH14C28(NO2)4
_symmetry_space_group_name_H-M   'P 1'
_cell_length_a   8.22408773
_cell_length_b   18.82761196
_cell_length_c   22.57695786
_cell_angle_alpha   90.00039949
_cell_angle_beta   90.00028031
_cell_angle_gamma   94.66185918
_symmetry_Int_Tables_number   1
_chemical_formula_structural   CdH14C28(NO2)4
_chemical_formula_sum   'Cd4 H56 C112 N16 O32'
_cell_volume   3484.24946619
_cell_formula_units_Z   4
loop_
 _symmetry_equiv_pos_site_id
 _symmetry_equiv_pos_as_xyz
  1  'x, y, z'
loop_
 _atom_site_type_symbol
 _atom_site_label
 _atom_site_symmetry_multiplicity
 _atom_site_fract_x
 _atom_site_fract_y
 _atom_site_fract_z
 _atom_site_occupancy
  Cd  Cd0  1  0.69090767  0.01086083  0.44436741  1.0
  Cd  Cd1  1  0.30911335  0.48914679  0.94436718  1.0
  Cd  Cd2  1  0.30910712  0.98914603  0.55563335  1.0
  Cd  Cd3  1  0.69089116  0.51085684  0.05563757  1.0
  H  H4  1  0.03170189  0.16629353  0.45403024  1.0
  H  H5  1  0.96961594  0.25900052  0.37835771  1.0
  H  H6  1  0.50030881  0.14314397  0.37339792  1.0
  H  H7  1  0.41831990  0.51521894  0.15569555  1.0
  H  H8  1  0.29768043  0.43995883  0.23916174  1.0
  H  H9  1  0.55937054  0.26735312  0.17053797  1.0
  H  H10  1  0.66857421  0.34933864  0.09166496  1.0
  H  H11  1  0.14211050  0.02175067  0.30774847  1.0
  H  H12  1  0.31981048  0.06765624  0.22140851  1.0
  H  H13  1  0.78164598  0.16654902  0.26497752  1.0
  H  H14  1  0.34348588  0.32462214  0.95648528  1.0
  H  H15  1  0.27905154  0.22286082  0.02617891  1.0
  H  H16  1  0.03201283  0.36853650  0.13674051  1.0
  H  H17  1  0.10302672  0.46246564  0.06277029  1.0
  H  H18  1  0.96828188  0.33370875  0.95402450  1.0
  H  H19  1  0.03036303  0.24099415  0.87835866  1.0
  H  H20  1  0.49967273  0.35684480  0.87339815  1.0
  H  H21  1  0.58165618  0.98477411  0.65569001  1.0
  H  H22  1  0.70229352  0.06003192  0.73916060  1.0
  H  H23  1  0.44062245  0.23264080  0.67053559  1.0
  H  H24  1  0.33140221  0.15065720  0.59166281  1.0
  H  H25  1  0.85788263  0.47824714  0.80775046  1.0
  H  H26  1  0.68018415  0.43233601  0.72141170  1.0
  H  H27  1  0.21834518  0.33344787  0.76498376  1.0
  H  H28  1  0.65652012  0.17537489  0.45648818  1.0
  H  H29  1  0.72096624  0.27714040  0.52617861  1.0
  H  H30  1  0.96800655  0.13146518  0.63673847  1.0
  H  H31  1  0.89698368  0.03753217  0.56277113  1.0
  H  H32  1  0.96830828  0.83370054  0.54597097  1.0
  H  H33  1  0.03038403  0.74099085  0.62164217  1.0
  H  H34  1  0.49969761  0.85684955  0.62659929  1.0
  H  H35  1  0.58168202  0.48477670  0.84430787  1.0
  H  H36  1  0.70232758  0.56003682  0.76084123  1.0
  H  H37  1  0.44063662  0.73264467  0.82946014  1.0
  H  H38  1  0.33142209  0.65065965  0.90833181  1.0
  H  H39  1  0.85790149  0.97825406  0.69225052  1.0
  H  H40  1  0.68019880  0.93234688  0.77858870  1.0
  H  H41  1  0.21835472  0.83344661  0.73502058  1.0
  H  H42  1  0.65652781  0.67537832  0.04351503  1.0
  H  H43  1  0.72095653  0.77714229  0.97382274  1.0
  H  H44  1  0.96800767  0.63146825  0.86326291  1.0
  H  H45  1  0.89699603  0.53753805  0.93723135  1.0
  H  H46  1  0.03169517  0.66630493  0.04596740  1.0
  H  H47  1  0.96962414  0.75901477  0.12163989  1.0
  H  H48  1  0.50029999  0.64315075  0.12659420  1.0
  H  H49  1  0.41833385  0.01522310  0.34430587  1.0
  H  H50  1  0.29769998  0.93996423  0.26083750  1.0
  H  H51  1  0.55936365  0.76735479  0.32946516  1.0
  H  H52  1  0.66857218  0.84934103  0.40833662  1.0
  H  H53  1  0.14210655  0.52175219  0.19224986  1.0
  H  H54  1  0.31981218  0.56765535  0.27858861  1.0
  H  H55  1  0.78166128  0.66656004  0.23501833  1.0
  H  H56  1  0.34348514  0.82462608  0.54351435  1.0
  H  H57  1  0.27905016  0.72286167  0.47382304  1.0
  H  H58  1  0.03199637  0.86853632  0.36326406  1.0
  H  H59  1  0.10301392  0.96246666  0.43723317  1.0
  C  C60  1  0.29616691  0.09299265  0.46345756  1.0
  C  C61  1  0.26723093  0.14991282  0.41868506  1.0
  C  C62  1  0.12003733  0.18302831  0.41992612  1.0
  C  C63  1  0.08562430  0.23480444  0.37828866  1.0
  C  C64  1  0.20491119  0.25377521  0.33626322  1.0
  C  C65  1  0.35248943  0.22166907  0.33563607  1.0
  C  C66  1  0.38636671  0.16898810  0.37569272  1.0
  C  C67  1  0.45591713  0.25333210  0.28736890  1.0
  C  C68  1  0.20596631  0.30606735  0.28696931  1.0
  C  C69  1  0.44493030  0.45979302  0.16095786  1.0
  C  C70  1  0.37907928  0.41824860  0.20721812  1.0
  C  C71  1  0.41965400  0.34753968  0.21158657  1.0
  C  C72  1  0.52319057  0.32138920  0.16911097  1.0
  C  C73  1  0.58428944  0.36717388  0.12474690  1.0
  C  C74  1  0.86056255  0.06524775  0.34497390  1.0
  C  C75  1  0.95505788  0.09109599  0.29076480  1.0
  C  C76  1  0.10454865  0.06316740  0.27825521  1.0
  C  C77  1  0.20212131  0.08811298  0.23069050  1.0
  C  C78  1  0.14470968  0.14163447  0.19594500  1.0
  C  C79  1  0.99402282  0.16862228  0.20746509  1.0
  C  C80  1  0.89651975  0.14424574  0.25463294  1.0
  C  C81  1  0.22347639  0.18065955  0.14515313  1.0
  C  C82  1  0.96881059  0.22528979  0.16359218  1.0
  C  C83  1  0.27509222  0.33163209  0.99712934  1.0
  C  C84  1  0.23828890  0.27513228  0.03557577  1.0
  C  C85  1  0.15039413  0.28767697  0.08729306  1.0
  C  C86  1  0.10030977  0.35594805  0.09742788  1.0
  C  C87  1  0.14140860  0.40901732  0.05607086  1.0
  C  C88  1  0.70379914  0.40700487  0.96345489  1.0
  C  C89  1  0.73274267  0.35008272  0.91868477  1.0
  C  C90  1  0.87994031  0.31696938  0.91992279  1.0
  C  C91  1  0.91435570  0.26518917  0.87828863  1.0
  C  C92  1  0.79506716  0.24621216  0.83626598  1.0
  C  C93  1  0.64749032  0.27831936  0.83564008  1.0
  C  C94  1  0.61361420  0.33100389  0.87569210  1.0
  C  C95  1  0.54406008  0.24665962  0.78737166  1.0
  C  C96  1  0.79400931  0.19392223  0.78697176  1.0
  C  C97  1  0.55505150  0.04020026  0.66095324  1.0
  C  C98  1  0.62089576  0.08174400  0.70721608  1.0
  C  C99  1  0.58033233  0.15245459  0.71158574  1.0
  C  C100  1  0.47679809  0.17860789  0.66911057  1.0
  C  C101  1  0.41569384  0.13282387  0.62474524  1.0
  C  C102  1  0.13944095  0.43475788  0.84497483  1.0
  C  C103  1  0.04493638  0.40890273  0.79076985  1.0
  C  C104  1  0.89544357  0.43682748  0.77826013  1.0
  C  C105  1  0.79787008  0.41188094  0.73069511  1.0
  C  C106  1  0.85528091  0.35835754  0.69595161  1.0
  C  C107  1  0.00596700  0.33137143  0.70747272  1.0
  C  C108  1  0.10347116  0.35575053  0.75464043  1.0
  C  C109  1  0.77653221  0.31933526  0.64515584  1.0
  C  C110  1  0.03119257  0.27470730  0.66360041  1.0
  C  C111  1  0.72491347  0.16836691  0.49712965  1.0
  C  C112  1  0.76172388  0.22486742  0.53557569  1.0
  C  C113  1  0.84962553  0.21232321  0.58729527  1.0
  C  C114  1  0.89970667  0.14405381  0.59742801  1.0
  C  C115  1  0.85859963  0.09098255  0.55607239  1.0
  C  C116  1  0.70384051  0.90700674  0.53654320  1.0
  C  C117  1  0.73277829  0.85008284  0.58131348  1.0
  C  C118  1  0.87996806  0.81696627  0.58007331  1.0
  C  C119  1  0.91437978  0.76518961  0.62171078  1.0
  C  C120  1  0.79509167  0.74621884  0.66373577  1.0
  C  C121  1  0.64751577  0.77832445  0.66436203  1.0
  C  C122  1  0.61363868  0.83100649  0.62430583  1.0
  C  C123  1  0.54408124  0.74666406  0.71262876  1.0
  C  C124  1  0.79403749  0.69392510  0.71303012  1.0
  C  C125  1  0.55507077  0.54020475  0.83904334  1.0
  C  C126  1  0.62093004  0.58174759  0.79278352  1.0
  C  C127  1  0.58035261  0.65245491  0.78841242  1.0
  C  C128  1  0.47681649  0.67860805  0.83088757  1.0
  C  C129  1  0.41571199  0.63282602  0.87525209  1.0
  C  C130  1  0.13944935  0.93475644  0.65502819  1.0
  C  C131  1  0.04494513  0.90890604  0.70923507  1.0
  C  C132  1  0.89545166  0.93683303  0.72174378  1.0
  C  C133  1  0.79788152  0.91188799  0.76930937  1.0
  C  C134  1  0.85528990  0.85836170  0.80405266  1.0
  C  C135  1  0.00597329  0.83137495  0.79253213  1.0
  C  C136  1  0.10348001  0.85575150  0.74536428  1.0
  C  C137  1  0.77653083  0.81934570  0.85484940  1.0
  C  C138  1  0.03118963  0.77471011  0.83640415  1.0
  C  C139  1  0.72491287  0.66836782  0.00287142  1.0
  C  C140  1  0.76171889  0.72486924  0.96442676  1.0
  C  C141  1  0.84961908  0.71232776  0.91270681  1.0
  C  C142  1  0.89970203  0.64405560  0.90257288  1.0
  C  C143  1  0.85861051  0.59098635  0.94393078  1.0
  C  C144  1  0.29616851  0.59299653  0.03654100  1.0
  C  C145  1  0.26722786  0.64992135  0.08130979  1.0
  C  C146  1  0.12003685  0.68303791  0.08007044  1.0
  C  C147  1  0.08562830  0.73481548  0.12170859  1.0
  C  C148  1  0.20491913  0.75378451  0.16373257  1.0
  C  C149  1  0.35249120  0.72167782  0.16435979  1.0
  C  C150  1  0.38636421  0.66899648  0.12430334  1.0
  C  C151  1  0.45592900  0.75333918  0.21262777  1.0
  C  C152  1  0.20597117  0.80607601  0.21302900  1.0
  C  C153  1  0.44494208  0.95979643  0.33904353  1.0
  C  C154  1  0.37909053  0.91825267  0.29278247  1.0
  C  C155  1  0.41965798  0.84754422  0.28841280  1.0
  C  C156  1  0.52318848  0.82139037  0.33088931  1.0
  C  C157  1  0.58428907  0.86717438  0.37525464  1.0
  C  C158  1  0.86056027  0.56524788  0.15502549  1.0
  C  C159  1  0.95506551  0.59109983  0.20923135  1.0
  C  C160  1  0.10455254  0.56316974  0.22174284  1.0
  C  C161  1  0.20212874  0.58811789  0.26930654  1.0
  C  C162  1  0.14472035  0.64164129  0.30405269  1.0
  C  C163  1  0.99403593  0.66863007  0.29252981  1.0
  C  C164  1  0.89653213  0.64425311  0.24536121  1.0
  C  C165  1  0.22347093  0.68066038  0.35484847  1.0
  C  C166  1  0.96882008  0.72529423  0.33640345  1.0
  C  C167  1  0.27509591  0.83163674  0.50287199  1.0
  C  C168  1  0.23828643  0.77513463  0.46442729  1.0
  C  C169  1  0.15038478  0.78767885  0.41270770  1.0
  C  C170  1  0.10030225  0.85594718  0.40257363  1.0
  C  C171  1  0.14139703  0.90901787  0.44393192  1.0
  N  N172  1  0.54635360  0.43506140  0.12048962  1.0
  N  N173  1  0.36087592  0.30361030  0.25875040  1.0
  N  N174  1  0.11570341  0.23308265  0.12910940  1.0
  N  N175  1  0.22848772  0.39750952  0.00709885  1.0
  N  N176  1  0.45362728  0.06493683  0.62048586  1.0
  N  N177  1  0.63910441  0.19638065  0.75875215  1.0
  N  N178  1  0.88431437  0.26691736  0.62911066  1.0
  N  N179  1  0.77151480  0.10248937  0.50709940  1.0
  N  N180  1  0.45364540  0.56493849  0.87951069  1.0
  N  N181  1  0.63912600  0.69638535  0.74124991  1.0
  N  N182  1  0.88430484  0.76692153  0.87089003  1.0
  N  N183  1  0.77151971  0.60248987  0.99290324  1.0
  N  N184  1  0.54636564  0.93506304  0.37951268  1.0
  N  N185  1  0.36088075  0.80361654  0.24124905  1.0
  N  N186  1  0.11570176  0.73308311  0.37089010  1.0
  N  N187  1  0.22848569  0.89751213  0.49290357  1.0
  O  O188  1  0.41991079  0.05734631  0.45739829  1.0
  O  O189  1  0.19374263  0.08278569  0.50554017  1.0
  O  O190  1  0.09938942  0.34355140  0.27128962  1.0
  O  O191  1  0.59521866  0.24237101  0.27397657  1.0
  O  O192  1  0.73013276  0.09395435  0.35762881  1.0
  O  O193  1  0.91774342  0.01627426  0.37580170  1.0
  O  O194  1  0.85025992  0.25858096  0.15490101  1.0
  O  O195  1  0.35423916  0.17227901  0.12151629  1.0
  O  O196  1  0.58006144  0.44265224  0.95738719  1.0
  O  O197  1  0.80622064  0.41721840  0.00553764  1.0
  O  O198  1  0.90057979  0.15643749  0.77129204  1.0
  O  O199  1  0.40476416  0.25761901  0.77397517  1.0
  O  O200  1  0.26988064  0.40605834  0.85762537  1.0
  O  O201  1  0.08225325  0.48373162  0.87580149  1.0
  O  O202  1  0.14975276  0.24141555  0.65490793  1.0
  O  O203  1  0.64577233  0.32772039  0.62151394  1.0
  O  O204  1  0.58009767  0.94265201  0.54260601  1.0
  O  O205  1  0.80626292  0.91721689  0.49446059  1.0
  O  O206  1  0.90061232  0.65644317  0.72871202  1.0
  O  O207  1  0.40478907  0.75762305  0.72602241  1.0
  O  O208  1  0.26989688  0.90606108  0.64237993  1.0
  O  O209  1  0.08226166  0.98372565  0.62419685  1.0
  O  O210  1  0.14974909  0.74142056  0.84509576  1.0
  O  O211  1  0.64578020  0.82773319  0.87849244  1.0
  O  O212  1  0.41991546  0.55735345  0.04260559  1.0
  O  O213  1  0.19374953  0.58278355  0.99445692  1.0
  O  O214  1  0.09940894  0.84355918  0.22871049  1.0
  O  O215  1  0.59522034  0.74238138  0.22601806  1.0
  O  O216  1  0.73011247  0.59394260  0.14237849  1.0
  O  O217  1  0.91774843  0.51627680  0.12419529  1.0
  O  O218  1  0.85025719  0.75858438  0.34509327  1.0
  O  O219  1  0.35422539  0.67227205  0.37849080  1.0
