# generated using pymatgen
data_ZnH17C23N6O5
_symmetry_space_group_name_H-M   'P 1'
_cell_length_a   16.49780854
_cell_length_b   17.85253341
_cell_length_c   33.15939946
_cell_angle_alpha   89.68549026
_cell_angle_beta   91.43609474
_cell_angle_gamma   89.98596657
_symmetry_Int_Tables_number   1
_chemical_formula_structural   ZnH17C23N6O5
_chemical_formula_sum   'Zn4 H68 C92 N24 O20'
_cell_volume   9763.14550976
_cell_formula_units_Z   4
loop_
 _symmetry_equiv_pos_site_id
 _symmetry_equiv_pos_as_xyz
  1  'x, y, z'
loop_
 _atom_site_type_symbol
 _atom_site_label
 _atom_site_symmetry_multiplicity
 _atom_site_fract_x
 _atom_site_fract_y
 _atom_site_fract_z
 _atom_site_occupancy
  Zn  Zn0  1  0.42123772  0.50347652  0.49986760  1.0
  Zn  Zn1  1  0.59243372  0.50268295  0.50094663  1.0
  Zn  Zn2  1  0.57824859  0.50051689  0.96237042  1.0
  Zn  Zn3  1  0.40702052  0.49995202  0.96134290  1.0
  H  H4  1  0.71818886  0.40939210  0.53904811  1.0
  H  H5  1  0.72041278  0.59228130  0.46185240  1.0
  H  H6  1  0.30317792  0.45770542  0.56128325  1.0
  H  H7  1  0.28658995  0.55505059  0.44782309  1.0
  H  H8  1  0.37435095  0.26929437  0.49268078  1.0
  H  H9  1  0.63066762  0.26263620  0.51811688  1.0
  H  H10  1  0.37768647  0.73682608  0.50888675  1.0
  H  H11  1  0.63161066  0.74367641  0.48379276  1.0
  H  H12  1  0.64338774  0.49696401  0.63497156  1.0
  H  H13  1  0.71037498  0.48430545  0.70300841  1.0
  H  H14  1  0.38581862  0.50492761  0.62298513  1.0
  H  H15  1  0.35632383  0.49705905  0.82745336  1.0
  H  H16  1  0.28925691  0.48535658  0.75945688  1.0
  H  H17  1  0.61394110  0.50428184  0.83934758  1.0
  H  H18  1  0.62456965  0.51641481  0.09005416  1.0
  H  H19  1  0.37018368  0.46572138  0.08877035  1.0
  H  H20  1  0.62976301  0.47064209  0.37394396  1.0
  H  H21  1  0.37522706  0.52101647  0.37158806  1.0
  H  H22  1  0.28130509  0.40703389  0.92342015  1.0
  H  H23  1  0.27891336  0.58945432  0.99985918  1.0
  H  H24  1  0.69646162  0.45528582  0.90141394  1.0
  H  H25  1  0.71257035  0.55170220  0.01454187  1.0
  H  H26  1  0.62573156  0.26689540  0.96820615  1.0
  H  H27  1  0.36935550  0.25964489  0.94285047  1.0
  H  H28  1  0.62239873  0.73320372  0.95280238  1.0
  H  H29  1  0.36867293  0.74152185  0.97822746  1.0
  H  H30  1  0.94055686  0.62050013  0.46825182  1.0
  H  H31  1  0.85146978  0.65178313  0.44717975  1.0
  H  H32  1  0.94010461  0.38800557  0.54610865  1.0
  H  H33  1  0.84904938  0.35161197  0.56032276  1.0
  H  H34  1  0.06484321  0.54855383  0.43963199  1.0
  H  H35  1  0.15183435  0.57343094  0.41627005  1.0
  H  H36  1  0.08521319  0.46530260  0.58073810  1.0
  H  H37  1  0.17917013  0.44240874  0.60051831  1.0
  H  H38  1  0.63577947  0.05816959  0.52501546  1.0
  H  H39  1  0.69021223  0.13815944  0.53112912  1.0
  H  H40  1  0.35984068  0.06749496  0.47717981  1.0
  H  H41  1  0.30912985  0.15030562  0.47522075  1.0
  H  H42  1  0.63410744  0.94765980  0.47357790  1.0
  H  H43  1  0.68863123  0.86776454  0.46881233  1.0
  H  H44  1  0.36331904  0.93919826  0.52203875  1.0
  H  H45  1  0.31355417  0.85619665  0.52527348  1.0
  H  H46  1  0.36331083  0.45138882  0.19875956  1.0
  H  H47  1  0.31023396  0.43968191  0.15467311  1.0
  H  H48  1  0.63527533  0.54375042  0.19907955  1.0
  H  H49  1  0.68651726  0.54973796  0.15545005  1.0
  H  H50  1  0.36510940  0.54509050  0.26214594  1.0
  H  H51  1  0.31354039  0.55245325  0.30558763  1.0
  H  H52  1  0.63725352  0.45320375  0.26420827  1.0
  H  H53  1  0.69017912  0.44294460  0.30849464  1.0
  H  H54  1  0.05878368  0.61765400  0.99339242  1.0
  H  H55  1  0.14790329  0.64882350  0.01428775  1.0
  H  H56  1  0.05942380  0.38560402  0.91646275  1.0
  H  H57  1  0.15051028  0.34937391  0.90235052  1.0
  H  H58  1  0.93447151  0.54574851  0.02273241  1.0
  H  H59  1  0.84742423  0.57015351  0.04606680  1.0
  H  H60  1  0.91434496  0.46357113  0.88197128  1.0
  H  H61  1  0.82049627  0.44062830  0.86227078  1.0
  H  H62  1  0.36564962  0.05541315  0.93521212  1.0
  H  H63  1  0.31076545  0.13530346  0.92932387  1.0
  H  H64  1  0.64137771  0.06462851  0.98321966  1.0
  H  H65  1  0.69161739  0.14760182  0.98552550  1.0
  H  H66  1  0.36718959  0.94552097  0.98700281  1.0
  H  H67  1  0.31231973  0.86588163  0.99231201  1.0
  H  H68  1  0.63785101  0.93546863  0.93836950  1.0
  H  H69  1  0.68707363  0.85217813  0.93553209  1.0
  H  H70  1  0.66772629  0.41141056  0.81956699  1.0
  H  H71  1  0.33145062  0.41237396  0.64339176  1.0
  C  C72  1  0.50406227  0.35671885  0.50608659  1.0
  C  C73  1  0.51681856  0.50641544  0.58010024  1.0
  C  C74  1  0.50614503  0.64949797  0.49661283  1.0
  C  C75  1  0.50256338  0.49600133  0.42162198  1.0
  C  C76  1  0.49552124  0.35404867  0.95516425  1.0
  C  C77  1  0.48286185  0.50620535  0.88220873  1.0
  C  C78  1  0.49370697  0.64657001  0.96601350  1.0
  C  C79  1  0.49702198  0.49078811  0.04059803  1.0
  C  C80  1  0.75585305  0.44970874  0.52328942  1.0
  C  C81  1  0.84071845  0.44814416  0.52670258  1.0
  C  C82  1  0.88501237  0.50294349  0.50522476  1.0
  C  C83  1  0.84196767  0.55600870  0.48084911  1.0
  C  C84  1  0.75707552  0.55259231  0.47953673  1.0
  C  C85  1  0.97017176  0.50431326  0.50766221  1.0
  C  C86  1  0.04450045  0.50559252  0.50949081  1.0
  C  C87  1  0.12959886  0.50691624  0.50875641  1.0
  C  C88  1  0.17795662  0.47892259  0.54163973  1.0
  C  C89  1  0.26258813  0.47920284  0.53753360  1.0
  C  C90  1  0.25318148  0.53430654  0.47356020  1.0
  C  C91  1  0.16837612  0.53584987  0.47418493  1.0
  C  C92  1  0.50252121  0.27265721  0.50574521  1.0
  C  C93  1  0.42897898  0.23594577  0.49781153  1.0
  C  C94  1  0.42647425  0.15782837  0.49579741  1.0
  C  C95  1  0.49909917  0.11607941  0.50244835  1.0
  C  C96  1  0.57339974  0.15403195  0.51102464  1.0
  C  C97  1  0.57433496  0.23224860  0.51236996  1.0
  C  C98  1  0.49807264  0.03748959  0.50035570  1.0
  C  C99  1  0.49877881  0.96880348  0.49870609  1.0
  C  C100  1  0.50037239  0.89017775  0.49736679  1.0
  C  C101  1  0.42870690  0.84838750  0.50460618  1.0
  C  C102  1  0.43163496  0.77024500  0.50355558  1.0
  C  C103  1  0.50470180  0.73356967  0.49620747  1.0
  C  C104  1  0.57560767  0.77398998  0.48914794  1.0
  C  C105  1  0.57409041  0.85226002  0.48927325  1.0
  C  C106  1  0.58465398  0.49526943  0.64935264  1.0
  C  C107  1  0.57987408  0.49005091  0.69152666  1.0
  C  C108  1  0.65107543  0.48610967  0.71684646  1.0
  C  C109  1  0.43823191  0.49727379  0.64321321  1.0
  C  C110  1  0.42994576  0.48858681  0.68498602  1.0
  C  C111  1  0.35233278  0.48401997  0.70433767  1.0
  C  C112  1  0.41503162  0.49524484  0.81307565  1.0
  C  C113  1  0.41977852  0.49019969  0.77092042  1.0
  C  C114  1  0.34856364  0.48686566  0.74561130  1.0
  C  C115  1  0.56147637  0.49674597  0.81917339  1.0
  C  C116  1  0.56972141  0.48800041  0.77745757  1.0
  C  C117  1  0.64731750  0.48298863  0.75812910  1.0
  C  C118  1  0.51417072  0.49987151  0.62542702  1.0
  C  C119  1  0.50220363  0.48765996  0.70986412  1.0
  C  C120  1  0.48554716  0.49966687  0.83694884  1.0
  C  C121  1  0.49743922  0.48753805  0.75259763  1.0
  C  C122  1  0.49737739  0.49109429  0.08584917  1.0
  C  C123  1  0.56982190  0.50653634  0.10698462  1.0
  C  C124  1  0.57127445  0.50946299  0.14905750  1.0
  C  C125  1  0.49875165  0.49550921  0.17016725  1.0
  C  C126  1  0.42552370  0.47905634  0.14835676  1.0
  C  C127  1  0.42555922  0.47745088  0.10620084  1.0
  C  C128  1  0.49968862  0.49746236  0.21255182  1.0
  C  C129  1  0.50073703  0.49824885  0.24958447  1.0
  C  C130  1  0.50157955  0.49801291  0.29197701  1.0
  C  C131  1  0.57479385  0.48242974  0.31410341  1.0
  C  C132  1  0.57450439  0.48199564  0.35626824  1.0
  C  C133  1  0.50249390  0.49596634  0.37634164  1.0
  C  C134  1  0.43014580  0.51084068  0.35489163  1.0
  C  C135  1  0.42891439  0.51258745  0.31278751  1.0
  C  C136  1  0.24360254  0.44725599  0.93899905  1.0
  C  C137  1  0.15873706  0.44566296  0.93561628  1.0
  C  C138  1  0.11439749  0.50023667  0.95693792  1.0
  C  C139  1  0.15739098  0.55319045  0.98107574  1.0
  C  C140  1  0.24228800  0.54981783  0.98236571  1.0
  C  C141  1  0.02923338  0.50157175  0.95459575  1.0
  C  C142  1  0.95489498  0.50305812  0.95304410  1.0
  C  C143  1  0.86979435  0.50428076  0.95384616  1.0
  C  C144  1  0.82157266  0.47647823  0.92105074  1.0
  C  C145  1  0.73694777  0.47656154  0.92513639  1.0
  C  C146  1  0.74610599  0.53114124  0.98892034  1.0
  C  C147  1  0.83092089  0.53286636  0.98831054  1.0
  C  C148  1  0.49748016  0.26997922  0.95521424  1.0
  C  C149  1  0.57128775  0.23343937  0.96302712  1.0
  C  C150  1  0.57427320  0.15526093  0.96488105  1.0
  C  C151  1  0.50191374  0.11332466  0.95811339  1.0
  C  C152  1  0.42739868  0.15113025  0.94955321  1.0
  C  C153  1  0.42592613  0.22938852  0.94846857  1.0
  C  C154  1  0.50331040  0.03467180  0.96017297  1.0
  C  C155  1  0.50265354  0.96594051  0.96187809  1.0
  C  C156  1  0.50067000  0.88727587  0.96356135  1.0
  C  C157  1  0.57199964  0.84502925  0.95643937  1.0
  C  C158  1  0.56864991  0.76690229  0.95800904  1.0
  C  C159  1  0.49547150  0.73064311  0.96578396  1.0
  C  C160  1  0.42485013  0.77148647  0.97264326  1.0
  C  C161  1  0.42678766  0.84975929  0.97196981  1.0
  C  C162  1  0.72604846  0.47141301  0.78073366  1.0
  C  C163  1  0.27356758  0.47317665  0.68173716  1.0
  N  N164  1  0.71676913  0.50089700  0.50049592  1.0
  N  N165  1  0.29741330  0.50596992  0.50445002  1.0
  N  N166  1  0.28263959  0.49828377  0.96160429  1.0
  N  N167  1  0.70202958  0.50301904  0.95810004  1.0
  N  N168  1  0.88365709  0.60748983  0.45816006  1.0
  N  N169  1  0.88050843  0.39703211  0.55117517  1.0
  N  N170  1  0.12312532  0.56641993  0.44268013  1.0
  N  N171  1  0.14323915  0.45021641  0.57544439  1.0
  N  N172  1  0.64396649  0.11222091  0.51614430  1.0
  N  N173  1  0.35416459  0.11984667  0.48869758  1.0
  N  N174  1  0.64376531  0.89426816  0.48343654  1.0
  N  N175  1  0.35683129  0.88626718  0.51126299  1.0
  N  N176  1  0.35496728  0.46795448  0.16955352  1.0
  N  N177  1  0.64271693  0.52303691  0.17089899  1.0
  N  N178  1  0.35756573  0.52535786  0.29063888  1.0
  N  N179  1  0.64546599  0.47074602  0.29315302  1.0
  N  N180  1  0.11570183  0.60459415  0.00352660  1.0
  N  N181  1  0.11899523  0.39470964  0.91133821  1.0
  N  N182  1  0.87608611  0.56339374  0.01966509  1.0
  N  N183  1  0.85639991  0.44822369  0.88732351  1.0
  N  N184  1  0.35709904  0.10911830  0.94427919  1.0
  N  N185  1  0.64678591  0.11739720  0.97191243  1.0
  N  N186  1  0.35732399  0.89212656  0.97752122  1.0
  N  N187  1  0.64405017  0.88248705  0.94942482  1.0
  O  O188  1  0.43585434  0.38989030  0.50232256  1.0
  O  O189  1  0.57292075  0.38884383  0.50978542  1.0
  O  O190  1  0.58576312  0.51158943  0.56424819  1.0
  O  O191  1  0.44820079  0.50509211  0.56176847  1.0
  O  O192  1  0.57491679  0.61693836  0.49504729  1.0
  O  O193  1  0.43779215  0.61681814  0.49886478  1.0
  O  O194  1  0.43404123  0.50215253  0.43829210  1.0
  O  O195  1  0.57108532  0.49026948  0.44000220  1.0
  O  O196  1  0.56378754  0.38726759  0.95800966  1.0
  O  O197  1  0.42641249  0.38608002  0.95265672  1.0
  O  O198  1  0.41382332  0.50970639  0.89807352  1.0
  O  O199  1  0.55150683  0.50644372  0.90051239  1.0
  O  O200  1  0.42474734  0.61422238  0.96696511  1.0
  O  O201  1  0.56211214  0.61370900  0.96484885  1.0
  O  O202  1  0.56560569  0.49512086  0.02381042  1.0
  O  O203  1  0.42825251  0.48684820  0.02233314  1.0
  O  O204  1  0.72357115  0.42752392  0.81504709  1.0
  O  O205  1  0.79128142  0.49495447  0.77004452  1.0
  O  O206  1  0.27575292  0.42906612  0.64772680  1.0
  O  O207  1  0.20853659  0.49744114  0.69214433  1.0
