# generated using pymatgen
data_Mg2H8C17N5ClO6
_symmetry_space_group_name_H-M   'P 1'
_cell_length_a   6.71487911
_cell_length_b   28.54549056
_cell_length_c   28.54561467
_cell_angle_alpha   119.40113829
_cell_angle_beta   94.51044516
_cell_angle_gamma   94.46921676
_symmetry_Int_Tables_number   1
_chemical_formula_structural   Mg2H8C17N5ClO6
_chemical_formula_sum   'Mg6 H24 C51 N15 Cl3 O18'
_cell_volume   4709.15657707
_cell_formula_units_Z   3
loop_
 _symmetry_equiv_pos_site_id
 _symmetry_equiv_pos_as_xyz
  1  'x, y, z'
loop_
 _atom_site_type_symbol
 _atom_site_label
 _atom_site_symmetry_multiplicity
 _atom_site_fract_x
 _atom_site_fract_y
 _atom_site_fract_z
 _atom_site_occupancy
  Mg  Mg0  1  0.75030329  0.31878637  0.69499692  1.0
  Mg  Mg1  1  0.43144293  0.37612716  0.68110590  1.0
  Mg  Mg2  1  0.05545850  0.30486089  0.62380481  1.0
  Mg  Mg3  1  0.83463302  0.67560733  0.37404199  1.0
  Mg  Mg4  1  0.15897065  0.69869387  0.32431232  1.0
  Mg  Mg5  1  0.46063977  0.62588703  0.30124094  1.0
  H  H6  1  0.87676258  0.06576252  0.56095296  1.0
  H  H7  1  0.81156953  0.49475902  0.93414179  1.0
  H  H8  1  0.31579109  0.43940422  0.50517673  1.0
  H  H9  1  0.94505326  0.15843713  0.59739133  1.0
  H  H10  1  0.78650065  0.43877307  0.84139666  1.0
  H  H11  1  0.34778365  0.40279182  0.56131405  1.0
  H  H12  1  0.25351006  0.15797763  0.52261934  1.0
  H  H13  1  0.09539319  0.36476383  0.84209744  1.0
  H  H14  1  0.73044928  0.47734749  0.63545304  1.0
  H  H15  1  0.38390189  0.07004490  0.49449425  1.0
  H  H16  1  0.31453146  0.42413965  0.92989771  1.0
  H  H17  1  0.88917008  0.50565270  0.57584704  1.0
  H  H18  1  0.12871943  0.96542578  0.44821089  1.0
  H  H19  1  0.16420464  0.48242067  0.03463630  1.0
  H  H20  1  0.68043781  0.55230507  0.51743302  1.0
  H  H21  1  0.23213920  0.83255409  0.43181515  1.0
  H  H22  1  0.39988064  0.59915559  0.16733504  1.0
  H  H23  1  0.80113636  0.56846688  0.40092282  1.0
  H  H24  1  0.54055166  0.84861525  0.37135584  1.0
  H  H25  1  0.69245791  0.52273675  0.15147739  1.0
  H  H26  1  0.16930477  0.62892700  0.47700840  1.0
  H  H27  1  0.80388914  0.92919832  0.41239389  1.0
  H  H28  1  0.87532970  0.48290149  0.07089061  1.0
  H  H29  1  0.39103405  0.58787703  0.51669565  1.0
  C  C30  1  0.63095590  0.92971775  0.51728877  1.0
  C  C31  1  0.70142529  0.58729715  0.07013815  1.0
  C  C32  1  0.11360863  0.48287728  0.41275500  1.0
  C  C33  1  0.63609134  0.01016411  0.52109750  1.0
  C  C34  1  0.62648682  0.51053657  0.98976275  1.0
  C  C35  1  0.11479603  0.47924645  0.48948977  1.0
  C  C36  1  0.66862141  0.10825781  0.54652221  1.0
  C  C37  1  0.56070937  0.43797526  0.89163103  1.0
  C  C38  1  0.12201108  0.45364823  0.56203765  1.0
  C  C39  1  0.79269721  0.15772525  0.58034507  1.0
  C  C40  1  0.63505041  0.42238310  0.84213673  1.0
  C  C41  1  0.21232855  0.41976676  0.57760024  1.0
  C  C42  1  0.72285302  0.20791063  0.59593194  1.0
  C  C43  1  0.51482242  0.38782836  0.79198164  1.0
  C  C44  1  0.12669586  0.40403033  0.61205761  1.0
  C  C45  1  0.51894997  0.20713944  0.57622769  1.0
  C  C46  1  0.31163528  0.36902269  0.79279976  1.0
  C  C47  1  0.94228290  0.42365316  0.63091427  1.0
  C  C48  1  0.40552791  0.15709107  0.53836309  1.0
  C  C49  1  0.24841852  0.38119730  0.84287964  1.0
  C  C50  1  0.86673894  0.46162425  0.61884106  1.0
  C  C51  1  0.47617911  0.10810183  0.52267278  1.0
  C  C52  1  0.36847100  0.41431794  0.89181976  1.0
  C  C53  1  0.95326047  0.47744559  0.58569269  1.0
  C  C54  1  0.41298634  0.25500376  0.59742204  1.0
  C  C55  1  0.15792665  0.34242808  0.74491101  1.0
  C  C56  1  0.81519233  0.40234023  0.65746768  1.0
  C  C57  1  0.36310450  0.94613608  0.47859741  1.0
  C  C58  1  0.41744464  0.53217665  0.05382078  1.0
  C  C59  1  0.88438932  0.52168007  0.46777723  1.0
  C  C60  1  0.03527661  0.88621717  0.42599613  1.0
  C  C61  1  0.14947996  0.53959676  0.11376007  1.0
  C  C62  1  0.60935177  0.57426582  0.46023909  1.0
  C  C63  1  0.08180392  0.83649948  0.41843876  1.0
  C  C64  1  0.24554803  0.58190950  0.16342263  1.0
  C  C65  1  0.66382578  0.58177146  0.41807619  1.0
  C  C66  1  0.93585414  0.79014480  0.39311498  1.0
  C  C67  1  0.14590542  0.60307034  0.20977853  1.0
  C  C68  1  0.54323599  0.60698611  0.39688396  1.0
  C  C69  1  0.73414251  0.79519424  0.37752749  1.0
  C  C70  1  0.93915218  0.58246253  0.20474937  1.0
  C  C71  1  0.35703937  0.62262308  0.41746671  1.0
  C  C72  1  0.69375294  0.84578105  0.38442610  1.0
  C  C73  1  0.84837855  0.53864885  0.15423573  1.0
  C  C74  1  0.30948421  0.61580051  0.46116183  1.0
  C  C75  1  0.83985700  0.89050134  0.40736951  1.0
  C  C76  1  0.94987334  0.51670049  0.10951554  1.0
  C  C77  1  0.43236658  0.59285688  0.48302386  1.0
  C  C78  1  0.56615466  0.75065221  0.35505286  1.0
  C  C79  1  0.81558328  0.60461385  0.24927811  1.0
  C  C80  1  0.21143554  0.64503851  0.39532677  1.0
  N  N81  1  0.73705576  0.97767735  0.53413141  1.0
  N  N82  1  0.75978064  0.55608653  0.02221496  1.0
  N  N83  1  0.20288554  0.46615018  0.44398359  1.0
  N  N84  1  0.74062275  0.06073996  0.53955983  1.0
  N  N85  1  0.68041672  0.47841944  0.93916310  1.0
  N  N86  1  0.20098366  0.46076672  0.52159183  1.0
  N  N87  1  0.45273586  0.99627777  0.49288811  1.0
  N  N88  1  0.45715760  0.49624499  0.00369951  1.0
  N  N89  1  0.95957316  0.50745182  0.50371596  1.0
  N  N90  1  0.17463544  0.93343959  0.45047288  1.0
  N  N91  1  0.24186473  0.51673934  0.06657195  1.0
  N  N92  1  0.72415513  0.54987825  0.48312761  1.0
  N  N93  1  0.44516636  0.91087467  0.49024149  1.0
  N  N94  1  0.53443450  0.57913986  0.08899633  1.0
  N  N95  1  0.95489355  0.50993386  0.42086488  1.0
  Cl  Cl96  1  0.74710883  0.88605900  0.53253970  1.0
  Cl  Cl97  1  0.86099201  0.64624836  0.11370623  1.0
  Cl  Cl98  1  0.21480180  0.46746791  0.35386522  1.0
  O  O99  1  0.23205696  0.25177794  0.57777517  1.0
  O  O100  1  0.98027733  0.32596476  0.74807400  1.0
  O  O101  1  0.65401648  0.42201142  0.67395437  1.0
  O  O102  1  0.50321603  0.29988322  0.63881787  1.0
  O  O103  1  0.20339646  0.33904319  0.70007612  1.0
  O  O104  1  0.86407294  0.36090004  0.66086387  1.0
  O  O105  1  0.84500031  0.25407933  0.62996990  1.0
  O  O106  1  0.59064242  0.37562827  0.74577354  1.0
  O  O107  1  0.21479586  0.36997819  0.62416644  1.0
  O  O108  1  0.38984410  0.75707102  0.34116765  1.0
  O  O109  1  0.63297057  0.58426910  0.24285678  1.0
  O  O110  1  0.04891453  0.65887122  0.41557510  1.0
  O  O111  1  0.59876882  0.70440864  0.35054119  1.0
  O  O112  1  0.89414327  0.64642653  0.29549449  1.0
  O  O113  1  0.24843390  0.64948738  0.35356504  1.0
  O  O114  1  0.99646016  0.74315492  0.38436019  1.0
  O  O115  1  0.25335585  0.64137111  0.25676356  1.0
  O  O116  1  0.61247708  0.61559824  0.35856011  1.0
