# generated using pymatgen
data_Zn2H13C40N14O32F9
_symmetry_space_group_name_H-M   'P 1'
_cell_length_a   14.65241560
_cell_length_b   15.93201221
_cell_length_c   17.15489949
_cell_angle_alpha   92.26498193
_cell_angle_beta   97.51714157
_cell_angle_gamma   90.62604944
_symmetry_Int_Tables_number   1
_chemical_formula_structural   Zn2H13C40N14O32F9
_chemical_formula_sum   'Zn2 H13 C40 N14 O32 F9'
_cell_volume   3966.63926183
_cell_formula_units_Z   1
loop_
 _symmetry_equiv_pos_site_id
 _symmetry_equiv_pos_as_xyz
  1  'x, y, z'
loop_
 _atom_site_type_symbol
 _atom_site_label
 _atom_site_symmetry_multiplicity
 _atom_site_fract_x
 _atom_site_fract_y
 _atom_site_fract_z
 _atom_site_occupancy
  Zn  Zn0  1  0.39990638  0.49637476  0.49454447  1.0
  Zn  Zn1  1  0.59135063  0.49474872  0.49619424  1.0
  H  H2  1  0.59893310  0.43402224  0.25331864  1.0
  H  H3  1  0.32823993  0.53760965  0.24537100  1.0
  H  H4  1  0.42109212  0.49401626  0.97315460  1.0
  H  H5  1  0.59924818  0.46295657  0.11143086  1.0
  H  H6  1  0.47058210  0.07361355  0.60944603  1.0
  H  H7  1  0.61664668  0.06071865  0.58009692  1.0
  H  H8  1  0.63949554  0.91995083  0.55604361  1.0
  H  H9  1  0.37407827  0.94553378  0.42309607  1.0
  H  H10  1  0.37392915  0.05947449  0.53649281  1.0
  H  H11  1  0.91716501  0.54615508  0.62222712  1.0
  H  H12  1  0.93981761  0.43719979  0.62138689  1.0
  H  H13  1  0.92737630  0.62245803  0.49897273  1.0
  H  H14  1  0.07951119  0.39607051  0.42563650  1.0
  C  C15  1  0.49466721  0.33663250  0.51300498  1.0
  C  C16  1  0.46801231  0.47526251  0.34523304  1.0
  C  C17  1  0.50324553  0.65511563  0.47809237  1.0
  C  C18  1  0.52230869  0.53171868  0.64470649  1.0
  C  C19  1  0.46405286  0.48417595  0.25833897  1.0
  C  C20  1  0.53977807  0.46259417  0.21991565  1.0
  C  C21  1  0.54008951  0.47924212  0.14110593  1.0
  C  C22  1  0.46529210  0.51875843  0.09860202  1.0
  C  C23  1  0.38889025  0.53679738  0.13760404  1.0
  C  C24  1  0.38747732  0.52029639  0.21645557  1.0
  C  C25  1  0.46163206  0.61167551  0.84374093  1.0
  C  C26  1  0.46012211  0.59897585  0.76284853  1.0
  C  C27  1  0.60094199  0.52333060  0.78421113  1.0
  C  C28  1  0.60090620  0.53478639  0.86530637  1.0
  C  C29  1  0.53125345  0.57840798  0.89688616  1.0
  C  C30  1  0.46749971  0.53342020  0.01477069  1.0
  C  C31  1  0.52684089  0.58225853  0.98248708  1.0
  C  C32  1  0.52976367  0.55412196  0.73153298  1.0
  C  C33  1  0.44638298  0.04353961  0.55175953  1.0
  C  C34  1  0.60334435  0.04595421  0.51646277  1.0
  C  C35  1  0.60511048  0.94919475  0.50367991  1.0
  C  C36  1  0.50576465  0.74586760  0.47797214  1.0
  C  C37  1  0.50466134  0.07977827  0.49010620  1.0
  C  C38  1  0.45649052  0.94858836  0.55675224  1.0
  C  C39  1  0.50466247  0.91252543  0.48555565  1.0
  C  C40  1  0.44601351  0.95044436  0.41207694  1.0
  C  C41  1  0.46360461  0.04448583  0.40623607  1.0
  C  C42  1  0.50457861  0.82184123  0.48067927  1.0
  C  C43  1  0.50285498  0.17042398  0.49797761  1.0
  C  C44  1  0.49740954  0.24569494  0.50892725  1.0
  C  C45  1  0.94661734  0.40709572  0.46601016  1.0
  C  C46  1  0.95074534  0.49555746  0.59202569  1.0
  C  C47  1  0.05310914  0.51695905  0.59744699  1.0
  C  C48  1  0.90851700  0.48672964  0.50416830  1.0
  C  C49  1  0.05318225  0.40747519  0.48188590  1.0
  C  C50  1  0.08911937  0.49537919  0.51762340  1.0
  C  C51  1  0.04394529  0.56083338  0.45681038  1.0
  C  C52  1  0.93923867  0.56621491  0.46248704  1.0
  C  C53  1  0.18835218  0.50128069  0.51864154  1.0
  C  C54  1  0.80871716  0.48524404  0.49743149  1.0
  N  N55  1  0.26404444  0.50504007  0.50668119  1.0
  N  N56  1  0.72959547  0.49018737  0.49258855  1.0
  N  N57  1  0.51327274  0.92300899  0.63611366  1.0
  N  N58  1  0.66377749  0.92279893  0.44024300  1.0
  N  N59  1  0.36695091  0.08868363  0.38212351  1.0
  N  N60  1  0.51925016  0.07336116  0.33991022  1.0
  N  N61  1  0.38418320  0.63532319  0.71017780  1.0
  N  N62  1  0.36025681  0.90898114  0.56300926  1.0
  N  N63  1  0.44009015  0.89778236  0.33384328  1.0
  N  N64  1  0.09377317  0.33745557  0.53434178  1.0
  N  N65  1  0.90329388  0.32303613  0.49251823  1.0
  N  N66  1  0.10912051  0.47411146  0.66907455  1.0
  N  N67  1  0.59083486  0.64242490  0.02957366  1.0
  N  N68  1  0.30853088  0.57703037  0.09506422  1.0
  O  O69  1  0.41563057  0.36872911  0.49814227  1.0
  O  O70  1  0.57207505  0.37448863  0.52941928  1.0
  O  O71  1  0.39464887  0.48984621  0.37545706  1.0
  O  O72  1  0.54579118  0.45682003  0.38246862  1.0
  O  O73  1  0.42754107  0.62278240  0.49130873  1.0
  O  O74  1  0.57653615  0.61757105  0.46600175  1.0
  O  O75  1  0.44280065  0.50670087  0.61384070  1.0
  O  O76  1  0.59427055  0.53833873  0.61178269  1.0
  O  O77  1  0.51050048  0.84799657  0.64905983  1.0
  O  O78  1  0.55747644  0.97873521  0.67715873  1.0
  O  O79  1  0.64763667  0.95592005  0.37642652  1.0
  O  O80  1  0.72344182  0.87077052  0.45882514  1.0
  O  O81  1  0.30157975  0.06135001  0.41258085  1.0
  O  O82  1  0.36644170  0.14750428  0.33862491  1.0
  O  O83  1  0.50324734  0.03393035  0.27665776  1.0
  O  O84  1  0.56898206  0.13562289  0.35550347  1.0
  O  O85  1  0.30497473  0.61323916  0.71861391  1.0
  O  O86  1  0.40591334  0.68587715  0.66282889  1.0
  O  O87  1  0.32175175  0.86567417  0.50733963  1.0
  O  O88  1  0.32992409  0.92888054  0.62458533  1.0
  O  O89  1  0.50309757  0.85087138  0.32264691  1.0
  O  O90  1  0.36685457  0.90604734  0.29077961  1.0
  O  O91  1  0.16166126  0.30312735  0.51423531  1.0
  O  O92  1  0.05589969  0.32406218  0.59314399  1.0
  O  O93  1  0.92742028  0.25973066  0.45852394  1.0
  O  O94  1  0.84846823  0.32920977  0.54064425  1.0
  O  O95  1  0.18755684  0.45206129  0.66093339  1.0
  O  O96  1  0.06984789  0.47098247  0.72767238  1.0
  O  O97  1  0.64960775  0.67598756  0.99438631  1.0
  O  O98  1  0.58194084  0.65619059  0.09971206  1.0
  O  O99  1  0.31198738  0.59227243  0.02469157  1.0
  O  O100  1  0.24211657  0.59289141  0.13046670  1.0
  F  F101  1  0.66811407  0.49969954  0.91408031  1.0
  F  F102  1  0.67296310  0.08509741  0.48355813  1.0
  F  F103  1  0.06937924  0.60136249  0.61642311  1.0
  F  F104  1  0.89062235  0.57342537  0.38900957  1.0
  F  F105  1  0.66844163  0.47699512  0.75856805  1.0
  F  F106  1  0.05853301  0.53349948  0.38300800  1.0
  F  F107  1  0.92081439  0.40431154  0.38611312  1.0
  F  F108  1  0.08537728  0.63751895  0.47103059  1.0
  F  F109  1  0.39559699  0.65737971  0.87215484  1.0
