# generated using pymatgen
data_Zn2H27C41N11
_symmetry_space_group_name_H-M   'P 1'
_cell_length_a   18.65458920
_cell_length_b   19.21350139
_cell_length_c   20.11456610
_cell_angle_alpha   102.70178973
_cell_angle_beta   106.82113183
_cell_angle_gamma   110.93906098
_symmetry_Int_Tables_number   1
_chemical_formula_structural   Zn2H27C41N11
_chemical_formula_sum   'Zn4 H54 C82 N22'
_cell_volume   6009.05595277
_cell_formula_units_Z   2
loop_
 _symmetry_equiv_pos_site_id
 _symmetry_equiv_pos_as_xyz
  1  'x, y, z'
loop_
 _atom_site_type_symbol
 _atom_site_label
 _atom_site_symmetry_multiplicity
 _atom_site_fract_x
 _atom_site_fract_y
 _atom_site_fract_z
 _atom_site_occupancy
  Zn  Zn0  1  0.39396201  0.39981493  0.50775650  1.0
  Zn  Zn1  1  0.61087275  0.59359469  0.53432386  1.0
  Zn  Zn2  1  0.39992477  0.50938782  0.40148220  1.0
  Zn  Zn3  1  0.59769524  0.48016899  0.61467546  1.0
  H  H4  1  0.32065404  0.22794608  0.38334721  1.0
  H  H5  1  0.62773418  0.89338285  0.64327190  1.0
  H  H6  1  0.69484111  0.03967151  0.70924145  1.0
  H  H7  1  0.64965736  0.50733873  0.39411482  1.0
  H  H8  1  0.68641800  0.16748010  0.72863631  1.0
  H  H9  1  0.33757957  0.11229325  0.56329240  1.0
  H  H10  1  0.26520180  0.96456533  0.52184254  1.0
  H  H11  1  0.27367024  0.83679638  0.50267181  1.0
  H  H12  1  0.04310228  0.41409594  0.29673868  1.0
  H  H13  1  0.07125720  0.32357088  0.47592309  1.0
  H  H14  1  0.95489250  0.27154159  0.51370015  1.0
  H  H15  1  0.64082746  0.78040983  0.58463119  1.0
  H  H16  1  0.82190854  0.26823243  0.51634851  1.0
  H  H17  1  0.71835652  0.31965439  0.48663160  1.0
  H  H18  1  0.36384626  0.57221137  0.24701082  1.0
  H  H19  1  0.68767538  0.41480334  0.31067223  1.0
  H  H20  1  0.77674469  0.41626439  0.23756402  1.0
  H  H21  1  0.90782929  0.41702520  0.23333233  1.0
  H  H22  1  0.38105560  0.61924954  0.15090525  1.0
  H  H23  1  0.40118829  0.66327465  0.04749990  1.0
  H  H24  1  0.36631097  0.66432651  0.84782232  1.0
  H  H25  1  0.36671203  0.62389952  0.72139005  1.0
  H  H26  1  0.20091145  0.48249068  0.34880065  1.0
  H  H27  1  0.64294155  0.67481125  0.24532995  1.0
  H  H28  1  0.62831648  0.72672349  0.94777678  1.0
  H  H29  1  0.60300419  0.35670595  0.69477021  1.0
  H  H30  1  0.63016269  0.68686039  0.82321478  1.0
  H  H31  1  0.82199747  0.69439697  0.89322483  1.0
  H  H32  1  0.06358524  0.02849149  0.17454493  1.0
  H  H33  1  0.18660353  0.13708828  0.28503294  1.0
  H  H34  1  0.85975471  0.86092932  0.77860693  1.0
  H  H35  1  0.12918202  0.15875684  0.03566683  1.0
  H  H36  1  0.94168148  0.97288061  0.90108651  1.0
  H  H37  1  0.75854192  0.58817779  0.78025285  1.0
  H  H38  1  0.25476686  0.26712716  0.14557224  1.0
  H  H39  1  0.62301537  0.61338987  0.32425398  1.0
  H  H40  1  0.34454814  0.22819558  0.53512602  1.0
  H  H41  1  0.61191089  0.33591248  0.50506891  1.0
  H  H42  1  0.34142862  0.38198218  0.25442335  1.0
  H  H43  1  0.36156736  0.51545334  0.61833293  1.0
  H  H44  1  0.60515985  0.24043186  0.69343513  1.0
  H  H45  1  0.67707263  0.73710174  0.09333213  1.0
  H  H46  1  0.80304440  0.74821344  0.17223782  1.0
  H  H47  1  0.73684219  0.66042139  0.18163499  1.0
  H  H48  1  0.77605730  0.75763930  0.66780370  1.0
  H  H49  1  0.77151724  0.75706663  0.24749764  1.0
  H  H50  1  0.86884457  0.73864744  0.01513490  1.0
  H  H51  1  0.89428261  0.89091089  0.10279749  1.0
  H  H52  1  0.99111725  0.88609156  0.13034836  1.0
  H  H53  1  0.90154513  0.81144091  0.13227084  1.0
  H  H54  1  0.19346515  0.33298477  0.48168110  1.0
  H  H55  1  0.63047948  0.65767293  0.70614561  1.0
  H  H56  1  0.36987195  0.64672855  0.48454288  1.0
  H  H57  1  0.36078614  0.76488718  0.51066207  1.0
  C  C58  1  0.33489254  0.27636746  0.36218623  1.0
  C  C59  1  0.20916426  0.37377651  0.45261462  1.0
  C  C60  1  0.56509344  0.61463604  0.67440578  1.0
  C  C61  1  0.63632244  0.47220337  0.42836354  1.0
  C  C62  1  0.43736139  0.66840978  0.50446131  1.0
  C  C63  1  0.49599369  0.60813046  0.69117115  1.0
  C  C64  1  0.50253737  0.74621870  0.54754945  1.0
  C  C65  1  0.15719722  0.39603933  0.40516945  1.0
  C  C66  1  0.79085408  0.70220031  0.75578501  1.0
  C  C67  1  0.41710585  0.82055167  0.54710724  1.0
  C  C68  1  0.49537633  0.81998127  0.57296445  1.0
  C  C69  1  0.64698841  0.40381807  0.43155084  1.0
  C  C70  1  0.56654477  0.89247982  0.62064197  1.0
  C  C71  1  0.56196902  0.96510189  0.63863417  1.0
  C  C72  1  0.48278698  0.96548915  0.60837754  1.0
  C  C73  1  0.42571655  0.57688321  0.27439757  1.0
  C  C74  1  0.40920550  0.89152598  0.56384537  1.0
  C  C75  1  0.63476602  0.04013838  0.68419524  1.0
  C  C76  1  0.63010959  0.11085064  0.69501005  1.0
  C  C77  1  0.55216177  0.11296507  0.66118319  1.0
  C  C78  1  0.47787470  0.03891674  0.61951861  1.0
  C  C79  1  0.39934460  0.03946686  0.58606528  1.0
  C  C80  1  0.49852810  0.60886443  0.26093447  1.0
  C  C81  1  0.32556540  0.96418714  0.54556867  1.0
  C  C82  1  0.33026635  0.89345923  0.53495342  1.0
  C  C83  1  0.54723812  0.18455577  0.66416338  1.0
  C  C84  1  0.47130462  0.18544470  0.62705210  1.0
  C  C85  1  0.54015306  0.33641259  0.65379316  1.0
  C  C86  1  0.39761175  0.11277093  0.59080697  1.0
  C  C87  1  0.01819860  0.38929403  0.33367994  1.0
  C  C88  1  0.06856848  0.37309305  0.38894638  1.0
  C  C89  1  0.03349513  0.33736679  0.43315532  1.0
  C  C90  1  0.95289145  0.32357076  0.42777879  1.0
  C  C91  1  0.47169666  0.26002845  0.62067894  1.0
  C  C92  1  0.90492906  0.34700788  0.37612018  1.0
  C  C93  1  0.93709665  0.37729677  0.32662666  1.0
  C  C94  1  0.91911741  0.29188963  0.47620822  1.0
  C  C95  1  0.84585142  0.29010185  0.47768092  1.0
  C  C96  1  0.80066789  0.32058689  0.43134872  1.0
  C  C97  1  0.55793268  0.59808106  0.31477006  1.0
  C  C98  1  0.82910057  0.34580953  0.37806808  1.0
  C  C99  1  0.78443379  0.37592057  0.33136894  1.0
  C  C100  1  0.81322594  0.39775286  0.27656908  1.0
  C  C101  1  0.88599685  0.39825240  0.27423417  1.0
  C  C102  1  0.42777582  0.54279548  0.62910264  1.0
  C  C103  1  0.73504178  0.33367433  0.44185645  1.0
  C  C104  1  0.69707451  0.37199717  0.40239980  1.0
  C  C105  1  0.71897291  0.38832064  0.34431056  1.0
  C  C106  1  0.49740617  0.64859986  0.76258476  1.0
  C  C107  1  0.57188345  0.68230494  0.82785589  1.0
  C  C108  1  0.57146630  0.70478375  0.89796648  1.0
  C  C109  1  0.40862336  0.27127197  0.57257952  1.0
  C  C110  1  0.49583928  0.69433603  0.90561755  1.0
  C  C111  1  0.42369610  0.66932680  0.84109378  1.0
  C  C112  1  0.42436352  0.64638522  0.77076580  1.0
  C  C113  1  0.57536424  0.73655373  0.55547400  1.0
  C  C114  1  0.45370547  0.66684691  0.09215624  1.0
  C  C115  1  0.44288353  0.64199322  0.14939533  1.0
  C  C116  1  0.53228973  0.69371975  0.08711298  1.0
  C  C117  1  0.51076048  0.64219187  0.20470515  1.0
  C  C118  1  0.59016039  0.67299599  0.20249213  1.0
  C  C119  1  0.60289246  0.69976504  0.14546875  1.0
  C  C120  1  0.23147877  0.20954228  0.22356601  1.0
  C  C121  1  0.61730596  0.38499949  0.48526301  1.0
  C  C122  1  0.21315454  0.21516313  0.15250233  1.0
  C  C123  1  0.14325532  0.15513167  0.09096850  1.0
  C  C124  1  0.21295716  0.44954981  0.38464615  1.0
  C  C125  1  0.08968816  0.08621014  0.09759591  1.0
  C  C126  1  0.10618786  0.08070414  0.16875451  1.0
  C  C127  1  0.17558587  0.14134910  0.23008946  1.0
  C  C128  1  0.89249587  0.81850571  0.96446868  1.0
  C  C129  1  0.84869230  0.75551593  0.89414760  1.0
  C  C130  1  0.92992533  0.89841356  0.96605211  1.0
  C  C131  1  0.83781583  0.76872418  0.82736553  1.0
  C  C132  1  0.86957173  0.84871173  0.83005601  1.0
  C  C133  1  0.34612295  0.35449651  0.29623612  1.0
  C  C134  1  0.91427315  0.91107105  0.89770756  1.0
  C  C135  1  0.75479486  0.61963027  0.74162965  1.0
  C  C136  1  0.30189677  0.27467436  0.28913978  1.0
  C  C137  1  0.75055351  0.72307261  0.18801103  1.0
  C  C138  1  0.92278940  0.84968714  0.10172140  1.0
  C  C139  1  0.76346555  0.70574479  0.68411950  1.0
  N  N140  1  0.39216649  0.35151991  0.40867475  1.0
  N  N141  1  0.54597267  0.70575569  0.02583655  1.0
  N  N142  1  0.02604769  0.02686424  0.03038607  1.0
  N  N143  1  0.60542817  0.49308223  0.47812662  1.0
  N  N144  1  0.98655314  0.95936075  0.03464082  1.0
  N  N145  1  0.44241490  0.55007694  0.33085713  1.0
  N  N146  1  0.51965257  0.38834421  0.62713084  1.0
  N  N147  1  0.52471850  0.56333961  0.35640658  1.0
  N  N148  1  0.43760652  0.34763078  0.57618228  1.0
  N  N149  1  0.59367988  0.43915805  0.51316695  1.0
  N  N150  1  0.39851090  0.40004508  0.36788680  1.0
  N  N151  1  0.55430907  0.65957548  0.51893730  1.0
  N  N152  1  0.45532868  0.51242408  0.58088197  1.0
  N  N153  1  0.67980320  0.73012803  0.14256002  1.0
  N  N154  1  0.89752266  0.79811146  0.02617953  1.0
  N  N155  1  0.29145210  0.45836640  0.41761546  1.0
  N  N156  1  0.70871480  0.57808953  0.66813501  1.0
  N  N157  1  0.71384941  0.63186691  0.63216964  1.0
  N  N158  1  0.28847509  0.41084974  0.45967385  1.0
  N  N159  1  0.54068530  0.55610242  0.60837610  1.0
  N  N160  1  0.46887394  0.61728426  0.48792652  1.0
  N  N161  1  0.48356568  0.69865907  0.97178959  1.0
