# generated using pymatgen
data_Zn4H24(C14O5)3
_symmetry_space_group_name_H-M   'P 1'
_cell_length_a   17.32435823
_cell_length_b   19.82938894
_cell_length_c   27.30763546
_cell_angle_alpha   89.99985438
_cell_angle_beta   89.99987957
_cell_angle_gamma   89.99994729
_symmetry_Int_Tables_number   1
_chemical_formula_structural   Zn4H24(C14O5)3
_chemical_formula_sum   'Zn16 H96 C168 O60'
_cell_volume   9381.03126366
_cell_formula_units_Z   4
loop_
 _symmetry_equiv_pos_site_id
 _symmetry_equiv_pos_as_xyz
  1  'x, y, z'
loop_
 _atom_site_type_symbol
 _atom_site_label
 _atom_site_symmetry_multiplicity
 _atom_site_fract_x
 _atom_site_fract_y
 _atom_site_fract_z
 _atom_site_occupancy
  Zn  Zn0  1  0.72792981  0.16989380  0.40550939  1.0
  Zn  Zn1  1  0.77207110  0.83010790  0.90550517  1.0
  Zn  Zn2  1  0.27207281  0.66989191  0.59449337  1.0
  Zn  Zn3  1  0.22792730  0.33010775  0.09449656  1.0
  Zn  Zn4  1  0.27207099  0.83010713  0.59449432  1.0
  Zn  Zn5  1  0.22792854  0.16989303  0.09448975  1.0
  Zn  Zn6  1  0.72792915  0.33010700  0.40550887  1.0
  Zn  Zn7  1  0.77206715  0.66989419  0.90550898  1.0
  Zn  Zn8  1  0.59924978  0.24999980  0.34500764  1.0
  Zn  Zn9  1  0.90075018  0.74999757  0.84500889  1.0
  Zn  Zn10  1  0.40075218  0.75000062  0.65499204  1.0
  Zn  Zn11  1  0.09925062  0.24999731  0.15499298  1.0
  Zn  Zn12  1  0.59334518  0.25000111  0.46292741  1.0
  Zn  Zn13  1  0.90665554  0.75000140  0.96292682  1.0
  Zn  Zn14  1  0.40665504  0.74999881  0.53707373  1.0
  Zn  Zn15  1  0.09334468  0.25000105  0.03707286  1.0
  H  H16  1  0.76289725  0.02148611  0.50819250  1.0
  H  H17  1  0.73709574  0.97850993  0.00819668  1.0
  H  H18  1  0.23710206  0.52148813  0.49180686  1.0
  H  H19  1  0.26290250  0.47851769  0.99180880  1.0
  H  H20  1  0.23709662  0.97851482  0.49180425  1.0
  H  H21  1  0.26290101  0.02148798  0.99180446  1.0
  H  H22  1  0.76290335  0.47851280  0.50819538  1.0
  H  H23  1  0.73710061  0.52148727  0.00819490  1.0
  H  H24  1  0.64095138  0.16280906  0.59867411  1.0
  H  H25  1  0.85905170  0.83718767  0.09867362  1.0
  H  H26  1  0.35905240  0.66280929  0.40132500  1.0
  H  H27  1  0.14095766  0.33719030  0.90132919  1.0
  H  H28  1  0.35904884  0.83718733  0.40132777  1.0
  H  H29  1  0.14095083  0.16281427  0.90132386  1.0
  H  H30  1  0.64094840  0.33718811  0.59867395  1.0
  H  H31  1  0.85904891  0.66281315  0.09867342  1.0
  H  H32  1  0.68853631  0.10285396  0.67301268  1.0
  H  H33  1  0.81146825  0.89714654  0.17301325  1.0
  H  H34  1  0.31146407  0.60285046  0.32698837  1.0
  H  H35  1  0.18854220  0.39714586  0.82698909  1.0
  H  H36  1  0.31146968  0.89714647  0.32698883  1.0
  H  H37  1  0.18853601  0.10285238  0.82698680  1.0
  H  H38  1  0.68853096  0.39714644  0.67301351  1.0
  H  H39  1  0.81146437  0.60285507  0.17301352  1.0
  H  H40  1  0.88894100  0.96508573  0.65609048  1.0
  H  H41  1  0.61106074  0.03491281  0.15609107  1.0
  H  H42  1  0.11105553  0.46508630  0.34391210  1.0
  H  H43  1  0.38894259  0.53491702  0.84391047  1.0
  H  H44  1  0.11106557  0.03491167  0.34390884  1.0
  H  H45  1  0.38893717  0.96508610  0.84391081  1.0
  H  H46  1  0.88893372  0.53491160  0.65609197  1.0
  H  H47  1  0.61106340  0.46508643  0.15608921  1.0
  H  H48  1  0.66090238  0.00450695  0.71221245  1.0
  H  H49  1  0.83909802  0.99549240  0.21221609  1.0
  H  H50  1  0.33909349  0.50450507  0.28778622  1.0
  H  H51  1  0.16090656  0.49549239  0.78778716  1.0
  H  H52  1  0.33910246  0.99549297  0.28778357  1.0
  H  H53  1  0.16089931  0.00450550  0.78778468  1.0
  H  H54  1  0.66089519  0.49549333  0.71221639  1.0
  H  H55  1  0.83910059  0.50450703  0.21221545  1.0
  H  H56  1  0.91844907  0.89741381  0.73033862  1.0
  H  H57  1  0.58155069  0.10258649  0.23033949  1.0
  H  H58  1  0.08154637  0.39741467  0.26966628  1.0
  H  H59  1  0.41845027  0.60258639  0.76966156  1.0
  H  H60  1  0.08155173  0.10258511  0.26966033  1.0
  H  H61  1  0.41845126  0.89741394  0.76966165  1.0
  H  H62  1  0.91844519  0.60258626  0.73033852  1.0
  H  H63  1  0.58155053  0.39741202  0.23033739  1.0
  H  H64  1  0.69366256  0.94138388  0.78815442  1.0
  H  H65  1  0.80633874  0.05861672  0.28815801  1.0
  H  H66  1  0.30633053  0.44138124  0.21184453  1.0
  H  H67  1  0.19366399  0.55861700  0.71184385  1.0
  H  H68  1  0.30634401  0.05862007  0.21184123  1.0
  H  H69  1  0.19366321  0.94138018  0.71184277  1.0
  H  H70  1  0.69365584  0.55862171  0.78815661  1.0
  H  H71  1  0.80634027  0.44137990  0.28815582  1.0
  H  H72  1  0.81982059  0.93591107  0.54700824  1.0
  H  H73  1  0.68017804  0.06408886  0.04701015  1.0
  H  H74  1  0.18017597  0.43591322  0.45299329  1.0
  H  H75  1  0.31982122  0.56409425  0.95299097  1.0
  H  H76  1  0.18018424  0.06409037  0.45298851  1.0
  H  H77  1  0.31981756  0.93591207  0.95299063  1.0
  H  H78  1  0.81982021  0.56408821  0.54701114  1.0
  H  H79  1  0.68018535  0.43590920  0.04700907  1.0
  H  H80  1  0.36420792  0.24999994  0.31979140  1.0
  H  H81  1  0.13579433  0.75000448  0.81978788  1.0
  H  H82  1  0.63579923  0.74999847  0.68020901  1.0
  H  H83  1  0.86420070  0.25000049  0.18020777  1.0
  H  H84  1  0.35346267  0.24999916  0.47685041  1.0
  H  H85  1  0.14653155  0.75000369  0.97684944  1.0
  H  H86  1  0.64653177  0.74999824  0.52314890  1.0
  H  H87  1  0.85346867  0.24999674  0.02314804  1.0
  H  H88  1  0.20928591  0.25000074  0.47281721  1.0
  H  H89  1  0.29070775  0.75000364  0.97281494  1.0
  H  H90  1  0.79070911  0.74999918  0.52717918  1.0
  H  H91  1  0.70929247  0.24999628  0.02717924  1.0
  H  H92  1  0.21995381  0.25000051  0.31537515  1.0
  H  H93  1  0.28004845  0.75000190  0.81537693  1.0
  H  H94  1  0.78005334  0.74999740  0.68461940  1.0
  H  H95  1  0.71994831  0.25000054  0.18461872  1.0
  H  H96  1  0.11038489  0.14165366  0.39225785  1.0
  H  H97  1  0.38961134  0.85834949  0.89226478  1.0
  H  H98  1  0.88961429  0.64165023  0.60773910  1.0
  H  H99  1  0.61038645  0.35834647  0.10773690  1.0
  H  H100  1  0.88961186  0.85834475  0.60773523  1.0
  H  H101  1  0.61038715  0.14164791  0.10773893  1.0
  H  H102  1  0.11038420  0.35834768  0.39225655  1.0
  H  H103  1  0.38961030  0.64165245  0.89226058  1.0
  H  H104  1  0.96599060  0.14189285  0.39886020  1.0
  H  H105  1  0.53400860  0.85810585  0.89886723  1.0
  H  H106  1  0.03401031  0.64189668  0.60113748  1.0
  H  H107  1  0.46598862  0.35810296  0.10113701  1.0
  H  H108  1  0.03400731  0.85810707  0.60113655  1.0
  H  H109  1  0.46598989  0.14189609  0.10113611  1.0
  H  H110  1  0.96598818  0.35810325  0.39885926  1.0
  H  H111  1  0.53400698  0.64189545  0.89886450  1.0
  C  C112  1  0.67411931  0.13151425  0.50369921  1.0
  C  C113  1  0.82587774  0.86848583  0.00370054  1.0
  C  C114  1  0.32588162  0.63151569  0.49630178  1.0
  C  C115  1  0.17412697  0.36848760  0.99630294  1.0
  C  C116  1  0.32587687  0.86848466  0.49630120  1.0
  C  C117  1  0.17411959  0.13151560  0.99629950  1.0
  C  C118  1  0.67412149  0.36848575  0.50370046  1.0
  C  C119  1  0.82587902  0.63151585  0.00369966  1.0
  C  C120  1  0.69857095  0.09511919  0.54890820  1.0
  C  C121  1  0.80142768  0.90487872  0.04890986  1.0
  C  C122  1  0.30143348  0.59511829  0.45109250  1.0
  C  C123  1  0.19857642  0.40488264  0.95109356  1.0
  C  C124  1  0.30143043  0.90488224  0.45109258  1.0
  C  C125  1  0.19856965  0.09512121  0.95109055  1.0
  C  C126  1  0.69857252  0.40487861  0.54890828  1.0
  C  C127  1  0.80143015  0.59512131  0.04890905  1.0
  C  C128  1  0.74610579  0.03852288  0.54469914  1.0
  C  C129  1  0.75389458  0.96147605  0.04470039  1.0
  C  C130  1  0.25389639  0.53852301  0.45530093  1.0
  C  C131  1  0.24610830  0.46147891  0.95530329  1.0
  C  C132  1  0.25389558  0.96147855  0.45530017  1.0
  C  C133  1  0.24610621  0.03852740  0.95530001  1.0
  C  C134  1  0.74610845  0.46147389  0.54469948  1.0
  C  C135  1  0.75389596  0.53852504  0.04469932  1.0
  C  C136  1  0.67716054  0.11815059  0.59547538  1.0
  C  C137  1  0.82284082  0.88184514  0.09547780  1.0
  C  C138  1  0.32284386  0.61815134  0.40452600  1.0
  C  C139  1  0.17716388  0.38184824  0.90452603  1.0
  C  C140  1  0.32284141  0.88184681  0.40452539  1.0
  C  C141  1  0.17715536  0.11815277  0.90452225  1.0
  C  C142  1  0.67715752  0.38184656  0.59547661  1.0
  C  C143  1  0.82284038  0.61815471  0.09547621  1.0
  C  C144  1  0.70358975  0.08413635  0.63670306  1.0
  C  C145  1  0.79641320  0.91586176  0.13670508  1.0
  C  C146  1  0.29640833  0.58413777  0.36329949  1.0
  C  C147  1  0.20359492  0.41586296  0.86329979  1.0
  C  C148  1  0.29641393  0.91586206  0.36329772  1.0
  C  C149  1  0.20358586  0.08413665  0.86329643  1.0
  C  C150  1  0.70358438  0.41586215  0.63670385  1.0
  C  C151  1  0.79641222  0.58413898  0.13670319  1.0
  C  C152  1  0.77142443  0.00420051  0.58619743  1.0
  C  C153  1  0.72857639  0.99580130  0.08619866  1.0
  C  C154  1  0.22857663  0.50419979  0.41380416  1.0
  C  C155  1  0.27142530  0.49580328  0.91380422  1.0
  C  C156  1  0.22858099  0.99580092  0.41380188  1.0
  C  C157  1  0.27142153  0.00420165  0.91380211  1.0
  C  C158  1  0.77142243  0.49579811  0.58619771  1.0
  C  C159  1  0.72857954  0.50420269  0.08619729  1.0
  C  C160  1  0.75046656  0.02628029  0.63362043  1.0
  C  C161  1  0.74953583  0.97372186  0.13362167  1.0
  C  C162  1  0.24953043  0.52628224  0.36638076  1.0
  C  C163  1  0.25047166  0.47372049  0.86638162  1.0
  C  C164  1  0.24953654  0.97372014  0.36637778  1.0
  C  C165  1  0.25046439  0.02627756  0.86637911  1.0
  C  C166  1  0.75046113  0.47372171  0.63362148  1.0
  C  C167  1  0.74953722  0.52627943  0.13362135  1.0
  C  C168  1  0.77243446  0.98928870  0.67842970  1.0
  C  C169  1  0.72756604  0.01071229  0.17843128  1.0
  C  C170  1  0.22755973  0.48929128  0.32157063  1.0
  C  C171  1  0.27243616  0.51071414  0.82157176  1.0
  C  C172  1  0.22757095  0.01071122  0.32156851  1.0
  C  C173  1  0.27243244  0.98928511  0.82156986  1.0
  C  C174  1  0.77242664  0.51071167  0.67843051  1.0
  C  C175  1  0.72756867  0.48928780  0.17843011  1.0
  C  C176  1  0.84546806  0.95927916  0.68452175  1.0
  C  C177  1  0.65453416  0.04071928  0.18452191  1.0
  C  C178  1  0.15452790  0.45928232  0.31547974  1.0
  C  C179  1  0.34546859  0.54072160  0.81548035  1.0
  C  C180  1  0.15453563  0.04071824  0.31547683  1.0
  C  C181  1  0.34546663  0.95927963  0.81547740  1.0
  C  C182  1  0.84546366  0.54071861  0.68452324  1.0
  C  C183  1  0.65453452  0.45927983  0.18452152  1.0
  C  C184  1  0.71829214  0.98276803  0.71660222  1.0
  C  C185  1  0.78171113  0.01723383  0.21660408  1.0
  C  C186  1  0.28170437  0.48276919  0.28339923  1.0
  C  C187  1  0.21829396  0.51723384  0.78339859  1.0
  C  C188  1  0.28171558  0.01723442  0.28339526  1.0
  C  C189  1  0.21828794  0.98276508  0.78339743  1.0
  C  C190  1  0.71828431  0.51723175  0.71660411  1.0
  C  C191  1  0.78171261  0.48276709  0.21660365  1.0
  C  C192  1  0.86256417  0.92198696  0.72626175  1.0
  C  C193  1  0.63743791  0.07801335  0.22626186  1.0
  C  C194  1  0.13743241  0.42198776  0.27374054  1.0
  C  C195  1  0.36256480  0.57801429  0.77373886  1.0
  C  C196  1  0.13743894  0.07801196  0.27373939  1.0
  C  C197  1  0.36256404  0.92198859  0.77373855  1.0
  C  C198  1  0.86255973  0.57801115  0.72626060  1.0
  C  C199  1  0.63743773  0.42198916  0.22626118  1.0
  C  C200  1  0.73588062  0.94696957  0.75887650  1.0
  C  C201  1  0.76412078  0.05303315  0.25887795  1.0
  C  C202  1  0.26411477  0.44696685  0.24112538  1.0
  C  C203  1  0.23588254  0.55303179  0.74112428  1.0
  C  C204  1  0.26412653  0.05303540  0.24112062  1.0
  C  C205  1  0.23587887  0.94696425  0.74112356  1.0
  C  C206  1  0.73587275  0.55303610  0.75887723  1.0
  C  C207  1  0.76412461  0.44696511  0.25887686  1.0
  C  C208  1  0.80777824  0.91523028  0.76371066  1.0
  C  C209  1  0.69222372  0.08477243  0.26371105  1.0
  C  C210  1  0.19221892  0.41522511  0.23629091  1.0
  C  C211  1  0.30777899  0.58477304  0.73629039  1.0
  C  C212  1  0.19222775  0.08477267  0.23628829  1.0
  C  C213  1  0.30777650  0.91522800  0.73629009  1.0
  C  C214  1  0.80776976  0.58477430  0.76371060  1.0
  C  C215  1  0.69222527  0.41522638  0.26371038  1.0
  C  C216  1  0.82361024  0.87251783  0.80743582  1.0
  C  C217  1  0.67638696  0.12748119  0.30743799  1.0
  C  C218  1  0.17637773  0.37251637  0.19256766  1.0
  C  C219  1  0.32361685  0.62748194  0.69256375  1.0
  C  C220  1  0.17638941  0.12748158  0.19256166  1.0
  C  C221  1  0.32361615  0.87251823  0.69256425  1.0
  C  C222  1  0.82360979  0.62748406  0.80743715  1.0
  C  C223  1  0.67638972  0.37251496  0.30743630  1.0
  C  C224  1  0.45338223  0.24999926  0.40091737  1.0
  C  C225  1  0.04661628  0.75000487  0.90091470  1.0
  C  C226  1  0.54661914  0.74999562  0.59908414  1.0
  C  C227  1  0.95338220  0.24999707  0.09908278  1.0
  C  C228  1  0.36735711  0.24999980  0.39855545  1.0
  C  C229  1  0.13264025  0.75000686  0.89855267  1.0
  C  C230  1  0.63264368  0.74999760  0.60144459  1.0
  C  C231  1  0.86735766  0.24999659  0.10144335  1.0
  C  C232  1  0.32958032  0.24999939  0.35309530  1.0
  C  C233  1  0.17042182  0.75000440  0.85309173  1.0
  C  C234  1  0.67042394  0.74999801  0.64690328  1.0
  C  C235  1  0.82957610  0.24999854  0.14690209  1.0
  C  C236  1  0.32363710  0.25000075  0.44171777  1.0
  C  C237  1  0.17635378  0.75000677  0.94171529  1.0
  C  C238  1  0.67635908  0.74999715  0.55828118  1.0
  C  C239  1  0.82364356  0.24999719  0.05828072  1.0
  C  C240  1  0.24342749  0.24999927  0.43923830  1.0
  C  C241  1  0.25656455  0.75000018  0.93923754  1.0
  C  C242  1  0.75657157  0.74999863  0.56075845  1.0
  C  C243  1  0.74343048  0.24999873  0.06075774  1.0
  C  C244  1  0.24923565  0.24999943  0.35074216  1.0
  C  C245  1  0.25076419  0.75000135  0.85074215  1.0
  C  C246  1  0.75076804  0.74999747  0.64925422  1.0
  C  C247  1  0.74923257  0.24999958  0.14925313  1.0
  C  C248  1  0.20529513  0.24999937  0.39385211  1.0
  C  C249  1  0.29470398  0.75000075  0.89385497  1.0
  C  C250  1  0.79470567  0.74999955  0.60614170  1.0
  C  C251  1  0.70529681  0.24999917  0.10614068  1.0
  C  C252  1  0.11945184  0.25000041  0.39310879  1.0
  C  C253  1  0.38054670  0.75000022  0.89311300  1.0
  C  C254  1  0.88054954  0.74999850  0.60688503  1.0
  C  C255  1  0.61945236  0.24999920  0.10688302  1.0
  C  C256  1  0.07853722  0.18894610  0.39404304  1.0
  C  C257  1  0.42146074  0.81105452  0.89404965  1.0
  C  C258  1  0.92146191  0.68894517  0.60595089  1.0
  C  C259  1  0.57853595  0.31105254  0.10594882  1.0
  C  C260  1  0.92146300  0.81105231  0.60594894  1.0
  C  C261  1  0.57854121  0.18894237  0.10594856  1.0
  C  C262  1  0.07853773  0.31105374  0.39404403  1.0
  C  C263  1  0.42145965  0.68894587  0.89404793  1.0
  C  C264  1  0.99834791  0.18898053  0.39754804  1.0
  C  C265  1  0.50165129  0.81102070  0.89754789  1.0
  C  C266  1  0.00165237  0.68898034  0.60245248  1.0
  C  C267  1  0.49834424  0.31101929  0.10245021  1.0
  C  C268  1  0.00165404  0.81102141  0.60245200  1.0
  C  C269  1  0.49834893  0.18897771  0.10245179  1.0
  C  C270  1  0.99834842  0.31101706  0.39754903  1.0
  C  C271  1  0.50165021  0.68898063  0.89754946  1.0
  C  C272  1  0.95770337  0.24999906  0.39995394  1.0
  C  C273  1  0.54229121  0.74999963  0.89995603  1.0
  C  C274  1  0.04229512  0.74999985  0.60004647  1.0
  C  C275  1  0.45770497  0.24999726  0.10004584  1.0
  C  C276  1  0.87202284  0.24999908  0.40494930  1.0
  C  C277  1  0.62797230  0.75000110  0.90495311  1.0
  C  C278  1  0.12797680  0.74999932  0.59505038  1.0
  C  C279  1  0.37202503  0.24999831  0.09504949  1.0
  O  O280  1  0.70889296  0.11534134  0.46402934  1.0
  O  O281  1  0.79110429  0.88465864  0.96403013  1.0
  O  O282  1  0.29110856  0.61534267  0.53597095  1.0
  O  O283  1  0.20889983  0.38465921  0.03597296  1.0
  O  O284  1  0.29110610  0.88465909  0.53597143  1.0
  O  O285  1  0.20889073  0.11534229  0.03596918  1.0
  O  O286  1  0.70889513  0.38465877  0.46403056  1.0
  O  O287  1  0.79110905  0.61534121  0.96402965  1.0
  O  O288  1  0.62126537  0.17586510  0.50808992  1.0
  O  O289  1  0.87873166  0.82413446  0.00808980  1.0
  O  O290  1  0.37873609  0.67586651  0.49191026  1.0
  O  O291  1  0.12127136  0.32413679  0.99191194  1.0
  O  O292  1  0.37873139  0.82413583  0.49191086  1.0
  O  O293  1  0.12126509  0.17586848  0.99190878  1.0
  O  O294  1  0.62126587  0.32413593  0.50808942  1.0
  O  O295  1  0.87873463  0.67586464  0.00809030  1.0
  O  O296  1  0.78021116  0.88181510  0.84468660  1.0
  O  O297  1  0.71978880  0.11819186  0.34468762  1.0
  O  O298  1  0.21978084  0.38180717  0.15531797  1.0
  O  O299  1  0.28021502  0.61819026  0.65531413  1.0
  O  O300  1  0.21978849  0.11819088  0.15531015  1.0
  O  O301  1  0.28021200  0.88180857  0.65531608  1.0
  O  O302  1  0.78020726  0.61819124  0.84468647  1.0
  O  O303  1  0.71978924  0.38180866  0.34468701  1.0
  O  O304  1  0.87825240  0.82945043  0.80400089  1.0
  O  O305  1  0.62174365  0.17054658  0.30400195  1.0
  O  O306  1  0.12173099  0.32945353  0.19599974  1.0
  O  O307  1  0.37826416  0.67054426  0.69599751  1.0
  O  O308  1  0.12174320  0.17054546  0.19599769  1.0
  O  O309  1  0.37826350  0.82945586  0.69599846  1.0
  O  O310  1  0.87825653  0.67054689  0.80400213  1.0
  O  O311  1  0.62174530  0.32945062  0.30400107  1.0
  O  O312  1  0.81593640  0.94719476  0.58162895  1.0
  O  O313  1  0.68406269  0.05280404  0.08162941  1.0
  O  O314  1  0.18406014  0.44719553  0.41837329  1.0
  O  O315  1  0.31593312  0.55281157  0.91837136  1.0
  O  O316  1  0.18407132  0.05280818  0.41836743  1.0
  O  O317  1  0.31592887  0.94719286  0.91836917  1.0
  O  O318  1  0.81593200  0.55280540  0.58163188  1.0
  O  O319  1  0.68407287  0.44719239  0.08163051  1.0
  O  O320  1  0.48907078  0.24999982  0.36002586  1.0
  O  O321  1  0.01092441  0.75001000  0.86002250  1.0
  O  O322  1  0.51093060  0.74999153  0.63997602  1.0
  O  O323  1  0.98906946  0.24999396  0.13997498  1.0
  O  O324  1  0.48446729  0.25000119  0.44351679  1.0
  O  O325  1  0.01553281  0.75000380  0.94351416  1.0
  O  O326  1  0.51553293  0.74999873  0.55648508  1.0
  O  O327  1  0.98446914  0.24999864  0.05648368  1.0
  O  O328  1  0.83865655  0.19260449  0.40696932  1.0
  O  O329  1  0.66134031  0.80739670  0.90697225  1.0
  O  O330  1  0.16134315  0.69260521  0.59302900  1.0
  O  O331  1  0.33865523  0.30739193  0.09303391  1.0
  O  O332  1  0.16134482  0.80739443  0.59303182  1.0
  O  O333  1  0.33865818  0.19260221  0.09302413  1.0
  O  O334  1  0.83865649  0.30739370  0.40696995  1.0
  O  O335  1  0.66134037  0.69260497  0.90697236  1.0
  O  O336  1  0.66141013  0.24999967  0.40524716  1.0
  O  O337  1  0.83858789  0.75000001  0.90524740  1.0
  O  O338  1  0.33859124  0.75000025  0.59475398  1.0
  O  O339  1  0.16140886  0.25000041  0.09475265  1.0
