# generated using pymatgen
data_Zn4H24C48O25
_symmetry_space_group_name_H-M   'P 1'
_cell_length_a   28.11521901
_cell_length_b   28.11618718
_cell_length_c   28.11518959
_cell_angle_alpha   59.99473235
_cell_angle_beta   59.99559059
_cell_angle_gamma   59.99653980
_symmetry_Int_Tables_number   1
_chemical_formula_structural   Zn4H24C48O25
_chemical_formula_sum   'Zn8 H48 C96 O50'
_cell_volume   15713.78450569
_cell_formula_units_Z   2
loop_
 _symmetry_equiv_pos_site_id
 _symmetry_equiv_pos_as_xyz
  1  'x, y, z'
loop_
 _atom_site_type_symbol
 _atom_site_label
 _atom_site_symmetry_multiplicity
 _atom_site_fract_x
 _atom_site_fract_y
 _atom_site_fract_z
 _atom_site_occupancy
  Zn  Zn0  1  0.97145516  0.97143672  0.47146500  1.0
  Zn  Zn1  1  0.08568242  0.97139683  0.47140635  1.0
  Zn  Zn2  1  0.97151609  0.97141800  0.58560369  1.0
  Zn  Zn3  1  0.97148828  0.08557582  0.47146425  1.0
  Zn  Zn4  1  0.52847975  0.52856352  0.02862280  1.0
  Zn  Zn5  1  0.52856418  0.52854867  0.91441510  1.0
  Zn  Zn6  1  0.41437222  0.52853695  0.02858662  1.0
  Zn  Zn7  1  0.52853825  0.41437691  0.02861018  1.0
  H  H8  1  0.63208250  0.29105731  0.13223716  1.0
  H  H9  1  0.63212216  0.44482265  0.13222763  1.0
  H  H10  1  0.86785254  0.05528469  0.36784562  1.0
  H  H11  1  0.86785998  0.20903672  0.36788965  1.0
  H  H12  1  0.44472260  0.63217692  0.79104768  1.0
  H  H13  1  0.29090380  0.63214735  0.94481521  1.0
  H  H14  1  0.20914076  0.86775178  0.55523005  1.0
  H  H15  1  0.05531290  0.86778177  0.70899384  1.0
  H  H16  1  0.63203117  0.63226714  0.79112378  1.0
  H  H17  1  0.63200794  0.63228191  0.94491769  1.0
  H  H18  1  0.86774047  0.86791448  0.55533869  1.0
  H  H19  1  0.86781438  0.86792637  0.70908063  1.0
  H  H20  1  0.44471042  0.29100249  0.13215734  1.0
  H  H21  1  0.29090333  0.44477288  0.13219076  1.0
  H  H22  1  0.20907638  0.05525182  0.36786469  1.0
  H  H23  1  0.05525336  0.20900827  0.36786780  1.0
  H  H24  1  0.29088086  0.63216426  0.13211359  1.0
  H  H25  1  0.44462279  0.63218541  0.13217724  1.0
  H  H26  1  0.05513090  0.86783483  0.36787161  1.0
  H  H27  1  0.20897228  0.86781453  0.36779562  1.0
  H  H28  1  0.63205818  0.44468631  0.79099654  1.0
  H  H29  1  0.63207000  0.29090229  0.94480777  1.0
  H  H30  1  0.86786989  0.20898671  0.55530126  1.0
  H  H31  1  0.86786138  0.05518391  0.70907947  1.0
  H  H32  1  0.72134299  0.35875146  0.22131806  1.0
  H  H33  1  0.72127463  0.19875042  0.22135105  1.0
  H  H34  1  0.77866626  0.30135053  0.27877487  1.0
  H  H35  1  0.77868054  0.14135899  0.27871135  1.0
  H  H36  1  0.19866504  0.72122048  0.85874637  1.0
  H  H37  1  0.35873743  0.72126835  0.69873138  1.0
  H  H38  1  0.14128922  0.77866434  0.80131402  1.0
  H  H39  1  0.30136915  0.77861789  0.64130784  1.0
  H  H40  1  0.72116370  0.72143870  0.85886145  1.0
  H  H41  1  0.72120264  0.72140950  0.69883356  1.0
  H  H42  1  0.77861297  0.77882141  0.80142249  1.0
  H  H43  1  0.77851711  0.77882812  0.64144119  1.0
  H  H44  1  0.19865016  0.35871884  0.22129755  1.0
  H  H45  1  0.35870878  0.19870243  0.22124173  1.0
  H  H46  1  0.14124488  0.30132024  0.27871919  1.0
  H  H47  1  0.30131220  0.14132179  0.27873897  1.0
  H  H48  1  0.35852201  0.72132975  0.22134374  1.0
  H  H49  1  0.19854621  0.72132913  0.22126145  1.0
  H  H50  1  0.30118786  0.77867342  0.27862100  1.0
  H  H51  1  0.14113833  0.77867500  0.27871807  1.0
  H  H52  1  0.72120707  0.19862187  0.85880255  1.0
  H  H53  1  0.72117535  0.35866586  0.69872987  1.0
  H  H54  1  0.77865693  0.14116928  0.80138221  1.0
  H  H55  1  0.77868972  0.30125190  0.64131970  1.0
  C  C56  1  0.09101436  0.90889825  0.40891142  1.0
  C  C57  1  0.09114039  0.90885633  0.59101724  1.0
  C  C58  1  0.90892230  0.90894009  0.59108803  1.0
  C  C59  1  0.90897115  0.09101113  0.59107972  1.0
  C  C60  1  0.90895306  0.09105830  0.40893420  1.0
  C  C61  1  0.09109220  0.09102965  0.40891141  1.0
  C  C62  1  0.59097055  0.59115563  0.90908189  1.0
  C  C63  1  0.40890078  0.59109483  0.90901901  1.0
  C  C64  1  0.40885914  0.59108996  0.09109628  1.0
  C  C65  1  0.40889778  0.40896593  0.09114550  1.0
  C  C66  1  0.59098772  0.40901004  0.09118258  1.0
  C  C67  1  0.59103519  0.40890987  0.90899456  1.0
  C  C68  1  0.62863909  0.37138765  0.12879182  1.0
  C  C69  1  0.64586491  0.31072741  0.14599165  1.0
  C  C70  1  0.68081691  0.27577745  0.18089950  1.0
  C  C71  1  0.69907705  0.30097402  0.19912678  1.0
  C  C72  1  0.68084063  0.36265942  0.18089347  1.0
  C  C73  1  0.64588324  0.39761335  0.14598317  1.0
  C  C74  1  0.73451230  0.26553224  0.23455160  1.0
  C  C75  1  0.76546510  0.23456928  0.26551714  1.0
  C  C76  1  0.80089378  0.19912802  0.30095100  1.0
  C  C77  1  0.81913971  0.13744049  0.31917664  1.0
  C  C78  1  0.85408235  0.10249527  0.35409635  1.0
  C  C79  1  0.87130742  0.12871025  0.37131525  1.0
  C  C80  1  0.85408617  0.18937260  0.35411911  1.0
  C  C81  1  0.81913926  0.22431284  0.31920438  1.0
  C  C82  1  0.37127028  0.62871102  0.87138351  1.0
  C  C83  1  0.39750587  0.64592630  0.81071894  1.0
  C  C84  1  0.36258997  0.68082700  0.77577534  1.0
  C  C85  1  0.30089417  0.69905251  0.80096075  1.0
  C  C86  1  0.27568666  0.68080596  0.86265131  1.0
  C  C87  1  0.31059882  0.64590401  0.89760220  1.0
  C  C88  1  0.26547765  0.73447663  0.76550831  1.0
  C  C89  1  0.23453972  0.76543325  0.73453502  1.0
  C  C90  1  0.19912568  0.80085418  0.69908225  1.0
  C  C91  1  0.22434836  0.81907177  0.63739673  1.0
  C  C92  1  0.18943666  0.85400135  0.60243934  1.0
  C  C93  1  0.12877001  0.87122324  0.62865504  1.0
  C  C94  1  0.10252308  0.85401618  0.68931918  1.0
  C  C95  1  0.13743731  0.81908976  0.72427191  1.0
  C  C96  1  0.62856598  0.62882417  0.87146421  1.0
  C  C97  1  0.64579115  0.64603689  0.81080073  1.0
  C  C98  1  0.68072761  0.68096325  0.77585321  1.0
  C  C99  1  0.69896232  0.69920488  0.80106635  1.0
  C  C100  1  0.68070491  0.68097954  0.86275751  1.0
  C  C101  1  0.64576873  0.64604436  0.89770831  1.0
  C  C102  1  0.73439403  0.73464509  0.76562462  1.0
  C  C103  1  0.76534830  0.76560290  0.73465207  1.0
  C  C104  1  0.80079925  0.80102102  0.69918967  1.0
  C  C105  1  0.81903006  0.81925306  0.63749737  1.0
  C  C106  1  0.85398355  0.85416026  0.60254990  1.0
  C  C107  1  0.87124325  0.87135907  0.62875199  1.0
  C  C108  1  0.85402521  0.85416625  0.68941971  1.0
  C  C109  1  0.81906308  0.81926626  0.72436801  1.0
  C  C110  1  0.37126088  0.37133709  0.12873103  1.0
  C  C111  1  0.39750094  0.31067807  0.14591349  1.0
  C  C112  1  0.36257091  0.27573711  0.18082078  1.0
  C  C113  1  0.30088474  0.30093298  0.19906779  1.0
  C  C114  1  0.27567344  0.36261734  0.18083838  1.0
  C  C115  1  0.31059714  0.39756464  0.14593029  1.0
  C  C116  1  0.26546346  0.26549230  0.23451048  1.0
  C  C117  1  0.23450379  0.23453277  0.26549128  1.0
  C  C118  1  0.19907778  0.19909612  0.30094153  1.0
  C  C119  1  0.22429396  0.13741149  0.31919132  1.0
  C  C120  1  0.18938084  0.10245824  0.35410838  1.0
  C  C121  1  0.12871489  0.12867520  0.37131270  1.0
  C  C122  1  0.10246874  0.18933604  0.35410931  1.0
  C  C123  1  0.13738805  0.22428168  0.31918677  1.0
  C  C124  1  0.37120062  0.62872840  0.12870531  1.0
  C  C125  1  0.31053878  0.64593658  0.14589231  1.0
  C  C126  1  0.27559066  0.68086916  0.18081998  1.0
  C  C127  1  0.30078365  0.69910314  0.19907671  1.0
  C  C128  1  0.36247194  0.68087700  0.18085866  1.0
  C  C129  1  0.39741425  0.64594881  0.14593111  1.0
  C  C130  1  0.26532501  0.73452691  0.23450915  1.0
  C  C131  1  0.23435869  0.76547789  0.26546889  1.0
  C  C132  1  0.19895199  0.80090236  0.30090062  1.0
  C  C133  1  0.13726314  0.81913980  0.31916043  1.0
  C  C134  1  0.10234282  0.85406841  0.35409409  1.0
  C  C135  1  0.12861066  0.87127366  0.37128352  1.0
  C  C136  1  0.18927352  0.85405530  0.35404708  1.0
  C  C137  1  0.22419528  0.81913024  0.31911340  1.0
  C  C138  1  0.62860944  0.37126572  0.87136559  1.0
  C  C139  1  0.64581365  0.39747428  0.81069639  1.0
  C  C140  1  0.68073692  0.36254486  0.77576405  1.0
  C  C141  1  0.69899520  0.30085284  0.80096744  1.0
  C  C142  1  0.68073979  0.27566367  0.86265818  1.0
  C  C143  1  0.64582087  0.31059372  0.89759542  1.0
  C  C144  1  0.73443502  0.26541659  0.76553389  1.0
  C  C145  1  0.76542198  0.23445030  0.73458091  1.0
  C  C146  1  0.80088414  0.19901803  0.69914138  1.0
  C  C147  1  0.81914899  0.22422168  0.63744647  1.0
  C  C148  1  0.85409701  0.18929382  0.60251356  1.0
  C  C149  1  0.87132411  0.12862706  0.62873239  1.0
  C  C150  1  0.85409406  0.10239427  0.68939787  1.0
  C  C151  1  0.81913864  0.13732632  0.72433212  1.0
  O  O152  1  0.00004885  0.99995198  0.49997748  1.0
  O  O153  1  0.03599995  0.92340251  0.42342827  1.0
  O  O154  1  0.11716812  0.92333848  0.53599722  1.0
  O  O155  1  0.92346465  0.92341179  0.61709465  1.0
  O  O156  1  0.11707199  0.92338079  0.42338471  1.0
  O  O157  1  0.92341136  0.92341905  0.53607772  1.0
  O  O158  1  0.03612472  0.92336584  0.61704430  1.0
  O  O159  1  0.92348274  0.03599031  0.61709843  1.0
  O  O160  1  0.92345862  0.11706732  0.42343223  1.0
  O  O161  1  0.92346053  0.11703990  0.53606605  1.0
  O  O162  1  0.92344220  0.03604483  0.42342129  1.0
  O  O163  1  0.11712742  0.03601089  0.42336608  1.0
  O  O164  1  0.03607541  0.11704579  0.42341983  1.0
  O  O165  1  0.49999989  0.50000129  0.00004552  1.0
  O  O166  1  0.57646852  0.57665300  0.96409272  1.0
  O  O167  1  0.46392873  0.57661260  0.88299207  1.0
  O  O168  1  0.38285550  0.57657913  0.07659670  1.0
  O  O169  1  0.57652797  0.57662436  0.88303775  1.0
  O  O170  1  0.46386837  0.57660056  0.07662617  1.0
  O  O171  1  0.38287253  0.57659587  0.96402491  1.0
  O  O172  1  0.38286983  0.46397743  0.07666791  1.0
  O  O173  1  0.57651255  0.38297846  0.07667692  1.0
  O  O174  1  0.46391720  0.38294217  0.07667287  1.0
  O  O175  1  0.57646597  0.46402268  0.07670889  1.0
  O  O176  1  0.57657632  0.46393283  0.88295936  1.0
  O  O177  1  0.57655678  0.38289759  0.96401109  1.0
  O  O178  1  0.69715442  0.38905054  0.19716385  1.0
  O  O179  1  0.69710045  0.21680222  0.19718264  1.0
  O  O180  1  0.80285422  0.28329135  0.30293305  1.0
  O  O181  1  0.80284919  0.11105243  0.30288157  1.0
  O  O182  1  0.21670278  0.69707471  0.88904981  1.0
  O  O183  1  0.38901882  0.69710327  0.71679701  1.0
  O  O184  1  0.11100854  0.80282124  0.78324802  1.0
  O  O185  1  0.28333016  0.80278625  0.61100494  1.0
  O  O186  1  0.69699168  0.69726339  0.88916076  1.0
  O  O187  1  0.69702797  0.69724362  0.71687609  1.0
  O  O188  1  0.80278933  0.80299378  0.78334731  1.0
  O  O189  1  0.80270723  0.80297431  0.61112270  1.0
  O  O190  1  0.21669409  0.38901798  0.19712365  1.0
  O  O191  1  0.38899496  0.21676283  0.19708359  1.0
  O  O192  1  0.11096009  0.28325738  0.30290192  1.0
  O  O193  1  0.28327573  0.11101661  0.30290683  1.0
  O  O194  1  0.38884198  0.69717359  0.19716703  1.0
  O  O195  1  0.21661311  0.69714837  0.19709496  1.0
  O  O196  1  0.28317845  0.80282941  0.30279616  1.0
  O  O197  1  0.11084770  0.80285447  0.30288607  1.0
  O  O198  1  0.69701974  0.21668520  0.88908630  1.0
  O  O199  1  0.69700766  0.38895562  0.71678273  1.0
  O  O200  1  0.80285594  0.11089266  0.78331119  1.0
  O  O201  1  0.80287077  0.28319770  0.61103085  1.0
