# generated using pymatgen
data_AlH3C8S2O7
_symmetry_space_group_name_H-M   'P 1'
_cell_length_a   6.63298983
_cell_length_b   16.84941621
_cell_length_c   17.90801887
_cell_angle_alpha   89.92704704
_cell_angle_beta   89.69982727
_cell_angle_gamma   90.75946649
_symmetry_Int_Tables_number   1
_chemical_formula_structural   AlH3C8S2O7
_chemical_formula_sum   'Al4 H12 C32 S8 O28'
_cell_volume   2001.23102648
_cell_formula_units_Z   4
loop_
 _symmetry_equiv_pos_site_id
 _symmetry_equiv_pos_as_xyz
  1  'x, y, z'
loop_
 _atom_site_type_symbol
 _atom_site_label
 _atom_site_symmetry_multiplicity
 _atom_site_fract_x
 _atom_site_fract_y
 _atom_site_fract_z
 _atom_site_occupancy
  Al  Al0  1  0.06212160  0.99553948  0.50086003  1.0
  Al  Al1  1  0.56334864  0.00456107  0.50251604  1.0
  Al  Al2  1  0.93665074  0.49543683  0.99748493  1.0
  Al  Al3  1  0.43787959  0.50445952  0.99914001  1.0
  H  H4  1  0.83218603  0.09924764  0.47158669  1.0
  H  H5  1  0.32838126  0.90285006  0.46834324  1.0
  H  H6  1  0.66780812  0.40075098  0.02841958  1.0
  H  H7  1  0.17161776  0.59714907  0.03165374  1.0
  H  H8  1  0.82467739  0.21526939  0.66331845  1.0
  H  H9  1  0.67531896  0.28472673  0.83668029  1.0
  H  H10  1  0.32767450  0.78035626  0.33656343  1.0
  H  H11  1  0.17232303  0.71964405  0.16343467  1.0
  H  H12  1  0.17304569  0.73332407  0.66478360  1.0
  H  H13  1  0.32697199  0.76667022  0.83521699  1.0
  H  H14  1  0.83310242  0.21800846  0.33926198  1.0
  H  H15  1  0.66689623  0.28198602  0.16073815  1.0
  C  C16  1  0.31773754  0.09984345  0.40348394  1.0
  C  C17  1  0.29792291  0.09410842  0.60069809  1.0
  C  C18  1  0.79461316  0.90426391  0.59928647  1.0
  C  C19  1  0.81240208  0.90250139  0.40195614  1.0
  C  C20  1  0.18226960  0.40015746  0.09651973  1.0
  C  C21  1  0.20208180  0.40588700  0.89930586  1.0
  C  C22  1  0.70538256  0.59572926  0.90071059  1.0
  C  C23  1  0.68758409  0.59750079  0.09803674  1.0
  C  C24  1  0.11218307  0.19885572  0.67658225  1.0
  C  C25  1  0.38782480  0.30114446  0.82341276  1.0
  C  C26  1  0.28338993  0.15581325  0.65821078  1.0
  C  C27  1  0.21661193  0.34418811  0.84178423  1.0
  C  C28  1  0.34907300  0.24822940  0.76303695  1.0
  C  C29  1  0.15092596  0.25177729  0.73695415  1.0
  C  C30  1  0.61558345  0.79903280  0.32518716  1.0
  C  C31  1  0.88440417  0.70096701  0.17480851  1.0
  C  C32  1  0.78922246  0.84239793  0.34343185  1.0
  C  C33  1  0.71077434  0.65760903  0.15656158  1.0
  C  C34  1  0.84879913  0.75253146  0.23631405  1.0
  C  C35  1  0.65119912  0.74747136  0.26367771  1.0
  C  C36  1  0.92108754  0.78646725  0.67822160  1.0
  C  C37  1  0.57893078  0.71352657  0.82177879  1.0
  C  C38  1  0.78227048  0.84385987  0.65773327  1.0
  C  C39  1  0.71774789  0.65613573  0.84226377  1.0
  C  C40  1  0.65336058  0.76096498  0.76170280  1.0
  C  C41  1  0.84666834  0.73903006  0.73829423  1.0
  C  C42  1  0.11933563  0.20064011  0.32674132  1.0
  C  C43  1  0.38065942  0.29935780  0.17325789  1.0
  C  C44  1  0.29428718  0.15959561  0.34471247  1.0
  C  C45  1  0.20571541  0.34040291  0.15528897  1.0
  C  C46  1  0.34821670  0.24846620  0.23580435  1.0
  C  C47  1  0.15178285  0.25152757  0.26418927  1.0
  S  S48  1  0.48998494  0.18020701  0.71419308  1.0
  S  S49  1  0.01002154  0.31980029  0.78580248  1.0
  S  S50  1  0.99312696  0.82078300  0.28495117  1.0
  S  S51  1  0.50686225  0.67922038  0.21504227  1.0
  S  S52  1  0.56010702  0.83891277  0.71044154  1.0
  S  S53  1  0.93991582  0.66108047  0.78955717  1.0
  S  S54  1  0.49522420  0.18276184  0.28469957  1.0
  S  S55  1  0.00477384  0.31723430  0.21529964  1.0
  O  O56  1  0.15542490  0.08043320  0.43719789  1.0
  O  O57  1  0.46975613  0.08434861  0.56953547  1.0
  O  O58  1  0.63367281  0.94337457  0.58834044  1.0
  O  O59  1  0.98938648  0.93094817  0.41345009  1.0
  O  O60  1  0.96024439  0.91311659  0.56361863  1.0
  O  O61  1  0.65179968  0.92044713  0.43672560  1.0
  O  O62  1  0.49372343  0.07301767  0.41638319  1.0
  O  O63  1  0.13663504  0.05586160  0.58650611  1.0
  O  O64  1  0.81783838  0.04929165  0.49830281  1.0
  O  O65  1  0.31562991  0.95103979  0.49761988  1.0
  O  O66  1  0.00627619  0.42698381  0.08361937  1.0
  O  O67  1  0.36335455  0.44413082  0.91349729  1.0
  O  O68  1  0.53975733  0.58687125  0.93636950  1.0
  O  O69  1  0.84819254  0.57955685  0.06326951  1.0
  O  O70  1  0.86632284  0.55661385  0.91165383  1.0
  O  O71  1  0.51061477  0.56905346  0.08654110  1.0
  O  O72  1  0.34456717  0.41956826  0.06280579  1.0
  O  O73  1  0.03024248  0.41564264  0.93046737  1.0
  O  O74  1  0.68215579  0.45070756  0.00170179  1.0
  O  O75  1  0.18437363  0.54895875  0.00237486  1.0
  O  O76  1  0.93953148  0.19134946  0.63762933  1.0
  O  O77  1  0.56046635  0.30864606  0.86237164  1.0
  O  O78  1  0.43991094  0.80580595  0.36315128  1.0
  O  O79  1  0.06008510  0.69419554  0.13684570  1.0
  O  O80  1  0.10171252  0.77815723  0.64353501  1.0
  O  O81  1  0.39830819  0.72183707  0.85646390  1.0
  O  O82  1  0.94474191  0.19276139  0.36545267  1.0
  O  O83  1  0.55525831  0.30723784  0.13454913  1.0
