# generated using pymatgen
data_Al2H15C19O10F3
_symmetry_space_group_name_H-M   'P 1'
_cell_length_a   6.95202123
_cell_length_b   11.81267603
_cell_length_c   17.74237131
_cell_angle_alpha   89.99967755
_cell_angle_beta   89.99828194
_cell_angle_gamma   76.96250178
_symmetry_Int_Tables_number   1
_chemical_formula_structural   Al2H15C19O10F3
_chemical_formula_sum   'Al4 H30 C38 O20 F6'
_cell_volume   1419.47994658
_cell_formula_units_Z   2
loop_
 _symmetry_equiv_pos_site_id
 _symmetry_equiv_pos_as_xyz
  1  'x, y, z'
loop_
 _atom_site_type_symbol
 _atom_site_label
 _atom_site_symmetry_multiplicity
 _atom_site_fract_x
 _atom_site_fract_y
 _atom_site_fract_z
 _atom_site_occupancy
  Al  Al0  1  0.87575726  0.49684586  0.49999305  1.0
  Al  Al1  1  0.37214970  0.49843056  0.49999310  1.0
  Al  Al2  1  0.24526076  0.00341882  0.00001422  1.0
  Al  Al3  1  0.75155030  0.99790620  0.00001089  1.0
  H  H4  1  0.20929835  0.17229873  0.19721870  1.0
  H  H5  1  0.20930758  0.17230608  0.80277699  1.0
  H  H6  1  0.90086898  0.32125602  0.30724872  1.0
  H  H7  1  0.90087441  0.32122472  0.69273891  1.0
  H  H8  1  0.35533559  0.26408433  0.30770393  1.0
  H  H9  1  0.35533622  0.26405828  0.69226019  1.0
  H  H10  1  0.86879351  0.67385070  0.31664583  1.0
  H  H11  1  0.86877297  0.67385359  0.68334597  1.0
  H  H12  1  0.86562736  0.77480658  0.19172833  1.0
  H  H13  1  0.86561761  0.77480794  0.80826204  1.0
  H  H14  1  0.07376970  0.76778048  0.31848665  1.0
  H  H15  1  0.07375868  0.76778851  0.68153451  1.0
  H  H16  1  0.36587710  0.49812803  0.09522263  1.0
  H  H17  1  0.36949472  0.45964812  0.19178865  1.0
  H  H18  1  0.31856513  0.36227787  0.12252846  1.0
  H  H19  1  0.71711528  0.43467734  0.13865539  1.0
  H  H20  1  0.66384421  0.33630145  0.07130930  1.0
  H  H21  1  0.60182067  0.20594503  0.17728187  1.0
  H  H22  1  0.67211691  0.30263124  0.24294975  1.0
  H  H23  1  0.36940878  0.45960516  0.80820626  1.0
  H  H24  1  0.31850973  0.36220564  0.87745742  1.0
  H  H25  1  0.36574615  0.49806812  0.90478127  1.0
  H  H26  1  0.66377517  0.33629509  0.92869131  1.0
  H  H27  1  0.71700165  0.43469167  0.86134402  1.0
  H  H28  1  0.67213830  0.30262633  0.75704732  1.0
  H  H29  1  0.60184607  0.20591983  0.82270574  1.0
  H  H30  1  0.67862299  0.34508358  0.50002510  1.0
  H  H31  1  0.06394763  0.65413849  0.50002030  1.0
  H  H32  1  0.44524554  0.15415684  0.99986481  1.0
  H  H33  1  0.06309180  0.84550339  0.99954558  1.0
  C  C34  1  0.57466735  0.62670024  0.39488372  1.0
  C  C35  1  0.57466745  0.62667580  0.60512281  1.0
  C  C36  1  0.17551037  0.36700675  0.60429695  1.0
  C  C37  1  0.17552474  0.36704318  0.39567264  1.0
  C  C38  1  0.20343314  0.29743136  0.32609252  1.0
  C  C39  1  0.20343030  0.29739875  0.67387861  1.0
  C  C40  1  0.04725121  0.28148844  0.28525359  1.0
  C  C41  1  0.04726011  0.28146450  0.71472831  1.0
  C  C42  1  0.90634904  0.20850638  0.17199918  1.0
  C  C43  1  0.90634586  0.20852205  0.82800563  1.0
  C  C44  1  0.06236473  0.21772156  0.21591999  1.0
  C  C45  1  0.06237674  0.21772490  0.78407460  1.0
  C  C46  1  0.38909822  0.72713998  0.27921798  1.0
  C  C47  1  0.38908712  0.72712911  0.72079256  1.0
  C  C48  1  0.56051283  0.68903422  0.32120035  1.0
  C  C49  1  0.56049305  0.68902592  0.67880587  1.0
  C  C50  1  0.73157733  0.70874795  0.28726828  1.0
  C  C51  1  0.73156056  0.70873901  0.71272832  1.0
  C  C52  1  0.73050335  0.76509057  0.21782763  1.0
  C  C53  1  0.73048480  0.76508643  0.78217215  1.0
  C  C54  1  0.55681291  0.80824601  0.17770243  1.0
  C  C55  1  0.55680579  0.80822718  0.82230623  1.0
  C  C56  1  0.38927012  0.78528630  0.21103757  1.0
  C  C57  1  0.38925313  0.78526730  0.78897948  1.0
  C  C58  1  0.17539031  0.79336111  0.19765875  1.0
  C  C59  1  0.17538137  0.79336690  0.80235470  1.0
  C  C60  1  0.17516057  0.72379189  0.27471343  1.0
  C  C61  1  0.17513904  0.72378709  0.72530596  1.0
  C  C62  1  0.54569159  0.87191407  0.89545041  1.0
  C  C63  1  0.54567809  0.87193357  0.10456515  1.0
  C  C64  1  0.94513488  0.13388469  0.10319950  1.0
  C  C65  1  0.94513776  0.13392328  0.89681946  1.0
  C  C66  1  0.69513908  0.26891197  0.18515443  1.0
  C  C67  1  0.62863322  0.36953748  0.12886530  1.0
  C  C68  1  0.40889147  0.42543760  0.13493992  1.0
  C  C69  1  0.69515108  0.26889830  0.81484027  1.0
  C  C70  1  0.62856866  0.36952953  0.87113587  1.0
  C  C71  1  0.40881388  0.42538832  0.86505540  1.0
  O  O72  1  0.41672676  0.60487568  0.57838012  1.0
  O  O73  1  0.41673789  0.60490300  0.42163332  1.0
  O  O74  1  0.74624941  0.60189215  0.42407464  1.0
  O  O75  1  0.74624279  0.60187177  0.57593428  1.0
  O  O76  1  0.00097347  0.39514362  0.42318670  1.0
  O  O77  1  0.00096356  0.39510853  0.57679075  1.0
  O  O78  1  0.64936558  0.42924847  0.49999276  1.0
  O  O79  1  0.33012521  0.39362073  0.57695955  1.0
  O  O80  1  0.33013210  0.39366019  0.42300606  1.0
  O  O81  1  0.09642771  0.57003328  0.50000693  1.0
  O  O82  1  0.70354255  0.89327763  0.07795308  1.0
  O  O83  1  0.70355530  0.89326631  0.92205051  1.0
  O  O84  1  0.37294089  0.89923680  0.92349538  1.0
  O  O85  1  0.37292558  0.89927502  0.07653418  1.0
  O  O86  1  0.12070823  0.10753675  0.92297291  1.0
  O  O87  1  0.12070099  0.10748828  0.07704315  1.0
  O  O88  1  0.47331092  0.06999646  0.00000039  1.0
  O  O89  1  0.79467862  0.10316812  0.07593196  1.0
  O  O90  1  0.79466078  0.10323065  0.92409311  1.0
  O  O91  1  0.02664654  0.92967005  0.99999358  1.0
  F  F92  1  0.13006560  0.73697811  0.13444886  1.0
  F  F93  1  0.13003329  0.73698729  0.86557548  1.0
  F  F94  1  0.05586170  0.90371560  0.19792670  1.0
  F  F95  1  0.05585737  0.90372049  0.80208833  1.0
  F  F96  1  0.14667567  0.61111593  0.26460561  1.0
  F  F97  1  0.14663842  0.61111715  0.73540626  1.0
