# generated using pymatgen
data_Cu3H14C9(N3O2)2
_symmetry_space_group_name_H-M   'P 1'
_cell_length_a   10.75428930
_cell_length_b   14.52818248
_cell_length_c   14.53238851
_cell_angle_alpha   114.12554819
_cell_angle_beta   104.27832072
_cell_angle_gamma   104.26032507
_symmetry_Int_Tables_number   1
_chemical_formula_structural   Cu3H14C9(N3O2)2
_chemical_formula_sum   'Cu9 H42 C27 N18 O12'
_cell_volume   1847.06398387
_cell_formula_units_Z   3
loop_
 _symmetry_equiv_pos_site_id
 _symmetry_equiv_pos_as_xyz
  1  'x, y, z'
loop_
 _atom_site_type_symbol
 _atom_site_label
 _atom_site_symmetry_multiplicity
 _atom_site_fract_x
 _atom_site_fract_y
 _atom_site_fract_z
 _atom_site_occupancy
  Cu  Cu0  1  0.45430456  0.48987935  0.88882060  1.0
  Cu  Cu1  1  0.56533532  0.11096486  0.60084205  1.0
  Cu  Cu2  1  0.96440615  0.39909377  0.51019772  1.0
  Cu  Cu3  1  0.96447061  0.51056779  0.39995751  1.0
  Cu  Cu4  1  0.45357916  0.88898373  0.48927366  1.0
  Cu  Cu5  1  0.56480755  0.60021853  0.11079355  1.0
  Cu  Cu6  1  0.26359267  0.60354259  0.99970602  1.0
  Cu  Cu7  1  0.26369437  0.00033827  0.60372770  1.0
  Cu  Cu8  1  0.65984907  0.39607621  0.39639524  1.0
  H  H9  1  0.97693987  0.57297023  0.85317634  1.0
  H  H10  1  0.87537462  0.49072754  0.70856787  1.0
  H  H11  1  0.99305670  0.62518283  0.76228332  1.0
  H  H12  1  0.38176769  0.40547350  0.63783235  1.0
  H  H13  1  0.24826117  0.40721078  0.53683019  1.0
  H  H14  1  0.21694411  0.29346116  0.55939639  1.0
  H  H15  1  0.12387179  0.14731228  0.71970093  1.0
  H  H16  1  0.16702740  0.29199309  0.78192591  1.0
  H  H17  1  0.23114907  0.23833282  0.86270598  1.0
  H  H18  1  0.74397492  0.36191458  0.76728987  1.0
  H  H19  1  0.71154323  0.46296462  0.87011137  1.0
  H  H20  1  0.65790885  0.44072029  0.73392355  1.0
  H  H21  1  0.40412720  0.27999871  0.42722314  1.0
  H  H22  1  0.38509308  0.21798231  0.50981604  1.0
  H  H23  1  0.36839353  0.13697822  0.37545460  1.0
  H  H24  1  0.97652747  0.23225309  0.59429710  1.0
  H  H25  1  0.84144311  0.12945792  0.59258536  1.0
  H  H26  1  0.92394664  0.26566272  0.70647294  1.0
  H  H27  1  0.40369941  0.42617367  0.28003645  1.0
  H  H28  1  0.38487794  0.50929294  0.21858590  1.0
  H  H29  1  0.36747326  0.37479026  0.13698430  1.0
  H  H30  1  0.97622001  0.59379509  0.23276899  1.0
  H  H31  1  0.84120433  0.59161659  0.12947870  1.0
  H  H32  1  0.92298481  0.70566923  0.26554986  1.0
  H  H33  1  0.97758222  0.85429732  0.57412827  1.0
  H  H34  1  0.87563628  0.70975000  0.49137338  1.0
  H  H35  1  0.99279649  0.76287821  0.62588094  1.0
  H  H36  1  0.38206570  0.63868436  0.40643397  1.0
  H  H37  1  0.24928664  0.53775963  0.40894672  1.0
  H  H38  1  0.21694158  0.55957601  0.29475069  1.0
  H  H39  1  0.12329075  0.71968493  0.14583512  1.0
  H  H40  1  0.16588358  0.78138028  0.29036812  1.0
  H  H41  1  0.23003912  0.86275923  0.23728403  1.0
  H  H42  1  0.74329405  0.76747512  0.36123168  1.0
  H  H43  1  0.71115355  0.87076975  0.46209043  1.0
  H  H44  1  0.65721405  0.73475495  0.44027493  1.0
  H  H45  1  0.51289662  0.69461103  0.00029665  1.0
  H  H46  1  0.96595009  0.40885436  0.00027084  1.0
  H  H47  1  0.51223646  0.99948068  0.69407548  1.0
  H  H48  1  0.96573840  0.00027659  0.40876081  1.0
  H  H49  1  0.81847765  0.30578843  0.30560858  1.0
  H  H50  1  0.55516877  0.59029766  0.59051190  1.0
  C  C51  1  0.08858727  0.51149187  0.75712979  1.0
  C  C52  1  0.97752509  0.55247018  0.77191980  1.0
  C  C53  1  0.21722769  0.43926191  0.68303005  1.0
  C  C54  1  0.26961781  0.38320107  0.59980652  1.0
  C  C55  1  0.33151005  0.24314629  0.75398200  1.0
  C  C56  1  0.20579770  0.22855127  0.78030935  1.0
  C  C57  1  0.53419093  0.31697694  0.75580727  1.0
  C  C58  1  0.66990359  0.40008982  0.78307211  1.0
  C  C59  1  0.57743550  0.24571795  0.48886753  1.0
  C  C60  1  0.42542438  0.21942497  0.44795437  1.0
  C  C61  1  0.77830554  0.24383325  0.56093352  1.0
  C  C62  1  0.88676242  0.21648529  0.61672781  1.0
  C  C63  1  0.57691240  0.48781725  0.24559695  1.0
  C  C64  1  0.42495081  0.44711172  0.21955258  1.0
  C  C65  1  0.77767452  0.56000748  0.24375847  1.0
  C  C66  1  0.88619993  0.61590649  0.21655857  1.0
  C  C67  1  0.08899914  0.75795986  0.51257527  1.0
  C  C68  1  0.97784982  0.77287381  0.55338485  1.0
  C  C69  1  0.21743981  0.68369315  0.44033743  1.0
  C  C70  1  0.26999152  0.60048181  0.38448373  1.0
  C  C71  1  0.33092312  0.75422531  0.24203942  1.0
  C  C72  1  0.20495138  0.78024208  0.22721610  1.0
  C  C73  1  0.53366493  0.75626689  0.31620903  1.0
  C  C74  1  0.66937933  0.78364401  0.39942449  1.0
  C  C75  1  0.06620880  0.45371753  0.00005870  1.0
  C  C76  1  0.06611612  0.00024287  0.45372154  1.0
  C  C77  1  0.61106908  0.54559265  0.54580788  1.0
  N  N78  1  0.20013532  0.52979956  0.83824857  1.0
  N  N79  1  0.28127781  0.48356435  0.79112506  1.0
  N  N80  1  0.09610625  0.45438761  0.65912750  1.0
  N  N81  1  0.36174087  0.16187328  0.69107305  1.0
  N  N82  1  0.49000784  0.20884358  0.69196309  1.0
  N  N83  1  0.43712328  0.34107868  0.79490923  1.0
  N  N84  1  0.67058372  0.30865912  0.47058911  1.0
  N  N85  1  0.79796962  0.30776342  0.51674227  1.0
  N  N86  1  0.64215575  0.20474755  0.54586429  1.0
  N  N87  1  0.67013775  0.46962588  0.30861889  1.0
  N  N88  1  0.79759862  0.51594002  0.30778730  1.0
  N  N89  1  0.64144320  0.54478052  0.20456435  1.0
  N  N90  1  0.20039871  0.83903773  0.53059764  1.0
  N  N91  1  0.28146139  0.79176503  0.48425299  1.0
  N  N92  1  0.09646323  0.65987430  0.45568433  1.0
  N  N93  1  0.36139924  0.69132424  0.16093881  1.0
  N  N94  1  0.48978439  0.69229694  0.20816098  1.0
  N  N95  1  0.43640203  0.79530136  0.34007083  1.0
  O  O96  1  0.45585217  0.63014723  0.99920905  1.0
  O  O97  1  0.61945397  0.52605568  0.99973645  1.0
  O  O98  1  0.07328915  0.54378596  0.99962735  1.0
  O  O99  1  0.15879401  0.41627663  0.00025568  1.0
  O  O100  1  0.45633696  0.00069344  0.63077519  1.0
  O  O101  1  0.61939699  0.99983465  0.52620705  1.0
  O  O102  1  0.07351559  0.00045260  0.54409599  1.0
  O  O103  1  0.15848301  0.00003615  0.41611610  1.0
  O  O104  1  0.82543858  0.36905582  0.36994540  1.0
  O  O105  1  0.09329186  0.47326206  0.47353773  1.0
  O  O106  1  0.52858951  0.45518001  0.45549398  1.0
  O  O107  1  0.74101305  0.58345415  0.58359720  1.0
