# generated using pymatgen
data_Al2H15C30(BrO4)3
_symmetry_space_group_name_H-M   'P 1'
_cell_length_a   4.01899269
_cell_length_b   17.25010466
_cell_length_c   17.25020568
_cell_angle_alpha   119.99995194
_cell_angle_beta   90.00100679
_cell_angle_gamma   89.99935235
_symmetry_Int_Tables_number   1
_chemical_formula_structural   Al2H15C30(BrO4)3
_chemical_formula_sum   'Al2 H15 C30 Br3 O12'
_cell_volume   1035.70022406
_cell_formula_units_Z   1
loop_
 _symmetry_equiv_pos_site_id
 _symmetry_equiv_pos_as_xyz
  1  'x, y, z'
loop_
 _atom_site_type_symbol
 _atom_site_label
 _atom_site_symmetry_multiplicity
 _atom_site_fract_x
 _atom_site_fract_y
 _atom_site_fract_z
 _atom_site_occupancy
  Al  Al0  1  0.99027065  0.50000051  0.99999922  1.0
  Al  Al1  1  0.99810318  0.83333030  0.66666083  1.0
  H  H2  1  0.53885423  0.83654836  0.41886249  1.0
  H  H3  1  0.26164289  0.52676767  0.41218712  1.0
  H  H4  1  0.70478385  0.52889976  0.41546925  1.0
  H  H5  1  0.72405044  0.44860111  0.24747416  1.0
  H  H6  1  0.28132996  0.44567310  0.24332250  1.0
  H  H7  1  0.53883176  0.58231659  0.66345022  1.0
  H  H8  1  0.26165219  0.88542173  0.97322380  1.0
  H  H9  1  0.70479297  0.88657455  0.97109932  1.0
  H  H10  1  0.72404928  0.79887672  0.05139705  1.0
  H  H11  1  0.28133152  0.79765179  0.05431876  1.0
  H  H12  1  0.53884382  0.08112822  0.91768443  1.0
  H  H13  1  0.26167810  0.08781267  0.61457868  1.0
  H  H14  1  0.70481157  0.08453099  0.61344021  1.0
  H  H15  1  0.72407927  0.25252707  0.70114503  1.0
  H  H16  1  0.28135883  0.25667477  0.70235179  1.0
  C  C17  1  0.49295291  0.36291339  0.93511415  1.0
  C  C18  1  0.49294797  0.57219749  0.13708265  1.0
  C  C19  1  0.49294268  0.56489156  0.92780344  1.0
  C  C20  1  0.49873816  0.76698933  0.52969270  1.0
  C  C21  1  0.49876591  0.76270398  0.73300434  1.0
  C  C22  1  0.49873856  0.97030044  0.73729539  1.0
  C  C23  1  0.50080576  0.71760046  0.43015809  1.0
  C  C24  1  0.50071861  0.62409839  0.23692253  1.0
  C  C25  1  0.48669811  0.62471045  0.37931762  1.0
  C  C26  1  0.51006638  0.71828538  0.28886478  1.0
  C  C27  1  0.49750932  0.58002293  0.28608661  1.0
  C  C28  1  0.52006137  0.76385488  0.38241982  1.0
  C  C29  1  0.48567773  0.53882276  0.38333246  1.0
  C  C30  1  0.49765308  0.48797917  0.27746818  1.0
  C  C31  1  0.50082604  0.71255867  0.78239633  1.0
  C  C32  1  0.50069271  0.61282781  0.87589958  1.0
  C  C33  1  0.48671803  0.75461147  0.87528193  1.0
  C  C34  1  0.51000843  0.57058136  0.78171537  1.0
  C  C35  1  0.49751717  0.70606425  0.91997322  1.0
  C  C36  1  0.52004783  0.61857135  0.73614388  1.0
  C  C37  1  0.48568898  0.84451371  0.96117258  1.0
  C  C38  1  0.49766044  0.78949163  0.01201548  1.0
  C  C39  1  0.50077986  0.06983659  0.78744520  1.0
  C  C40  1  0.50071918  0.26307235  0.88718085  1.0
  C  C41  1  0.48668392  0.12067503  0.74539663  1.0
  C  C42  1  0.51007018  0.21113430  0.92942554  1.0
  C  C43  1  0.49750210  0.21391170  0.79394377  1.0
  C  C44  1  0.52004330  0.11756989  0.88143803  1.0
  C  C45  1  0.48569777  0.11666598  0.65549516  1.0
  C  C46  1  0.49767538  0.22252949  0.71051928  1.0
  Br  Br47  1  0.53017200  0.78875756  0.23219430  1.0
  Br  Br48  1  0.52994920  0.44343688  0.71123189  1.0
  Br  Br49  1  0.53022792  0.26780808  0.05656756  1.0
  O  O50  1  0.72456711  0.58380234  0.98499463  1.0
  O  O51  1  0.72456899  0.40119477  0.91619988  1.0
  O  O52  1  0.72458308  0.51500455  0.09880366  1.0
  O  O53  1  0.25297039  0.51140115  0.91361335  1.0
  O  O54  1  0.25298799  0.58638922  0.09778946  1.0
  O  O55  1  0.25297345  0.40221179  0.98860080  1.0
  O  O56  1  0.73185330  0.93026314  0.75351758  1.0
  O  O57  1  0.73183651  0.82325719  0.56972967  1.0
  O  O58  1  0.73185989  0.74647452  0.67673643  1.0
  O  O59  1  0.26281756  0.93232032  0.68133918  1.0
  O  O60  1  0.26283047  0.81865486  0.75097558  1.0
  O  O61  1  0.26282024  0.74901341  0.56766900  1.0
