# generated using pymatgen
data_Al2H19C29(NO6)3
_symmetry_space_group_name_H-M   'P 1'
_cell_length_a   6.70734324
_cell_length_b   22.49280731
_cell_length_c   25.54125029
_cell_angle_alpha   91.04658238
_cell_angle_beta   90.59578859
_cell_angle_gamma   90.46684169
_symmetry_Int_Tables_number   1
_chemical_formula_structural   Al2H19C29(NO6)3
_chemical_formula_sum   'Al4 H38 C58 N6 O36'
_cell_volume   3852.34618236
_cell_formula_units_Z   2
loop_
 _symmetry_equiv_pos_site_id
 _symmetry_equiv_pos_as_xyz
  1  'x, y, z'
loop_
 _atom_site_type_symbol
 _atom_site_label
 _atom_site_symmetry_multiplicity
 _atom_site_fract_x
 _atom_site_fract_y
 _atom_site_fract_z
 _atom_site_occupancy
  Al  Al0  1  0.27904871  0.25572005  0.74695050  1.0
  Al  Al1  1  0.72874702  0.74419234  0.25339618  1.0
  Al  Al2  1  0.77862018  0.25392922  0.74622313  1.0
  Al  Al3  1  0.22961351  0.74763453  0.25434769  1.0
  H  H4  1  0.87432527  0.43426199  0.94993955  1.0
  H  H5  1  0.13212130  0.56577434  0.04960603  1.0
  H  H6  1  0.57076814  0.14989269  0.88756128  1.0
  H  H7  1  0.36540054  0.84655215  0.07940807  1.0
  H  H8  1  0.77840259  0.61467995  0.13829712  1.0
  H  H9  1  0.22498036  0.37959656  0.86558414  1.0
  H  H10  1  0.76587112  0.54274448  0.06165794  1.0
  H  H11  1  0.23788386  0.45173853  0.94205264  1.0
  H  H12  1  0.86174588  0.36212178  0.87299592  1.0
  H  H13  1  0.14492346  0.63789456  0.12662380  1.0
  H  H14  1  0.79499839  0.64772853  0.33751231  1.0
  H  H15  1  0.21461644  0.35411031  0.66327334  1.0
  H  H16  1  0.76362101  0.53781091  0.43635354  1.0
  H  H17  1  0.24459616  0.46273435  0.56336576  1.0
  H  H18  1  0.85926843  0.41801731  0.53610329  1.0
  H  H19  1  0.14870174  0.58235672  0.46371686  1.0
  H  H20  1  0.99527109  0.35288574  0.60408715  1.0
  H  H21  1  0.01343481  0.64826315  0.39608828  1.0
  H  H22  1  0.54841848  0.92804622  0.16245381  1.0
  H  H23  1  0.34846242  0.15414913  0.82646988  1.0
  H  H24  1  0.71352830  0.02990419  0.06505027  1.0
  H  H25  1  0.23805882  0.97106368  0.93626577  1.0
  H  H26  1  0.47455680  0.04618129  0.92573591  1.0
  H  H27  1  0.49684057  0.95450404  0.07296770  1.0
  H  H28  1  0.24805613  0.93350365  0.00524329  1.0
  H  H29  1  0.69607029  0.06634029  0.99058075  1.0
  H  H30  1  0.71304863  0.12825198  0.62422064  1.0
  H  H31  1  0.29345276  0.87050632  0.37671226  1.0
  H  H32  1  0.74254511  0.01865850  0.52013366  1.0
  H  H33  1  0.26385336  0.97999849  0.48126453  1.0
  H  H34  1  0.63043866  0.93578960  0.44216954  1.0
  H  H35  1  0.37560166  0.06370123  0.55839683  1.0
  H  H36  1  0.65251942  0.86041741  0.36883703  1.0
  H  H37  1  0.35465533  0.13968162  0.63065066  1.0
  H  H38  1  0.52165005  0.18045929  0.72672823  1.0
  H  H39  1  0.48875591  0.81627766  0.22803979  1.0
  H  H40  1  0.02730308  0.33045892  0.76367419  1.0
  H  H41  1  0.98473236  0.67095697  0.23476599  1.0
  C  C42  1  0.53693412  0.32580801  0.81859271  1.0
  C  C43  1  0.46775144  0.67168413  0.18323072  1.0
  C  C44  1  0.53299591  0.32250591  0.67264221  1.0
  C  C45  1  0.47714715  0.67970571  0.32840144  1.0
  C  C46  1  0.02410341  0.18182767  0.67611689  1.0
  C  C47  1  0.98424798  0.81780321  0.32443991  1.0
  C  C48  1  0.02709978  0.18583554  0.81995346  1.0
  C  C49  1  0.97054673  0.81640969  0.18383477  1.0
  C  C50  1  0.02653128  0.14481558  0.86457307  1.0
  C  C51  1  0.96140074  0.86201000  0.14232748  1.0
  C  C52  1  0.85292745  0.13456835  0.89400279  1.0
  C  C53  1  0.11942893  0.87054677  0.10742958  1.0
  C  C54  1  0.84523538  0.08715985  0.92909809  1.0
  C  C55  1  0.11332910  0.91542537  0.06974163  1.0
  C  C56  1  0.01223568  0.05079984  0.93831634  1.0
  C  C57  1  0.94129681  0.94975261  0.06148747  1.0
  C  C58  1  0.18690927  0.06276332  0.90941101  1.0
  C  C59  1  0.78017012  0.93895388  0.09573137  1.0
  C  C60  1  0.19631550  0.10957408  0.87441552  1.0
  C  C61  1  0.79203136  0.89853341  0.13662148  1.0
  C  C62  1  0.01567628  0.00094521  0.97523021  1.0
  C  C63  1  0.92723859  0.99801479  0.02326370  1.0
  C  C64  1  0.97413798  0.86167535  0.36896621  1.0
  C  C65  1  0.03280877  0.13776220  0.63198712  1.0
  C  C66  1  0.14933772  0.88494315  0.39123039  1.0
  C  C67  1  0.85763600  0.11395410  0.60997440  1.0
  C  C68  1  0.14027989  0.92724757  0.43196539  1.0
  C  C69  1  0.86634119  0.07147716  0.56935688  1.0
  C  C70  1  0.94933009  0.94579196  0.45043780  1.0
  C  C71  1  0.05694691  0.05304215  0.55073369  1.0
  C  C72  1  0.77427783  0.92108321  0.42756345  1.0
  C  C73  1  0.23174696  0.07814610  0.57316922  1.0
  C  C74  1  0.78584098  0.87962899  0.38725859  1.0
  C  C75  1  0.22042530  0.11994116  0.61323826  1.0
  C  C76  1  0.54306047  0.36743988  0.86452293  1.0
  C  C77  1  0.46179016  0.62981849  0.13712996  1.0
  C  C78  1  0.36632574  0.39212337  0.88423387  1.0
  C  C79  1  0.63780999  0.60351283  0.11860818  1.0
  C  C80  1  0.37259103  0.43174051  0.92641430  1.0
  C  C81  1  0.63173076  0.56400999  0.07632845  1.0
  C  C82  1  0.55759164  0.44706540  0.94978198  1.0
  C  C83  1  0.44762076  0.55034871  0.05168942  1.0
  C  C84  1  0.73393070  0.42186485  0.93064702  1.0
  C  C85  1  0.27198973  0.57700738  0.06973108  1.0
  C  C86  1  0.72670239  0.38233685  0.88823110  1.0
  C  C87  1  0.27922421  0.61651515  0.11219297  1.0
  C  C88  1  0.53685127  0.35992876  0.62589825  1.0
  C  C89  1  0.47194965  0.64130816  0.37462218  1.0
  C  C90  1  0.36684306  0.39410648  0.61177865  1.0
  C  C91  1  0.64178625  0.60698793  0.38844492  1.0
  C  C92  1  0.37502241  0.43649478  0.57305366  1.0
  C  C93  1  0.63334072  0.56418927  0.42684456  1.0
  C  C94  1  0.55544906  0.44532560  0.54693196  1.0
  C  C95  1  0.45274413  0.55517637  0.45284706  1.0
  C  C96  1  0.72351791  0.41138084  0.55845286  1.0
  C  C97  1  0.28462141  0.58920109  0.44149305  1.0
  C  C98  1  0.71369562  0.36756154  0.59648214  1.0
  C  C99  1  0.29482144  0.63342366  0.40378258  1.0
  N  N100  1  0.92362798  0.98768238  0.49002350  1.0
  N  N101  1  0.08298257  0.01103159  0.51110520  1.0
  N  N102  1  0.58283600  0.48714705  0.99262146  1.0
  N  N103  1  0.42279942  0.51043839  0.00875566  1.0
  N  N104  1  0.58308080  0.48724661  0.50690876  1.0
  N  N105  1  0.42513328  0.51309982  0.49270866  1.0
  O  O106  1  0.69490052  0.30741212  0.69406421  1.0
  O  O107  1  0.31683544  0.69449293  0.30627605  1.0
  O  O108  1  0.36581656  0.31112218  0.79980485  1.0
  O  O109  1  0.63854184  0.68366229  0.20350171  1.0
  O  O110  1  0.20106894  0.20196897  0.80292288  1.0
  O  O111  1  0.80492118  0.79284357  0.19618415  1.0
  O  O112  1  0.35846318  0.30910344  0.69148744  1.0
  O  O113  1  0.65201230  0.69419679  0.31079597  1.0
  O  O114  1  0.19131414  0.19950698  0.69534138  1.0
  O  O115  1  0.81822905  0.80145961  0.30405686  1.0
  O  O116  1  0.70329530  0.30812508  0.80081543  1.0
  O  O117  1  0.30080743  0.69163392  0.19885661  1.0
  O  O118  1  0.52548107  0.21763673  0.74659148  1.0
  O  O119  1  0.48234487  0.78230800  0.25106818  1.0
  O  O120  1  0.85385200  0.19829311  0.69233545  1.0
  O  O121  1  0.15547907  0.80096247  0.30964441  1.0
  O  O122  1  0.86418587  0.20022179  0.79885704  1.0
  O  O123  1  0.14017335  0.80483770  0.20388365  1.0
  O  O124  1  0.03023505  0.29149379  0.74685667  1.0
  O  O125  1  0.97972382  0.70843172  0.25406946  1.0
  O  O126  1  0.69812630  0.17228572  0.88980246  1.0
  O  O127  1  0.28359669  0.83561569  0.10940067  1.0
  O  O128  1  0.81817891  0.61466709  0.36326103  1.0
  O  O129  1  0.19043582  0.38658291  0.63704624  1.0
  O  O130  1  0.86745814  0.33029721  0.60430318  1.0
  O  O131  1  0.14138065  0.67078571  0.39609289  1.0
  O  O132  1  0.64046804  0.89613928  0.17160520  1.0
  O  O133  1  0.37254080  0.11863638  0.84957243  1.0
  O  O134  1  0.81213781  0.04628113  0.03952738  1.0
  O  O135  1  0.13000803  0.95265243  0.95872135  1.0
  O  O136  1  0.34848139  0.02496846  0.91357199  1.0
  O  O137  1  0.60727243  0.97412653  0.09395801  1.0
  O  O138  1  0.28958957  0.92303630  0.04275408  1.0
  O  O139  1  0.66462302  0.07783187  0.95318526  1.0
  O  O140  1  0.69713957  0.04840256  0.54851412  1.0
  O  O141  1  0.30934699  0.95018569  0.45300162  1.0
