# generated using pymatgen
data_Zr3H16C20(N3O8)2
_symmetry_space_group_name_H-M   'P 1'
_cell_length_a   15.88730856
_cell_length_b   15.90614805
_cell_length_c   34.39267780
_cell_angle_alpha   89.70622132
_cell_angle_beta   90.06084339
_cell_angle_gamma   89.80949865
_symmetry_Int_Tables_number   1
_chemical_formula_structural   Zr3H16C20(N3O8)2
_chemical_formula_sum   'Zr12 H64 C80 N24 O64'
_cell_volume   8691.06463467
_cell_formula_units_Z   4
loop_
 _symmetry_equiv_pos_site_id
 _symmetry_equiv_pos_as_xyz
  1  'x, y, z'
loop_
 _atom_site_type_symbol
 _atom_site_label
 _atom_site_symmetry_multiplicity
 _atom_site_fract_x
 _atom_site_fract_y
 _atom_site_fract_z
 _atom_site_occupancy
  Zr  Zr0  1  0.90365302  0.94586968  0.45275481  1.0
  Zr  Zr1  1  0.91176883  0.94973252  0.55551664  1.0
  Zr  Zr2  1  0.06079784  0.10026277  0.44695694  1.0
  Zr  Zr3  1  0.06705445  0.10951255  0.55115624  1.0
  Zr  Zr4  1  0.87377747  0.13869129  0.50101921  1.0
  Zr  Zr5  1  0.09807028  0.91352924  0.50117803  1.0
  Zr  Zr6  1  0.41192356  0.60131493  0.95193758  1.0
  Zr  Zr7  1  0.41814049  0.59482052  0.05479639  1.0
  Zr  Zr8  1  0.56734160  0.44179276  0.94504522  1.0
  Zr  Zr9  1  0.57626078  0.43790103  0.04931246  1.0
  Zr  Zr10  1  0.60536452  0.63038094  0.99982965  1.0
  Zr  Zr11  1  0.38073639  0.40843461  0.00085466  1.0
  H  H12  1  0.94215886  0.81283068  0.50181441  1.0
  H  H13  1  0.90038553  0.11637667  0.58288810  1.0
  H  H14  1  0.19613022  0.07950010  0.50114443  1.0
  H  H15  1  0.90373526  0.10716666  0.41548618  1.0
  H  H16  1  0.87943842  0.98633072  0.63128423  1.0
  H  H17  1  0.99709308  0.03572115  0.61910913  1.0
  H  H18  1  0.15672541  0.24732928  0.55272628  1.0
  H  H19  1  0.20759871  0.17940732  0.42361570  1.0
  H  H20  1  0.07971914  0.06955567  0.37212489  1.0
  H  H21  1  0.84012795  0.94755008  0.37489750  1.0
  H  H22  1  0.75993072  0.86073113  0.45356459  1.0
  H  H23  1  0.80493887  0.84909295  0.50922899  1.0
  H  H24  1  0.13757194  0.24744460  0.43331385  1.0
  H  H25  1  0.92090608  0.88847613  0.37898108  1.0
  H  H26  1  0.75646973  0.87679867  0.54909600  1.0
  H  H27  1  0.09581680  0.05680674  0.62524929  1.0
  H  H28  1  0.28065042  0.56174080  0.00086470  1.0
  H  H29  1  0.58567695  0.60231659  0.08191375  1.0
  H  H30  1  0.53406304  0.30685950  0.99964622  1.0
  H  H31  1  0.57200364  0.60263110  0.91469406  1.0
  H  H32  1  0.45494963  0.62079571  0.13070151  1.0
  H  H33  1  0.50434087  0.50591334  0.11771338  1.0
  H  H34  1  0.71934839  0.35122099  0.04646614  1.0
  H  H35  1  0.67251387  0.33980108  0.99121009  1.0
  H  H36  1  0.53696028  0.42094216  0.87063343  1.0
  H  H37  1  0.41219634  0.66943756  0.87527139  1.0
  H  H38  1  0.32686309  0.74577413  0.95451120  1.0
  H  H39  1  0.31458486  0.70011727  0.00855336  1.0
  H  H40  1  0.71930377  0.36565928  0.95050188  1.0
  H  H41  1  0.35282699  0.58899167  0.87729826  1.0
  H  H42  1  0.26465574  0.68590299  0.04994780  1.0
  H  H43  1  0.52731606  0.40717562  0.12432091  1.0
  H  H44  1  0.40713218  0.14440647  0.93507803  1.0
  H  H45  1  0.50948268  0.22871644  0.86925429  1.0
  H  H46  1  0.55964126  0.90678886  0.93905833  1.0
  H  H47  1  0.46480087  0.81959708  0.87198921  1.0
  H  H48  1  0.87919720  0.58822569  0.06297538  1.0
  H  H49  1  0.78968509  0.49073748  0.12897600  1.0
  H  H50  1  0.11563054  0.44230904  0.06707127  1.0
  H  H51  1  0.19968028  0.54493788  0.13252000  1.0
  H  H52  1  0.87650749  0.59658694  0.93781297  1.0
  H  H53  1  0.78771619  0.49594403  0.87299371  1.0
  H  H54  1  0.11374129  0.44617596  0.93542199  1.0
  H  H55  1  0.19774403  0.54220897  0.86754222  1.0
  H  H56  1  0.52205149  0.22229879  0.13108909  1.0
  H  H57  1  0.41598337  0.14202463  0.06575943  1.0
  H  H58  1  0.56730549  0.89922615  0.06292388  1.0
  H  H59  1  0.46668383  0.81383406  0.12898632  1.0
  H  H60  1  0.96085495  0.73232354  0.63159238  1.0
  H  H61  1  0.06520290  0.64859886  0.56651335  1.0
  H  H62  1  0.90843984  0.41110632  0.56330473  1.0
  H  H63  1  0.01295755  0.32261698  0.62750581  1.0
  H  H64  1  0.96924092  0.73244503  0.36723172  1.0
  H  H65  1  0.05932190  0.64758052  0.43686204  1.0
  H  H66  1  0.91074633  0.41238450  0.43950974  1.0
  H  H67  1  0.00946886  0.32216690  0.37433587  1.0
  H  H68  1  0.36268190  0.94279188  0.56612126  1.0
  H  H69  1  0.27865651  0.04537181  0.63162316  1.0
  H  H70  1  0.68856162  0.99688344  0.62969038  1.0
  H  H71  1  0.60202682  0.09805506  0.56378399  1.0
  H  H72  1  0.27804670  0.03922739  0.36712056  1.0
  H  H73  1  0.36397245  0.94681951  0.43587647  1.0
  H  H74  1  0.68866003  0.00163070  0.37195511  1.0
  H  H75  1  0.59770494  0.09395560  0.43876807  1.0
  C  C76  1  0.73389562  0.06064364  0.44045889  1.0
  C  C77  1  0.02964899  0.78353039  0.56588080  1.0
  C  C78  1  0.73751237  0.06245567  0.56298572  1.0
  C  C79  1  0.02886015  0.78336801  0.43574315  1.0
  C  C80  1  0.22796008  0.97946703  0.43523942  1.0
  C  C81  1  0.94748393  0.27664336  0.56074727  1.0
  C  C82  1  0.22741808  0.97770873  0.56581125  1.0
  C  C83  1  0.94769358  0.27698272  0.44176448  1.0
  C  C84  1  0.98549711  0.45568858  0.36846927  1.0
  C  C85  1  0.98839292  0.52355380  0.31039454  1.0
  C  C86  1  0.98970718  0.59824520  0.36627662  1.0
  C  C87  1  0.41257757  0.01764422  0.36523651  1.0
  C  C88  1  0.48723375  0.01713543  0.30914003  1.0
  C  C89  1  0.55514970  0.02249903  0.36702751  1.0
  C  C90  1  0.41246054  0.02014279  0.63492446  1.0
  C  C91  1  0.48561426  0.02130823  0.69148529  1.0
  C  C92  1  0.55520664  0.02224566  0.63410015  1.0
  C  C93  1  0.98529181  0.45549173  0.63332791  1.0
  C  C94  1  0.98639534  0.59817327  0.63478977  1.0
  C  C95  1  0.98612409  0.52351239  0.69101159  1.0
  C  C96  1  0.49278429  0.94672710  0.13330079  1.0
  C  C97  1  0.49380488  0.08936115  0.13421649  1.0
  C  C98  1  0.49213632  0.01575149  0.19073818  1.0
  C  C99  1  0.52550788  0.77129066  0.94004587  1.0
  C  C100  1  0.25011557  0.47926497  0.06583248  1.0
  C  C101  1  0.53251060  0.76402174  0.06283051  1.0
  C  C102  1  0.24910930  0.47815558  0.93546883  1.0
  C  C103  1  0.44314557  0.27908107  0.93532943  1.0
  C  C104  1  0.74443993  0.55146945  0.06024424  1.0
  C  C105  1  0.45225146  0.27628932  0.06529709  1.0
  C  C106  1  0.74161183  0.55842298  0.94003864  1.0
  C  C107  1  0.92287286  0.51788942  0.13430605  1.0
  C  C108  1  0.99180207  0.51964138  0.19199296  1.0
  C  C109  1  0.06579341  0.51854896  0.13576063  1.0
  C  C110  1  0.48777080  0.95260960  0.86754392  1.0
  C  C111  1  0.48457265  0.09508039  0.86616339  1.0
  C  C112  1  0.48637822  0.02181934  0.80986471  1.0
  C  C113  1  0.92099198  0.52215738  0.86728543  1.0
  C  C114  1  0.06373280  0.51983179  0.86561288  1.0
  C  C115  1  0.98928327  0.52166950  0.80944073  1.0
  C  C116  1  0.44125764  0.19267632  0.91896188  1.0
  C  C117  1  0.48052834  0.17689647  0.88521381  1.0
  C  C118  1  0.52711864  0.85765703  0.92298659  1.0
  C  C119  1  0.49129155  0.87204768  0.88818370  1.0
  C  C120  1  0.82960328  0.55452188  0.07838468  1.0
  C  C121  1  0.84253318  0.51880436  0.11339882  1.0
  C  C122  1  0.16390132  0.47711085  0.08275000  1.0
  C  C123  1  0.14798831  0.51594603  0.11657085  1.0
  C  C124  1  0.82749396  0.56184086  0.92260477  1.0
  C  C125  1  0.84077692  0.52450483  0.88816473  1.0
  C  C126  1  0.16264029  0.47811150  0.91878055  1.0
  C  C127  1  0.14628323  0.51551722  0.88450427  1.0
  C  C128  1  0.49162255  0.17174950  0.11506350  1.0
  C  C129  1  0.45131178  0.18944166  0.08166843  1.0
  C  C130  1  0.53338903  0.85078358  0.07901456  1.0
  C  C131  1  0.49535571  0.86597941  0.11315252  1.0
  C  C132  1  0.98736716  0.52177268  0.76791923  1.0
  C  C133  1  0.98664515  0.52178359  0.73257758  1.0
  C  C134  1  0.48648899  0.02082001  0.76835345  1.0
  C  C135  1  0.48649066  0.02102761  0.73301900  1.0
  C  C136  1  0.48943549  0.01536937  0.26763886  1.0
  C  C137  1  0.49078258  0.01472482  0.23230414  1.0
  C  C138  1  0.99016081  0.52058423  0.23353848  1.0
  C  C139  1  0.98920688  0.52143780  0.26886725  1.0
  C  C140  1  0.99008259  0.68059103  0.61576413  1.0
  C  C141  1  0.03045040  0.69683048  0.58228078  1.0
  C  C142  1  0.94413672  0.36207652  0.57834430  1.0
  C  C143  1  0.98292065  0.37544558  0.61250791  1.0
  C  C144  1  0.99405584  0.68073737  0.38481035  1.0
  C  C145  1  0.02917061  0.69676049  0.41949812  1.0
  C  C146  1  0.94492806  0.36295509  0.42425375  1.0
  C  C147  1  0.98201401  0.37569139  0.38961322  1.0
  C  C148  1  0.31420173  0.97656875  0.58222077  1.0
  C  C149  1  0.33042513  0.01625904  0.61574356  1.0
  C  C150  1  0.63614426  0.02542778  0.61382786  1.0
  C  C151  1  0.65084969  0.06362977  0.57957882  1.0
  C  C152  1  0.33030790  0.01376346  0.38416865  1.0
  C  C153  1  0.31485503  0.97809804  0.41891109  1.0
  C  C154  1  0.63519863  0.02727928  0.38791032  1.0
  C  C155  1  0.64797200  0.06244325  0.42285180  1.0
  N  N156  1  0.98890464  0.44944684  0.32934475  1.0
  N  N157  1  0.98743326  0.59988762  0.32704950  1.0
  N  N158  1  0.98720778  0.52830856  0.38844517  1.0
  N  N159  1  0.41091177  0.01848865  0.32599903  1.0
  N  N160  1  0.56151293  0.01754702  0.32795625  1.0
  N  N161  1  0.48265728  0.02126840  0.38721581  1.0
  N  N162  1  0.40983287  0.02347984  0.67411953  1.0
  N  N163  1  0.56042159  0.01925878  0.67325936  1.0
  N  N164  1  0.48329993  0.02098009  0.61340720  1.0
  N  N165  1  0.98567384  0.52807374  0.61298731  1.0
  N  N166  1  0.98332355  0.59974649  0.67398817  1.0
  N  N167  1  0.98874654  0.44933867  0.67248530  1.0
  N  N168  1  0.49350255  0.01891787  0.11267129  1.0
  N  N169  1  0.49669258  0.09155678  0.17342985  1.0
  N  N170  1  0.48861971  0.94135804  0.17247622  1.0
  N  N171  1  0.91733218  0.51580054  0.17347311  1.0
  N  N172  1  0.06787320  0.52266721  0.17493471  1.0
  N  N173  1  0.99530459  0.51773380  0.11398273  1.0
  N  N174  1  0.48602498  0.02448363  0.88796489  1.0
  N  N175  1  0.48784501  0.09758130  0.82696899  1.0
  N  N176  1  0.48482218  0.94717104  0.82841167  1.0
  N  N177  1  0.99364292  0.52070401  0.88755131  1.0
  N  N178  1  0.06561989  0.52339165  0.82642903  1.0
  N  N179  1  0.91506028  0.51969666  0.82814182  1.0
  O  O180  1  0.77907890  0.99701394  0.43089809  1.0
  O  O181  1  0.75549952  0.11956601  0.46303884  1.0
  O  O182  1  0.96956758  0.83093697  0.57678591  1.0
  O  O183  1  0.08724055  0.80324646  0.54150032  1.0
  O  O184  1  0.78319457  0.99941259  0.57301272  1.0
  O  O185  1  0.75953330  0.12251990  0.54066929  1.0
  O  O186  1  0.97142229  0.83342728  0.42334724  1.0
  O  O187  1  0.08327361  0.80025247  0.46172620  1.0
  O  O188  1  0.81442433  0.85027091  0.46557681  1.0
  O  O189  1  0.89816108  0.94487197  0.38397171  1.0
  O  O190  1  0.80932387  0.85333848  0.53963750  1.0
  O  O191  1  0.92773539  0.97055059  0.61565963  1.0
  O  O192  1  0.87201950  0.00850916  0.50242933  1.0
  O  O193  1  0.95658219  0.87210197  0.50187752  1.0
  O  O194  1  0.18103098  0.03995829  0.42362173  1.0
  O  O195  1  0.20789956  0.92272685  0.45969414  1.0
  O  O196  1  0.01186787  0.23273315  0.56969223  1.0
  O  O197  1  0.88723123  0.25409272  0.53843024  1.0
  O  O198  1  0.17663922  0.03211397  0.57907457  1.0
  O  O199  1  0.21136868  0.92545197  0.53853837  1.0
  O  O200  1  0.01510124  0.23569844  0.43546518  1.0
  O  O201  1  0.88408321  0.25082634  0.46087444  1.0
  O  O202  1  0.17085353  0.20060984  0.44409559  1.0
  O  O203  1  0.04541014  0.10543015  0.38848324  1.0
  O  O204  1  0.16593932  0.18795774  0.54791004  1.0
  O  O205  1  0.04320363  0.08210505  0.61624279  1.0
  O  O206  1  0.13891671  0.05825916  0.49929603  1.0
  O  O207  1  0.00165947  0.13989277  0.49975494  1.0
  O  O208  1  0.03172541  0.97613329  0.45801003  1.0
  O  O209  1  0.92449279  0.09170049  0.55968088  1.0
  O  O210  1  0.92062003  0.08507709  0.44073881  1.0
  O  O211  1  0.03373106  0.97950635  0.54255096  1.0
  O  O212  1  0.46153033  0.72680016  0.93055353  1.0
  O  O213  1  0.58537778  0.74831948  0.96214262  1.0
  O  O214  1  0.29525828  0.54224227  0.07536073  1.0
  O  O215  1  0.27132167  0.42059471  0.04260829  1.0
  O  O216  1  0.47225966  0.71712496  0.07419231  1.0
  O  O217  1  0.59120891  0.74314096  0.03941304  1.0
  O  O218  1  0.29925956  0.53516445  0.92309993  1.0
  O  O219  1  0.26592085  0.42396888  0.96179847  1.0
  O  O220  1  0.31576028  0.69083427  0.96590748  1.0
  O  O221  1  0.40889841  0.61078297  0.88342150  1.0
  O  O222  1  0.32015649  0.69736980  0.03931087  1.0
  O  O223  1  0.43920408  0.57285113  0.11495636  1.0
  O  O224  1  0.47476788  0.63390950  0.00196957  1.0
  O  O225  1  0.34009414  0.54771543  0.00133066  1.0
  O  O226  1  0.50200133  0.32651921  0.92323762  1.0
  O  O227  1  0.38772574  0.29827996  0.96077501  1.0
  O  O228  1  0.70038129  0.48705869  0.06909679  1.0
  O  O229  1  0.72232243  0.61162938  0.03777153  1.0
  O  O230  1  0.51171955  0.32421941  0.07653277  1.0
  O  O231  1  0.39541503  0.29555886  0.04052467  1.0
  O  O232  1  0.70005402  0.49226370  0.93293500  1.0
  O  O233  1  0.71619568  0.62097360  0.96024839  1.0
  O  O234  1  0.66687410  0.34251381  0.96063902  1.0
  O  O235  1  0.56940455  0.45836861  0.88698637  1.0
  O  O236  1  0.66469302  0.34278995  0.03438484  1.0
  O  O237  1  0.55168166  0.45951755  0.11476398  1.0
  O  O238  1  0.52067213  0.36646591  0.99894751  1.0
  O  O239  1  0.60412413  0.50269870  0.99857291  1.0
  O  O240  1  0.44268947  0.47410262  0.95789997  1.0
  O  O241  1  0.56073885  0.57826297  0.05877125  1.0
  O  O242  1  0.55009064  0.58383633  0.93963555  1.0
  O  O243  1  0.44737868  0.47169144  0.04318816  1.0
