# generated using pymatgen
data_Zn4H36C36O13
_symmetry_space_group_name_H-M   'P 1'
_cell_length_a   18.20715431
_cell_length_b   18.21061935
_cell_length_c   18.26466514
_cell_angle_alpha   60.45412084
_cell_angle_beta   60.62243280
_cell_angle_gamma   60.47524064
_symmetry_Int_Tables_number   1
_chemical_formula_structural   Zn4H36C36O13
_chemical_formula_sum   'Zn8 H72 C72 O26'
_cell_volume   4332.19762093
_cell_formula_units_Z   2
loop_
 _symmetry_equiv_pos_site_id
 _symmetry_equiv_pos_as_xyz
  1  'x, y, z'
loop_
 _atom_site_type_symbol
 _atom_site_label
 _atom_site_symmetry_multiplicity
 _atom_site_fract_x
 _atom_site_fract_y
 _atom_site_fract_z
 _atom_site_occupancy
  Zn  Zn0  1  0.85246987  0.05576601  0.04563036  1.0
  Zn  Zn1  1  0.02356180  0.05692241  0.05351011  1.0
  Zn  Zn2  1  0.02916218  0.05685436  0.87530198  1.0
  Zn  Zn3  1  0.02724033  0.88133237  0.04688205  1.0
  Zn  Zn4  1  0.61396730  0.46777769  0.46064861  1.0
  Zn  Zn5  1  0.43642431  0.46699190  0.46525980  1.0
  Zn  Zn6  1  0.44022962  0.64393530  0.46091205  1.0
  Zn  Zn7  1  0.44202367  0.47213857  0.63612350  1.0
  H  H8  1  0.78791002  0.03423413  0.30192340  1.0
  H  H9  1  0.77277675  0.03814064  0.40338803  1.0
  H  H10  1  0.87279693  0.04583518  0.31293981  1.0
  H  H11  1  0.60715520  0.21276955  0.48208099  1.0
  H  H12  1  0.69515902  0.11057868  0.47759731  1.0
  H  H13  1  0.71409825  0.19919418  0.47357585  1.0
  H  H14  1  0.66663252  0.48723924  0.21254669  1.0
  H  H15  1  0.68827087  0.48333826  0.10890824  1.0
  H  H16  1  0.58397498  0.47979733  0.19419406  1.0
  H  H17  1  0.83551252  0.35286334  0.03110182  1.0
  H  H18  1  0.72092629  0.40464405  0.04039983  1.0
  H  H19  1  0.77805292  0.29523345  0.03485099  1.0
  H  H20  1  0.78049408  0.34505824  0.85804764  1.0
  H  H21  1  0.82325708  0.40483858  0.74362533  1.0
  H  H22  1  0.88701461  0.29422676  0.79069078  1.0
  H  H23  1  0.62474806  0.49110996  0.68939213  1.0
  H  H24  1  0.71662964  0.48418534  0.70492620  1.0
  H  H25  1  0.72984965  0.47990321  0.60397333  1.0
  H  H26  1  0.67724158  0.21196521  0.63428838  1.0
  H  H27  1  0.68154582  0.11606866  0.73068230  1.0
  H  H28  1  0.58669187  0.21401644  0.73512814  1.0
  H  H29  1  0.85038086  0.03469037  0.80445110  1.0
  H  H30  1  0.74557416  0.04369039  0.81226984  1.0
  H  H31  1  0.75642894  0.04894858  0.90046121  1.0
  H  H32  1  0.78786946  0.87153597  0.02257603  1.0
  H  H33  1  0.79786492  0.76575843  0.03179115  1.0
  H  H34  1  0.88531626  0.77860229  0.03682335  1.0
  H  H35  1  0.62045819  0.70598065  0.18943754  1.0
  H  H36  1  0.72631024  0.69141888  0.10538698  1.0
  H  H37  1  0.71149298  0.60732393  0.21107312  1.0
  H  H38  1  0.65614905  0.65598430  0.47787620  1.0
  H  H39  1  0.69829603  0.73015532  0.46917650  1.0
  H  H40  1  0.59037898  0.77027550  0.46234129  1.0
  H  H41  1  0.83145261  0.79939565  0.34666223  1.0
  H  H42  1  0.71596118  0.85966555  0.38467266  1.0
  H  H43  1  0.78355309  0.90636045  0.27700564  1.0
  H  H44  1  0.29793683  0.03292131  0.87169261  1.0
  H  H45  1  0.37755853  0.04472146  0.76298188  1.0
  H  H46  1  0.26995696  0.05037079  0.78285511  1.0
  H  H47  1  0.46113918  0.22334717  0.67772954  1.0
  H  H48  1  0.45418760  0.11545282  0.72083828  1.0
  H  H49  1  0.44215268  0.18878823  0.61508140  1.0
  H  H50  1  0.17137171  0.49208435  0.65544197  1.0
  H  H51  1  0.08836961  0.48296849  0.76198264  1.0
  H  H52  1  0.19505755  0.47609771  0.74645595  1.0
  H  H53  1  0.00417204  0.31406601  0.83553838  1.0
  H  H54  1  0.01317658  0.41213497  0.82324704  1.0
  H  H55  1  0.02317711  0.31716050  0.92007253  1.0
  H  H56  1  0.00024059  0.86445115  0.31896470  1.0
  H  H57  1  0.01115615  0.75694238  0.40085989  1.0
  H  H58  1  0.01931898  0.77299056  0.29366736  1.0
  H  H59  1  0.16144211  0.69780513  0.48843678  1.0
  H  H60  1  0.08450616  0.67879059  0.47277145  1.0
  H  H61  1  0.19290118  0.59949825  0.46717736  1.0
  H  H62  1  0.45915014  0.65895363  0.18997586  1.0
  H  H63  1  0.44596783  0.77100842  0.11793509  1.0
  H  H64  1  0.44110296  0.74125648  0.22773834  1.0
  H  H65  1  0.29822824  0.82103713  0.02957410  1.0
  H  H66  1  0.37423500  0.84248102  0.04411662  1.0
  H  H67  1  0.26549474  0.92078597  0.04895483  1.0
  H  H68  1  0.29224901  0.88678478  0.80558453  1.0
  H  H69  1  0.38295956  0.78501235  0.81201143  1.0
  H  H70  1  0.28073029  0.79083483  0.90117276  1.0
  H  H71  1  0.46317336  0.70788534  0.63536344  1.0
  H  H72  1  0.45792124  0.72780991  0.72340617  1.0
  H  H73  1  0.45373914  0.62457582  0.74197392  1.0
  H  H74  1  0.17543848  0.64656154  0.70460342  1.0
  H  H75  1  0.09084700  0.75207471  0.68769012  1.0
  H  H76  1  0.19663526  0.73552914  0.60388648  1.0
  H  H77  1  0.00999456  0.80602126  0.86768357  1.0
  H  H78  1  0.01669302  0.82644413  0.75966554  1.0
  H  H79  1  0.01742862  0.90951311  0.78289664  1.0
  C  C80  1  0.83866410  0.15161174  0.14505379  1.0
  C  C81  1  0.77894170  0.20918607  0.20323545  1.0
  C  C82  1  0.75967533  0.16662919  0.29586436  1.0
  C  C83  1  0.79991749  0.06616409  0.33093713  1.0
  C  C84  1  0.70484705  0.22024746  0.35076335  1.0
  C  C85  1  0.67926916  0.18322930  0.45102924  1.0
  C  C86  1  0.67365676  0.31341139  0.30968817  1.0
  C  C87  1  0.61714665  0.37090859  0.36802795  1.0
  C  C88  1  0.69328313  0.35586557  0.21725226  1.0
  C  C89  1  0.65640462  0.45660201  0.18080792  1.0
  C  C90  1  0.74671357  0.30208677  0.16238231  1.0
  C  C91  1  0.77131603  0.34093452  0.06218336  1.0
  C  C92  1  0.84874768  0.15202680  0.86166201  1.0
  C  C93  1  0.79194965  0.21037588  0.80254943  1.0
  C  C94  1  0.77652198  0.30274615  0.76845441  1.0
  C  C95  1  0.81875498  0.33897342  0.79110635  1.0
  C  C96  1  0.72058367  0.35787248  0.71555573  1.0
  C  C97  1  0.69717953  0.45828621  0.67669660  1.0
  C  C98  1  0.68539599  0.31684711  0.69836883  1.0
  C  C99  1  0.62625297  0.37534965  0.64159302  1.0
  C  C100  1  0.70194680  0.22418059  0.73134315  1.0
  C  C101  1  0.66000892  0.18915486  0.70702076  1.0
  C  C102  1  0.75620800  0.16929163  0.78586948  1.0
  C  C103  1  0.77791236  0.06912031  0.82751232  1.0
  C  C104  1  0.84462126  0.87274420  0.13875870  1.0
  C  C105  1  0.78648077  0.81490540  0.19700725  1.0
  C  C106  1  0.77069659  0.77766066  0.15659118  1.0
  C  C107  1  0.81224349  0.79905925  0.05692431  1.0
  C  C108  1  0.71656946  0.72307673  0.21134649  1.0
  C  C109  1  0.69292610  0.68006035  0.17686407  1.0
  C  C110  1  0.68215212  0.70809536  0.30349848  1.0
  C  C111  1  0.62379805  0.65052234  0.36190563  1.0
  C  C112  1  0.69850935  0.74465907  0.34369362  1.0
  C  C113  1  0.65906967  0.72432049  0.44326157  1.0
  C  C114  1  0.75139400  0.80055005  0.28870435  1.0
  C  C115  1  0.77148936  0.84355898  0.32633442  1.0
  C  C116  1  0.12125959  0.15323207  0.87410717  1.0
  C  C117  1  0.17984771  0.21064807  0.81753181  1.0
  C  C118  1  0.27159645  0.16906337  0.78057643  1.0
  C  C119  1  0.30672602  0.06918262  0.80027317  1.0
  C  C120  1  0.32648736  0.22299707  0.72612202  1.0
  C  C121  1  0.42596272  0.18542306  0.68297584  1.0
  C  C122  1  0.28612919  0.31540009  0.71107152  1.0
  C  C123  1  0.34415225  0.37326179  0.65084246  1.0
  C  C124  1  0.19428732  0.35705720  0.74848228  1.0
  C  C125  1  0.15980061  0.45711393  0.72740909  1.0
  C  C126  1  0.13950725  0.30305357  0.80331034  1.0
  C  C127  1  0.03999696  0.33904948  0.84748501  1.0
  C  C128  1  0.11961559  0.87295353  0.14692894  1.0
  C  C129  1  0.17707320  0.81432772  0.20560180  1.0
  C  C130  1  0.13615152  0.77385734  0.29642671  1.0
  C  C131  1  0.03673765  0.79251985  0.32981547  1.0
  C  C132  1  0.19025170  0.71850781  0.35120130  1.0
  C  C133  1  0.15489165  0.67145370  0.44986514  1.0
  C  C134  1  0.28182716  0.70760637  0.31189600  1.0
  C  C135  1  0.33943145  0.64973022  0.37041645  1.0
  C  C136  1  0.32277213  0.74798699  0.22098813  1.0
  C  C137  1  0.42222818  0.72930697  0.18688474  1.0
  C  C138  1  0.26873449  0.80277640  0.16613752  1.0
  C  C139  1  0.30405755  0.84894508  0.06724701  1.0
  C  C140  1  0.12434831  0.87558890  0.86393861  1.0
  C  C141  1  0.18301250  0.81886030  0.80494419  1.0
  C  C142  1  0.27567085  0.78816173  0.78690780  1.0
  C  C143  1  0.31035099  0.81366476  0.82811121  1.0
  C  C144  1  0.33100715  0.73485178  0.73166285  1.0
  C  C145  1  0.43150232  0.69718414  0.70720435  1.0
  C  C146  1  0.29013704  0.71526454  0.69829480  1.0
  C  C147  1  0.34869743  0.65639017  0.64141771  1.0
  C  C148  1  0.19744291  0.74612866  0.71616220  1.0
  C  C149  1  0.16268911  0.71922626  0.67627981  1.0
  C  C150  1  0.14210068  0.79975715  0.77114633  1.0
  C  C151  1  0.04154775  0.83705819  0.79618391  1.0
  O  O152  1  0.98335476  0.01256769  0.00575305  1.0
  O  O153  1  0.92203692  0.13835847  0.11739125  1.0
  O  O154  1  0.80113804  0.12050020  0.12869560  1.0
  O  O155  1  0.53286466  0.38977859  0.39437179  1.0
  O  O156  1  0.65877924  0.39593468  0.38608788  1.0
  O  O157  1  0.93255357  0.12091247  0.82402223  1.0
  O  O158  1  0.80793716  0.13860868  0.94481403  1.0
  O  O159  1  0.54269949  0.40307583  0.68213220  1.0
  O  O160  1  0.66470685  0.39218573  0.55782819  1.0
  O  O161  1  0.92809520  0.83330730  0.12652210  1.0
  O  O162  1  0.80559532  0.95625184  0.10667288  1.0
  O  O163  1  0.53979326  0.69098403  0.38014424  1.0
  O  O164  1  0.66311883  0.56633082  0.38837196  1.0
  O  O165  1  0.09271130  0.13881684  0.83272843  1.0
  O  O166  1  0.10513425  0.12380487  0.95797147  1.0
  O  O167  1  0.37116613  0.39423695  0.68816367  1.0
  O  O168  1  0.36132541  0.39645992  0.56743701  1.0
  O  O169  1  0.10867357  0.83416014  0.11271830  1.0
  O  O170  1  0.08690846  0.95625131  0.13628967  1.0
  O  O171  1  0.35694362  0.68999112  0.39747771  1.0
  O  O172  1  0.36602526  0.56552065  0.38794041  1.0
  O  O173  1  0.09157909  0.83549631  0.94654458  1.0
  O  O174  1  0.11253706  0.95915177  0.82632766  1.0
  O  O175  1  0.37564298  0.69489966  0.55749278  1.0
  O  O176  1  0.36625713  0.57242819  0.68238563  1.0
  O  O177  1  0.48298570  0.51262955  0.50553476  1.0
