# generated using pymatgen
data_AlH11C12NO5
_symmetry_space_group_name_H-M   'P 1'
_cell_length_a   6.62622640
_cell_length_b   11.00013719
_cell_length_c   16.98326878
_cell_angle_alpha   86.51855043
_cell_angle_beta   82.47176514
_cell_angle_gamma   72.58887982
_symmetry_Int_Tables_number   1
_chemical_formula_structural   AlH11C12NO5
_chemical_formula_sum   'Al2 H22 C24 N2 O10'
_cell_volume   1170.69806231
_cell_formula_units_Z   2
loop_
 _symmetry_equiv_pos_site_id
 _symmetry_equiv_pos_as_xyz
  1  'x, y, z'
loop_
 _atom_site_type_symbol
 _atom_site_label
 _atom_site_symmetry_multiplicity
 _atom_site_fract_x
 _atom_site_fract_y
 _atom_site_fract_z
 _atom_site_occupancy
  Al  Al0  1  0.49711913  0.49997682  0.49807084  1.0
  Al  Al1  1  0.00063740  0.49197666  0.49837452  1.0
  H  H2  1  0.17960935  0.64665451  0.45556624  1.0
  H  H3  1  0.75074027  0.42089125  0.59153032  1.0
  H  H4  1  0.87575944  0.45014592  0.74148057  1.0
  H  H5  1  0.82467611  0.44847641  0.89077938  1.0
  H  H6  1  0.38039903  0.57364496  0.89045905  1.0
  H  H7  1  0.43435004  0.57241352  0.74052030  1.0
  H  H8  1  0.55300952  0.55344537  0.10794437  1.0
  H  H9  1  0.23243434  0.43721013  0.10996555  1.0
  H  H10  1  0.18070755  0.42691331  0.25980267  1.0
  H  H11  1  0.50224680  0.54299235  0.25827618  1.0
  H  H12  1  0.33630151  0.11642242  0.62303529  1.0
  H  H13  1  0.15533603  0.09982349  0.55978256  1.0
  H  H14  1  0.28856098  0.87888762  0.58417147  1.0
  H  H15  1  0.50591635  0.89726594  0.62747272  1.0
  H  H16  1  0.29874092  0.89885293  0.43429304  1.0
  H  H17  1  0.54287547  0.88023959  0.37308581  1.0
  H  H18  1  0.23452710  0.11906338  0.41092352  1.0
  H  H19  1  0.50155973  0.09908324  0.36937129  1.0
  H  H20  1  0.71977071  0.09719220  0.56108725  1.0
  H  H21  1  0.77585095  0.11630952  0.45801573  1.0
  H  H22  1  0.86132332  0.89628581  0.43821844  1.0
  H  H23  1  0.86165786  0.87683398  0.54185002  1.0
  C  C24  1  0.63124839  0.72877023  0.50025112  1.0
  C  C25  1  0.80948144  0.48424574  0.35551971  1.0
  C  C26  1  0.37261488  0.26687995  0.49538267  1.0
  C  C27  1  0.19052610  0.50686578  0.64398386  1.0
  C  C28  1  0.15810069  0.51118263  0.73256363  1.0
  C  C29  1  0.98461032  0.47755759  0.77473226  1.0
  C  C30  1  0.95512238  0.47717802  0.85703040  1.0
  C  C31  1  0.09848708  0.51274243  0.89852018  1.0
  C  C32  1  0.27178171  0.54678498  0.85667304  1.0
  C  C33  1  0.30136376  0.54586332  0.77404737  1.0
  C  C34  1  0.68831626  0.52610587  0.14235451  1.0
  C  C35  1  0.89456840  0.49850003  0.10119847  1.0
  C  C36  1  0.07399904  0.46117863  0.14321254  1.0
  C  C37  1  0.04526214  0.45528020  0.22555989  1.0
  C  C38  1  0.83881038  0.48579783  0.26691478  1.0
  C  C39  1  0.66053991  0.52048648  0.22494276  1.0
  C  C40  1  0.32475214  0.07121223  0.56841380  1.0
  C  C41  1  0.41647745  0.92462594  0.57572507  1.0
  C  C42  1  0.56802773  0.87343650  0.50008096  1.0
  C  C43  1  0.44716477  0.92578035  0.42721009  1.0
  C  C44  1  0.40137441  0.07232285  0.42029237  1.0
  C  C45  1  0.44858144  0.12220252  0.49702813  1.0
  C  C46  1  0.68854788  0.07004161  0.50360217  1.0
  C  C47  1  0.76246839  0.92367980  0.49528659  1.0
  N  N48  1  0.08432817  0.51242909  0.98227026  1.0
  N  N49  1  0.90591771  0.50769581  0.01762344  1.0
  O  O50  1  0.48086708  0.67714252  0.50735414  1.0
  O  O51  1  0.97515111  0.46638421  0.39028737  1.0
  O  O52  1  0.17209411  0.31969249  0.50290462  1.0
  O  O53  1  0.37705109  0.49877164  0.60970782  1.0
  O  O54  1  0.51209518  0.32604946  0.48763075  1.0
  O  O55  1  0.02886266  0.50987540  0.60972739  1.0
  O  O56  1  0.82937839  0.66886961  0.49141427  1.0
  O  O57  1  0.62033593  0.50377325  0.38996768  1.0
  O  O58  1  0.22872682  0.55525239  0.46517338  1.0
  O  O59  1  0.76060668  0.44384989  0.53550170  1.0
