# generated using pymatgen
data_NdH12C9O8
_symmetry_space_group_name_H-M   'P 1'
_cell_length_a   8.52170797
_cell_length_b   12.89968439
_cell_length_c   19.49184981
_cell_angle_alpha   89.99990329
_cell_angle_beta   90.00001288
_cell_angle_gamma   109.18722765
_symmetry_Int_Tables_number   1
_chemical_formula_structural   NdH12C9O8
_chemical_formula_sum   'Nd4 H48 C36 O32'
_cell_volume   2023.66025388
_cell_formula_units_Z   4
loop_
 _symmetry_equiv_pos_site_id
 _symmetry_equiv_pos_as_xyz
  1  'x, y, z'
loop_
 _atom_site_type_symbol
 _atom_site_label
 _atom_site_symmetry_multiplicity
 _atom_site_fract_x
 _atom_site_fract_y
 _atom_site_fract_z
 _atom_site_occupancy
  Nd  Nd0  1  0.25935379  0.51877382  0.50000358  1.0
  Nd  Nd1  1  0.74065774  0.48122653  0.00000284  1.0
  Nd  Nd2  1  0.74065402  0.48122585  0.49999798  1.0
  Nd  Nd3  1  0.25935951  0.51877559  0.99999871  1.0
  H  H4  1  0.22108116  0.89742863  0.54714409  1.0
  H  H5  1  0.77891861  0.10257160  0.04714327  1.0
  H  H6  1  0.32491979  0.10366187  0.95268840  1.0
  H  H7  1  0.67507847  0.89633725  0.45268822  1.0
  H  H8  1  0.77891323  0.10256530  0.45285951  1.0
  H  H9  1  0.22108579  0.89743299  0.95285520  1.0
  H  H10  1  0.67508614  0.89634109  0.04731008  1.0
  H  H11  1  0.32491668  0.10365586  0.54731435  1.0
  H  H12  1  0.67429895  0.67605054  0.68479715  1.0
  H  H13  1  0.32569801  0.32395095  0.18479912  1.0
  H  H14  1  0.99859428  0.32346200  0.81528780  1.0
  H  H15  1  0.00139981  0.67653832  0.31528319  1.0
  H  H16  1  0.32569836  0.32395159  0.31519978  1.0
  H  H17  1  0.67429731  0.67604955  0.81520243  1.0
  H  H18  1  0.00140404  0.67653275  0.18471118  1.0
  H  H19  1  0.99859321  0.32346464  0.68471271  1.0
  H  H20  1  0.67441514  0.53917449  0.68169183  1.0
  H  H21  1  0.32558064  0.46082702  0.18169467  1.0
  H  H22  1  0.13512586  0.46025274  0.81827509  1.0
  H  H23  1  0.86487491  0.53974921  0.31827584  1.0
  H  H24  1  0.32558533  0.46082929  0.31830562  1.0
  H  H25  1  0.67441861  0.53917430  0.81830329  1.0
  H  H26  1  0.86487674  0.53974118  0.18172082  1.0
  H  H27  1  0.13512204  0.46025457  0.68172314  1.0
  H  H28  1  0.40186802  0.61328473  0.75000033  1.0
  H  H29  1  0.59813082  0.38671577  0.24999763  1.0
  H  H30  1  0.78873834  0.38640985  0.75000150  1.0
  H  H31  1  0.21125815  0.61359064  0.25000006  1.0
  H  H32  1  0.40931380  0.47850277  0.74999937  1.0
  H  H33  1  0.59068662  0.52149855  0.24999858  1.0
  H  H34  1  0.93063782  0.52111330  0.75000194  1.0
  H  H35  1  0.06935862  0.47888473  0.25000166  1.0
  H  H36  1  0.16098992  0.28522356  0.57068812  1.0
  H  H37  1  0.83901013  0.71477250  0.07068919  1.0
  H  H38  1  0.87505270  0.71467183  0.92910233  1.0
  H  H39  1  0.12495063  0.28532571  0.42910227  1.0
  H  H40  1  0.83900963  0.71477365  0.42931190  1.0
  H  H41  1  0.16098947  0.28522718  0.92931185  1.0
  H  H42  1  0.12494838  0.28532374  0.07089820  1.0
  H  H43  1  0.87505295  0.71467724  0.57089877  1.0
  H  H44  1  0.35102789  0.31108679  0.55064076  1.0
  H  H45  1  0.64897264  0.68891261  0.05063979  1.0
  H  H46  1  0.03915480  0.68875036  0.94931845  1.0
  H  H47  1  0.96084857  0.31124958  0.44931792  1.0
  H  H48  1  0.64897095  0.68891371  0.44936079  1.0
  H  H49  1  0.35102855  0.31108788  0.94936330  1.0
  H  H50  1  0.96084709  0.31124684  0.05068259  1.0
  H  H51  1  0.03915379  0.68875091  0.55068311  1.0
  C  C52  1  0.38052713  0.76222336  0.49992290  1.0
  C  C53  1  0.61946687  0.23777891  0.99992141  1.0
  C  C54  1  0.61946238  0.23777960  0.50007916  1.0
  C  C55  1  0.38054024  0.76222404  0.00007757  1.0
  C  C56  1  0.44203874  0.88488973  0.49991719  1.0
  C  C57  1  0.55795755  0.11511008  0.99991686  1.0
  C  C58  1  0.55795611  0.11510748  0.50008180  1.0
  C  C59  1  0.44204991  0.88489123  0.00008110  1.0
  C  C60  1  0.34282640  0.94322191  0.52632152  1.0
  C  C61  1  0.65717333  0.05677592  0.02632023  1.0
  C  C62  1  0.40033720  0.05740084  0.97358844  1.0
  C  C63  1  0.59966017  0.94259412  0.47358770  1.0
  C  C64  1  0.65716652  0.05677613  0.47367951  1.0
  C  C65  1  0.34282785  0.94322458  0.97367824  1.0
  C  C66  1  0.59966720  0.94260376  0.02640900  1.0
  C  C67  1  0.40033386  0.05740145  0.52641180  1.0
  C  C68  1  0.48991068  0.57181602  0.62011478  1.0
  C  C69  1  0.51008949  0.42818730  0.12011563  1.0
  C  C70  1  0.91832074  0.42796714  0.87990603  1.0
  C  C71  1  0.08167734  0.57203874  0.37990565  1.0
  C  C72  1  0.51009132  0.42818612  0.37988523  1.0
  C  C73  1  0.48991087  0.57181155  0.87988490  1.0
  C  C74  1  0.08168555  0.57203417  0.12009501  1.0
  C  C75  1  0.91831956  0.42796257  0.62009487  1.0
  C  C76  1  0.59268093  0.58937639  0.68496086  1.0
  C  C77  1  0.40731444  0.41062428  0.18496222  1.0
  C  C78  1  0.00337868  0.41016250  0.81506146  1.0
  C  C79  1  0.99662133  0.58984028  0.31506166  1.0
  C  C80  1  0.40731638  0.41062575  0.31503864  1.0
  C  C81  1  0.59268240  0.58937457  0.81503779  1.0
  C  C82  1  0.99662280  0.58983389  0.18493753  1.0
  C  C83  1  0.00337680  0.41016350  0.68493836  1.0
  C  C84  1  0.48726462  0.56557905  0.74999882  1.0
  C  C85  1  0.51273621  0.43442309  0.25000017  1.0
  C  C86  1  0.92167782  0.43399923  0.75000045  1.0
  C  C87  1  0.07831861  0.56599881  0.25000059  1.0
  O  O88  1  0.23051662  0.71043331  0.51680741  1.0
  O  O89  1  0.76948628  0.28956618  0.01680998  1.0
  O  O90  1  0.52135172  0.28989750  0.98305997  1.0
  O  O91  1  0.47865356  0.71010154  0.48306409  1.0
  O  O92  1  0.76947818  0.28956144  0.48319208  1.0
  O  O93  1  0.23052358  0.71043759  0.98318952  1.0
  O  O94  1  0.47865774  0.71010546  0.01693748  1.0
  O  O95  1  0.52134516  0.28989403  0.51693695  1.0
  O  O96  1  0.34892699  0.58436293  0.61990956  1.0
  O  O97  1  0.65106925  0.41563956  0.11990992  1.0
  O  O98  1  0.76490363  0.41547279  0.88014151  1.0
  O  O99  1  0.23511098  0.58453801  0.38014062  1.0
  O  O100  1  0.65106838  0.41564003  0.38009046  1.0
  O  O101  1  0.34892789  0.58435519  0.88008856  1.0
  O  O102  1  0.23510505  0.58453098  0.11986004  1.0
  O  O103  1  0.76489290  0.41546084  0.61985785  1.0
  O  O104  1  0.54768616  0.54426899  0.56426274  1.0
  O  O105  1  0.45231154  0.45572709  0.06426201  1.0
  O  O106  1  0.00359008  0.45562031  0.93576983  1.0
  O  O107  1  0.99641265  0.54438542  0.43576803  1.0
  O  O108  1  0.45231139  0.45572658  0.43573932  1.0
  O  O109  1  0.54769041  0.54427258  0.93573646  1.0
  O  O110  1  0.99641504  0.54438100  0.06423120  1.0
  O  O111  1  0.00358946  0.45562164  0.56422993  1.0
  O  O112  1  0.26605900  0.34399008  0.56564495  1.0
  O  O113  1  0.73393988  0.65600600  0.06564300  1.0
  O  O114  1  0.92146095  0.65583122  0.93432865  1.0
  O  O115  1  0.07854126  0.34416877  0.43432904  1.0
  O  O116  1  0.73393468  0.65600714  0.43435660  1.0
  O  O117  1  0.26606442  0.34399367  0.93435855  1.0
  O  O118  1  0.07853860  0.34416599  0.06567239  1.0
  O  O119  1  0.92145723  0.65583337  0.56567098  1.0
