# generated using pymatgen
data_AlH5C14Cl3O5
_symmetry_space_group_name_H-M   'P 1'
_cell_length_a   6.57595123
_cell_length_b   11.09459583
_cell_length_c   17.49328134
_cell_angle_alpha   88.16243526
_cell_angle_beta   82.95483841
_cell_angle_gamma   73.66627622
_symmetry_Int_Tables_number   1
_chemical_formula_structural   AlH5C14Cl3O5
_chemical_formula_sum   'Al2 H10 C28 Cl6 O10'
_cell_volume   1215.50511440
_cell_formula_units_Z   2
loop_
 _symmetry_equiv_pos_site_id
 _symmetry_equiv_pos_as_xyz
  1  'x, y, z'
loop_
 _atom_site_type_symbol
 _atom_site_label
 _atom_site_symmetry_multiplicity
 _atom_site_fract_x
 _atom_site_fract_y
 _atom_site_fract_z
 _atom_site_occupancy
  Al  Al0  1  0.00657200  0.48294301  0.49893191  1.0
  Al  Al1  1  0.50546492  0.48320784  0.49960275  1.0
  H  H2  1  0.34042315  0.33252230  0.45761976  1.0
  H  H3  1  0.69604485  0.54355233  0.59164843  1.0
  H  H4  1  0.85290483  0.60942542  0.71613497  1.0
  H  H5  1  0.75258464  0.64904617  0.85616882  1.0
  H  H6  1  0.39577493  0.44570473  0.89469415  1.0
  H  H7  1  0.57554579  0.63873711  0.11728947  1.0
  H  H8  1  0.14972367  0.43810507  0.27754462  1.0
  H  H9  1  0.24129076  0.45939031  0.13634525  1.0
  H  H10  1  0.57284664  0.20784202  0.60036632  1.0
  H  H11  1  0.78859732  0.74245196  0.58019562  1.0
  C  C12  1  0.87356362  0.25579752  0.50616528  1.0
  C  C13  1  0.78150997  0.50181127  0.36229656  1.0
  C  C14  1  0.14143262  0.70771377  0.49310501  1.0
  C  C15  1  0.21904541  0.48818278  0.63973892  1.0
  C  C16  1  0.17852355  0.50671558  0.72493478  1.0
  C  C17  1  0.97106522  0.57433632  0.75594565  1.0
  C  C18  1  0.91434405  0.59648688  0.83411539  1.0
  C  C19  1  0.06661640  0.54821270  0.88562882  1.0
  C  C20  1  0.27631974  0.48305296  0.85568382  1.0
  C  C21  1  0.33214510  0.46299644  0.77670961  1.0
  C  C22  1  0.01047840  0.55847427  0.96628303  1.0
  C  C23  1  0.96302192  0.55813989  0.03597759  1.0
  C  C24  1  0.91411878  0.54906014  0.11658086  1.0
  C  C25  1  0.70258928  0.59328805  0.15183003  1.0
  C  C26  1  0.65258116  0.57928295  0.23084750  1.0
  C  C27  1  0.81448823  0.52174495  0.27739821  1.0
  C  C28  1  0.02549605  0.48021207  0.24115767  1.0
  C  C29  1  0.07668081  0.49244959  0.16275527  1.0
  C  C30  1  0.94285713  0.11485417  0.50475106  1.0
  C  C31  1  0.81316966  0.04565408  0.54720460  1.0
  C  C32  1  0.13200627  0.05155386  0.46134971  1.0
  C  C33  1  0.62357605  0.10615963  0.59494974  1.0
  C  C34  1  0.49925647  0.03838473  0.63534588  1.0
  C  C35  1  0.07330164  0.84852626  0.49715509  1.0
  C  C36  1  0.20146735  0.91769815  0.45923833  1.0
  C  C37  1  0.87701675  0.91121005  0.54210943  1.0
  C  C38  1  0.74628597  0.84403471  0.58440999  1.0
  C  C39  1  0.56210691  0.90510361  0.63001468  1.0
  Cl  Cl40  1  0.59358813  0.37832785  0.74822919  1.0
  Cl  Cl41  1  0.38675333  0.63746085  0.26612171  1.0
  Cl  Cl42  1  0.44151170  0.84605269  0.40723295  1.0
  Cl  Cl43  1  0.28348923  0.13141994  0.40391223  1.0
  Cl  Cl44  1  0.26940203  0.11662438  0.69196436  1.0
  Cl  Cl45  1  0.41106114  0.81773587  0.68066509  1.0
  O  O46  1  0.00916927  0.31019738  0.52189489  1.0
  O  O47  1  0.59345371  0.51665256  0.39562836  1.0
  O  O48  1  0.32655842  0.65222031  0.50996643  1.0
  O  O49  1  0.05405851  0.50691776  0.60437032  1.0
  O  O50  1  0.00638537  0.65386941  0.47556216  1.0
  O  O51  1  0.41075655  0.45892179  0.60740557  1.0
  O  O52  1  0.68470410  0.30959355  0.49094029  1.0
  O  O53  1  0.94942993  0.46809411  0.39637452  1.0
  O  O54  1  0.29510694  0.42231504  0.46794609  1.0
  O  O55  1  0.71898087  0.53698279  0.53583661  1.0
