# generated using pymatgen
data_ZnH23C24N4O7
_symmetry_space_group_name_H-M   'P 1'
_cell_length_a   12.48547676
_cell_length_b   14.07672807
_cell_length_c   19.29815242
_cell_angle_alpha   89.79777845
_cell_angle_beta   79.23297074
_cell_angle_gamma   81.01444512
_symmetry_Int_Tables_number   1
_chemical_formula_structural   ZnH23C24N4O7
_chemical_formula_sum   'Zn2 H46 C48 N8 O14'
_cell_volume   3289.98695378
_cell_formula_units_Z   2
loop_
 _symmetry_equiv_pos_site_id
 _symmetry_equiv_pos_as_xyz
  1  'x, y, z'
loop_
 _atom_site_type_symbol
 _atom_site_label
 _atom_site_symmetry_multiplicity
 _atom_site_fract_x
 _atom_site_fract_y
 _atom_site_fract_z
 _atom_site_occupancy
  Zn  Zn0  1  0.61168907  0.48930893  0.48784676  1.0
  Zn  Zn1  1  0.38071803  0.50640879  0.51752172  1.0
  H  H2  1  0.67518054  0.50548800  0.70448587  1.0
  H  H3  1  0.98996442  0.45385604  0.79562609  1.0
  H  H4  1  0.02423639  0.35990335  0.85195041  1.0
  H  H5  1  0.81433992  0.43153681  0.17867072  1.0
  H  H6  1  0.76763556  0.55672139  0.16853121  1.0
  H  H7  1  0.89178482  0.41169814  0.05121486  1.0
  H  H8  1  0.83549333  0.53145555  0.03642188  1.0
  H  H9  1  0.95720618  0.59323654  0.11131267  1.0
  H  H10  1  0.03952750  0.51647380  0.04248745  1.0
  H  H11  1  0.01262915  0.47367038  0.12887691  1.0
  H  H12  1  0.75984726  0.95802045  0.56668137  1.0
  H  H13  1  0.31550578  0.48522600  0.30465346  1.0
  H  H14  1  0.67615671  0.07379424  0.57253278  1.0
  H  H15  1  0.83324148  0.98223298  0.43969609  1.0
  H  H16  1  0.74844475  0.09616110  0.44377912  1.0
  H  H17  1  0.84696314  0.15741860  0.53223159  1.0
  H  H18  1  0.94339321  0.11286010  0.45535393  1.0
  H  H19  1  0.93044199  0.04279101  0.53236700  1.0
  H  H20  1  0.18281639  0.03631992  0.51339963  1.0
  H  H21  1  0.25484774  0.92171929  0.53127998  1.0
  H  H22  1  0.25387214  0.00818326  0.38482233  1.0
  H  H23  1  0.33223859  0.89699010  0.40080150  1.0
  H  H24  1  0.34398810  0.44601232  0.73451411  1.0
  H  H25  1  0.15847310  0.83170190  0.45160172  1.0
  H  H26  1  0.15555870  0.87110216  0.36427712  1.0
  H  H27  1  0.07740246  0.94310119  0.43723133  1.0
  H  H28  1  0.99174525  0.30548297  0.64345568  1.0
  H  H29  1  0.08573535  0.38935134  0.63865220  1.0
  H  H30  1  0.10624335  0.21583568  0.53788034  1.0
  H  H31  1  0.19842470  0.30116533  0.52647304  1.0
  H  H32  1  0.25270327  0.26150336  0.64238420  1.0
  H  H33  1  0.27593092  0.15736766  0.58704025  1.0
  H  H34  1  0.15988511  0.17617966  0.65771573  1.0
  H  H35  1  0.66525309  0.48336155  0.26466835  1.0
  H  H36  1  0.98578069  0.72996478  0.40490678  1.0
  H  H37  1  0.88622316  0.65321119  0.39980581  1.0
  H  H38  1  0.13764708  0.59939854  0.35008897  1.0
  H  H39  1  0.03991208  0.52238911  0.34417387  1.0
  H  H40  1  0.94976401  0.64075403  0.26445580  1.0
  H  H41  1  0.09022666  0.59844070  0.22809711  1.0
  H  H42  1  0.05121739  0.71525643  0.26834747  1.0
  H  H43  1  0.20627049  0.34349866  0.89573442  1.0
  H  H44  1  0.27987683  0.33715683  0.80705919  1.0
  H  H45  1  0.10713759  0.50624285  0.87707698  1.0
  H  H46  1  0.17751802  0.50362805  0.78865799  1.0
  H  H47  1  0.09654722  0.35564361  0.76330666  1.0
  C  C48  1  0.50905979  0.31196353  0.50119584  1.0
  C  C49  1  0.02168603  0.47406059  0.53182002  1.0
  C  C50  1  0.12587898  0.49703694  0.53857897  1.0
  C  C51  1  0.86014889  0.51036239  0.47912621  1.0
  C  C52  1  0.50783372  0.48649724  0.63562086  1.0
  C  C53  1  0.48928374  0.49626218  0.36888032  1.0
  C  C54  1  0.60154352  0.49047547  0.73995934  1.0
  C  C55  1  0.39291722  0.48119111  0.26718005  1.0
  C  C56  1  0.59819926  0.48522572  0.81282695  1.0
  C  C57  1  0.39615307  0.47072253  0.19450716  1.0
  C  C58  1  0.50314033  0.46467438  0.85916023  1.0
  C  C59  1  0.47718705  0.68374955  0.50710547  1.0
  C  C60  1  0.49574768  0.46778937  0.14570865  1.0
  C  C61  1  0.41084687  0.44867221  0.83067805  1.0
  C  C62  1  0.59383784  0.47177603  0.17113890  1.0
  C  C63  1  0.41468407  0.45503163  0.75785124  1.0
  C  C64  1  0.59068437  0.48115968  0.24365833  1.0
  C  C65  1  0.50872756  0.47653197  0.71307142  1.0
  C  C66  1  0.49044911  0.48661390  0.29119324  1.0
  C  C67  1  0.49882061  0.46431978  0.06886660  1.0
  C  C68  1  0.50028252  0.46287186  0.93581105  1.0
  C  C69  1  0.69614019  0.49579495  0.83847962  1.0
  C  C70  1  0.46637552  0.78692205  0.50776530  1.0
  C  C71  1  0.29561586  0.46695288  0.17036952  1.0
  C  C72  1  0.23867491  0.38683171  0.85151407  1.0
  C  C73  1  0.14516415  0.45792159  0.83144899  1.0
  C  C74  1  0.05935217  0.40406805  0.80907328  1.0
  C  C75  1  0.78623617  0.48539694  0.14149821  1.0
  C  C76  1  0.87209011  0.48497398  0.07465971  1.0
  C  C77  1  0.97566716  0.51871482  0.09025510  1.0
  C  C78  1  0.71601911  0.01255487  0.53659648  1.0
  C  C79  1  0.79533568  0.04503198  0.47457755  1.0
  C  C80  1  0.88400305  0.09206992  0.50005357  1.0
  C  C81  1  0.51729730  0.20921306  0.50429716  1.0
  C  C82  1  0.25551297  0.98166300  0.49443929  1.0
  C  C83  1  0.25503337  0.94644244  0.41999045  1.0
  C  C84  1  0.15599410  0.89530610  0.41827298  1.0
  C  C85  1  0.05226234  0.33978901  0.60739967  1.0
  C  C86  1  0.14333292  0.26605145  0.56620463  1.0
  C  C87  1  0.21150216  0.21205618  0.61646708  1.0
  C  C88  1  0.97314133  0.65466699  0.40321669  1.0
  C  C89  1  0.05246097  0.59823353  0.34277704  1.0
  C  C90  1  0.03497777  0.64065589  0.27193081  1.0
  C  C91  1  0.44612274  0.97477488  0.50457758  1.0
  C  C92  1  0.53453955  0.02150560  0.50905547  1.0
  C  C93  1  0.52458876  0.12169902  0.50708074  1.0
  C  C94  1  0.45649225  0.87458835  0.50686813  1.0
  C  C95  1  0.96017240  0.53488872  0.49261896  1.0
  N  N96  1  0.46843148  0.38668702  0.97218671  1.0
  N  N97  1  0.53323269  0.53953775  0.03218768  1.0
  N  N98  1  0.46682492  0.38802059  0.04102797  1.0
  N  N99  1  0.53269804  0.53919568  0.96394985  1.0
  N  N100  1  0.77873409  0.48897690  0.46751294  1.0
  N  N101  1  0.21323815  0.51320532  0.54215058  1.0
  N  N102  1  0.77973798  0.50153717  0.85583372  1.0
  N  N103  1  0.21127775  0.46556140  0.15279854  1.0
  O  O104  1  0.59860220  0.34607733  0.49871496  1.0
  O  O105  1  0.68701292  0.46337591  0.12150832  1.0
  O  O106  1  0.63265782  0.96531657  0.51458705  1.0
  O  O107  1  0.34807320  0.03045136  0.49798587  1.0
  O  O108  1  0.98444510  0.39684835  0.56294419  1.0
  O  O109  1  0.99203002  0.61984363  0.47216190  1.0
  O  O110  1  0.38791572  0.64898301  0.52590726  1.0
  O  O111  1  0.41288305  0.35916396  0.50144601  1.0
  O  O112  1  0.57425446  0.63728471  0.48749981  1.0
  O  O113  1  0.59792370  0.49810918  0.59577475  1.0
  O  O114  1  0.39552840  0.51645221  0.40942155  1.0
  O  O115  1  0.41627403  0.48273760  0.61652996  1.0
  O  O116  1  0.58304786  0.48268358  0.38738960  1.0
  O  O117  1  0.32085290  0.43162372  0.87724341  1.0
