# generated using pymatgen
data_CdH12C18(NO2)2
_symmetry_space_group_name_H-M   'P 1'
_cell_length_a   11.80782096
_cell_length_b   13.13360687
_cell_length_c   21.53084686
_cell_angle_alpha   89.99989575
_cell_angle_beta   90.00006120
_cell_angle_gamma   89.99992215
_symmetry_Int_Tables_number   1
_chemical_formula_structural   CdH12C18(NO2)2
_chemical_formula_sum   'Cd4 H48 C72 N8 O16'
_cell_volume   3338.98819610
_cell_formula_units_Z   4
loop_
 _symmetry_equiv_pos_site_id
 _symmetry_equiv_pos_as_xyz
  1  'x, y, z'
loop_
 _atom_site_type_symbol
 _atom_site_label
 _atom_site_symmetry_multiplicity
 _atom_site_fract_x
 _atom_site_fract_y
 _atom_site_fract_z
 _atom_site_occupancy
  Cd  Cd0  1  0.99999778  0.61341726  0.93949298  1.0
  Cd  Cd1  1  0.99999540  0.38658371  0.06050399  1.0
  Cd  Cd2  1  0.00000550  0.11340804  0.56050369  1.0
  Cd  Cd3  1  0.00000818  0.88658349  0.43949734  1.0
  H  H4  1  0.99999763  0.86723454  0.10667330  1.0
  H  H5  1  0.99999895  0.13276643  0.89332646  1.0
  H  H6  1  0.99999998  0.36723285  0.39332696  1.0
  H  H7  1  0.99999914  0.63276812  0.60667327  1.0
  H  H8  1  0.99999939  0.92540880  0.21796476  1.0
  H  H9  1  0.99999973  0.07459370  0.78203454  1.0
  H  H10  1  0.99999983  0.42540744  0.28203544  1.0
  H  H11  1  0.00000022  0.57459262  0.71796450  1.0
  H  H12  1  0.99999968  0.61466162  0.27904242  1.0
  H  H13  1  0.99999944  0.38534087  0.72095688  1.0
  H  H14  1  0.00000008  0.11466106  0.22095644  1.0
  H  H15  1  0.99999996  0.88533900  0.77904257  1.0
  H  H16  1  0.99999877  0.55545338  0.16909229  1.0
  H  H17  1  0.99999950  0.44454759  0.83090840  1.0
  H  H18  1  0.00000023  0.05545325  0.33090709  1.0
  H  H19  1  0.99999981  0.94454757  0.66909238  1.0
  H  H20  1  0.20536774  0.46948326  0.89111619  1.0
  H  H21  1  0.20536863  0.53051640  0.10888357  1.0
  H  H22  1  0.79462907  0.96948153  0.60888334  1.0
  H  H23  1  0.79462957  0.03051664  0.39111630  1.0
  H  H24  1  0.79462976  0.53051680  0.10888282  1.0
  H  H25  1  0.79462888  0.46948290  0.89111729  1.0
  H  H26  1  0.20536589  0.03051929  0.39111706  1.0
  H  H27  1  0.20536709  0.96948189  0.60888317  1.0
  H  H28  1  0.41499744  0.46383579  0.88655768  1.0
  H  H29  1  0.41499664  0.53616437  0.11344174  1.0
  H  H30  1  0.58499938  0.96383355  0.61344279  1.0
  H  H31  1  0.58499986  0.03616488  0.38655766  1.0
  H  H32  1  0.58500006  0.53616427  0.11344179  1.0
  H  H33  1  0.58500002  0.46383492  0.88655819  1.0
  H  H34  1  0.41499559  0.03616499  0.38655808  1.0
  H  H35  1  0.41499680  0.96383441  0.61344227  1.0
  H  H36  1  0.41660304  0.74806982  0.98904629  1.0
  H  H37  1  0.41660331  0.25193034  0.01095313  1.0
  H  H38  1  0.58339326  0.24807069  0.51095395  1.0
  H  H39  1  0.58339370  0.75193003  0.48904650  1.0
  H  H40  1  0.58339361  0.25192948  0.01095364  1.0
  H  H41  1  0.58339334  0.74807124  0.98904681  1.0
  H  H42  1  0.41660255  0.75192937  0.48904645  1.0
  H  H43  1  0.41660211  0.24807003  0.51095344  1.0
  H  H44  1  0.20686156  0.74035006  0.98881308  1.0
  H  H45  1  0.20686097  0.25965036  0.01118668  1.0
  H  H46  1  0.79313560  0.24034991  0.51118624  1.0
  H  H47  1  0.79313604  0.75964979  0.48881433  1.0
  H  H48  1  0.79313679  0.25965000  0.01118639  1.0
  H  H49  1  0.79313738  0.74034894  0.98881372  1.0
  H  H50  1  0.20685851  0.75965091  0.48881369  1.0
  H  H51  1  0.20685978  0.24034951  0.51118561  1.0
  C  C52  1  0.99999181  0.67225085  0.06477770  1.0
  C  C53  1  0.99999884  0.32774708  0.93522160  1.0
  C  C54  1  0.00000787  0.17224812  0.43522155  1.0
  C  C55  1  0.00000581  0.82774950  0.56477763  1.0
  C  C56  1  0.99999692  0.70779315  0.13079460  1.0
  C  C57  1  0.00000058  0.29220690  0.86920488  1.0
  C  C58  1  0.00000608  0.20779063  0.36920415  1.0
  C  C59  1  0.00000420  0.79221004  0.63079503  1.0
  C  C60  1  0.99999601  0.81238207  0.14469227  1.0
  C  C61  1  0.00000065  0.18761951  0.85530720  1.0
  C  C62  1  0.00000430  0.31237959  0.35530822  1.0
  C  C63  1  0.00000345  0.68762032  0.64469235  1.0
  C  C64  1  0.99999689  0.84463512  0.20630572  1.0
  C  C65  1  0.00000230  0.15536570  0.79369468  1.0
  C  C66  1  0.00000421  0.34463357  0.29369427  1.0
  C  C67  1  0.00000353  0.65536786  0.70630583  1.0
  C  C68  1  0.99999954  0.77319085  0.25486492  1.0
  C  C69  1  0.00000305  0.22681226  0.74513594  1.0
  C  C70  1  0.00000591  0.27319021  0.24513608  1.0
  C  C71  1  0.00000522  0.72680817  0.75486450  1.0
  C  C72  1  0.99999791  0.66912349  0.24083163  1.0
  C  C73  1  0.00000129  0.33087809  0.75916738  1.0
  C  C74  1  0.00000516  0.16912281  0.25916531  1.0
  C  C75  1  0.00000428  0.83087786  0.74083434  1.0
  C  C76  1  0.99999872  0.63655142  0.17933244  1.0
  C  C77  1  0.00000048  0.36345168  0.82066750  1.0
  C  C78  1  0.00000524  0.13654980  0.32066732  1.0
  C  C79  1  0.00000420  0.86345011  0.67933232  1.0
  C  C80  1  0.00000304  0.80720867  0.32142307  1.0
  C  C81  1  0.00000555  0.19279581  0.67857750  1.0
  C  C82  1  0.00000752  0.30720686  0.17857713  1.0
  C  C83  1  0.00000531  0.69279305  0.82142344  1.0
  C  C84  1  0.25641863  0.52937991  0.91239634  1.0
  C  C85  1  0.25641787  0.47062044  0.08760392  1.0
  C  C86  1  0.74357800  0.02937732  0.58760275  1.0
  C  C87  1  0.74357797  0.97062092  0.41239733  1.0
  C  C88  1  0.74357803  0.47062014  0.08760267  1.0
  C  C89  1  0.74357794  0.52937733  0.91239880  1.0
  C  C90  1  0.25641781  0.97062350  0.41239811  1.0
  C  C91  1  0.25641869  0.02937685  0.58760261  1.0
  C  C92  1  0.37408809  0.52723801  0.91013775  1.0
  C  C93  1  0.37408988  0.47276220  0.08986211  1.0
  C  C94  1  0.62590769  0.02723631  0.58986134  1.0
  C  C95  1  0.62590850  0.97276283  0.41013867  1.0
  C  C96  1  0.62590856  0.47276205  0.08986172  1.0
  C  C97  1  0.62590848  0.52723710  0.91013969  1.0
  C  C98  1  0.37408727  0.97276298  0.41013860  1.0
  C  C99  1  0.37408901  0.02723647  0.58986173  1.0
  C  C100  1  0.43720724  0.60564290  0.93802702  1.0
  C  C101  1  0.43720740  0.39435724  0.06197195  1.0
  C  C102  1  0.56278927  0.10564212  0.56197245  1.0
  C  C103  1  0.56278856  0.89435786  0.43802798  1.0
  C  C104  1  0.56278941  0.39435640  0.06197199  1.0
  C  C105  1  0.56278926  0.60564282  0.93802845  1.0
  C  C106  1  0.43720654  0.89435717  0.43802841  1.0
  C  C107  1  0.43720725  0.10564220  0.56197195  1.0
  C  C108  1  0.37503317  0.68393974  0.96660874  1.0
  C  C109  1  0.37503423  0.31606123  0.03339019  1.0
  C  C110  1  0.62496154  0.18393897  0.53339065  1.0
  C  C111  1  0.62496438  0.81606169  0.46660983  1.0
  C  C112  1  0.62496349  0.31606032  0.03339027  1.0
  C  C113  1  0.62496412  0.68393806  0.96661021  1.0
  C  C114  1  0.37503088  0.81606185  0.46661068  1.0
  C  C115  1  0.37503312  0.18393836  0.53338918  1.0
  C  C116  1  0.25744246  0.68066425  0.96691385  1.0
  C  C117  1  0.25744183  0.31933611  0.03308501  1.0
  C  C118  1  0.74255479  0.18066257  0.53308461  1.0
  C  C119  1  0.74255424  0.81933795  0.46691686  1.0
  C  C120  1  0.74255504  0.31933581  0.03308469  1.0
  C  C121  1  0.74255483  0.68066319  0.96691632  1.0
  C  C122  1  0.25744102  0.81933825  0.46691579  1.0
  C  C123  1  0.25744157  0.18066287  0.53308354  1.0
  N  N124  1  0.19887030  0.60435703  0.94064366  1.0
  N  N125  1  0.19887044  0.39564340  0.05935564  1.0
  N  N126  1  0.80112622  0.10435444  0.55935396  1.0
  N  N127  1  0.80112889  0.89564525  0.44064616  1.0
  N  N128  1  0.80112636  0.39564379  0.05935535  1.0
  N  N129  1  0.80112621  0.60435361  0.94064662  1.0
  N  N130  1  0.19886959  0.89564638  0.44064691  1.0
  N  N131  1  0.19887115  0.10435405  0.55935332  1.0
  O  O132  1  0.99999002  0.73799827  0.02124524  1.0
  O  O133  1  0.99999809  0.26199965  0.97875359  1.0
  O  O134  1  0.00000871  0.23799770  0.47875347  1.0
  O  O135  1  0.00000581  0.76200144  0.52124478  1.0
  O  O136  1  0.99998933  0.57620718  0.05282793  1.0
  O  O137  1  0.99999793  0.42379151  0.94717137  1.0
  O  O138  1  0.00000965  0.07620518  0.44717422  1.0
  O  O139  1  0.00000826  0.92379321  0.55282589  1.0
  O  O140  1  0.00000298  0.90363456  0.33178443  1.0
  O  O141  1  0.00000646  0.09637067  0.66821103  1.0
  O  O142  1  0.00000828  0.40363355  0.16821613  1.0
  O  O143  1  0.00000709  0.59636560  0.83178491  1.0
  O  O144  1  0.00000398  0.74176961  0.36470938  1.0
  O  O145  1  0.00000546  0.25824095  0.63529398  1.0
  O  O146  1  0.00000668  0.24176793  0.13529322  1.0
  O  O147  1  0.00000276  0.75823045  0.86470874  1.0
