# generated using pymatgen
data_Zn4H25C48N4ClO13
_symmetry_space_group_name_H-M   'P 1'
_cell_length_a   17.94195667
_cell_length_b   19.19664290
_cell_length_c   19.26457252
_cell_angle_alpha   94.59925739
_cell_angle_beta   99.12907934
_cell_angle_gamma   103.47300766
_symmetry_Int_Tables_number   1
_chemical_formula_structural   Zn4H25C48N4ClO13
_chemical_formula_sum   'Zn4 H25 C48 N4 Cl1 O13'
_cell_volume   6323.27263163
_cell_formula_units_Z   1
loop_
 _symmetry_equiv_pos_site_id
 _symmetry_equiv_pos_as_xyz
  1  'x, y, z'
loop_
 _atom_site_type_symbol
 _atom_site_label
 _atom_site_symmetry_multiplicity
 _atom_site_fract_x
 _atom_site_fract_y
 _atom_site_fract_z
 _atom_site_occupancy
  Zn  Zn0  1  0.56536978  0.45173456  0.45021678  1.0
  Zn  Zn1  1  0.42998019  0.42891808  0.54359860  1.0
  Zn  Zn2  1  0.44130570  0.54456330  0.43130682  1.0
  Zn  Zn3  1  0.56720028  0.57442702  0.57588290  1.0
  H  H4  1  0.07672171  0.65085002  0.63775432  1.0
  H  H5  1  0.04790856  0.33697454  0.32395225  1.0
  H  H6  1  0.60387513  0.57493991  0.79918034  1.0
  H  H7  1  0.59870903  0.56983995  0.92863572  1.0
  H  H8  1  0.63025424  0.46912867  0.11689094  1.0
  H  H9  1  0.62028980  0.46101541  0.24533405  1.0
  H  H10  1  0.36907740  0.44293628  0.74394478  1.0
  H  H11  1  0.41835134  0.53964802  0.08344181  1.0
  H  H12  1  0.36114327  0.44431026  0.87361149  1.0
  H  H13  1  0.41155627  0.53671119  0.21268187  1.0
  H  H14  1  0.43859111  0.21579856  0.57999380  1.0
  H  H15  1  0.20073423  0.52241738  0.52213748  1.0
  H  H16  1  0.44390513  0.08579533  0.57724443  1.0
  H  H17  1  0.56245882  0.92282908  0.63145516  1.0
  H  H18  1  0.56877379  0.79254971  0.62339245  1.0
  H  H19  1  0.53858013  0.23177221  0.39154952  1.0
  H  H20  1  0.44056272  0.88793161  0.41582523  1.0
  H  H21  1  0.53653422  0.09963355  0.38485465  1.0
  H  H22  1  0.44212140  0.75689143  0.40949050  1.0
  H  H23  1  0.92606595  0.36382367  0.34693146  1.0
  H  H24  1  0.95478737  0.67466270  0.66316643  1.0
  H  H25  1  0.80932802  0.64605745  0.63929164  1.0
  H  H26  1  0.80036397  0.47887253  0.47528482  1.0
  H  H27  1  0.14624535  0.58193644  0.57142413  1.0
  H  H28  1  0.85629393  0.43036663  0.41570787  1.0
  C  C29  1  0.49160419  0.50756925  0.68765049  1.0
  C  C30  1  0.84064471  0.61622979  0.60894353  1.0
  C  C31  1  0.83624318  0.52145563  0.51569346  1.0
  C  C32  1  0.91832580  0.53620408  0.52747214  1.0
  C  C33  1  0.96128648  0.59245259  0.58230900  1.0
  C  C34  1  0.95984756  0.49652429  0.48677543  1.0
  C  C35  1  0.04243618  0.51216909  0.50342991  1.0
  C  C36  1  0.08284416  0.56864099  0.55876017  1.0
  C  C37  1  0.04417318  0.60754101  0.59621758  1.0
  C  C38  1  0.91953726  0.44213786  0.42956095  1.0
  C  C39  1  0.95830592  0.40459527  0.39085493  1.0
  C  C40  1  0.51057429  0.49669936  0.31264713  1.0
  C  C41  1  0.04104309  0.41751149  0.40693999  1.0
  C  C42  1  0.08380589  0.47139783  0.46389686  1.0
  C  C43  1  0.08083007  0.37776936  0.36753545  1.0
  C  C44  1  0.16091192  0.39031419  0.38392985  1.0
  C  C45  1  0.16566655  0.48229555  0.47899056  1.0
  C  C46  1  0.51523240  0.49822229  0.23611389  1.0
  C  C47  1  0.45836629  0.52088573  0.19076346  1.0
  C  C48  1  0.46211080  0.52282676  0.11957652  1.0
  C  C49  1  0.52430111  0.50363057  0.09323392  1.0
  C  C50  1  0.58227734  0.48275964  0.13872445  1.0
  C  C51  1  0.49083070  0.30965873  0.49038769  1.0
  C  C52  1  0.57683860  0.47859299  0.20953577  1.0
  C  C53  1  0.54885590  0.54292783  0.88761276  1.0
  C  C54  1  0.55165561  0.54534380  0.81621573  1.0
  C  C55  1  0.47996595  0.50538505  0.90778395  1.0
  C  C56  1  0.48714997  0.50835334  0.76439196  1.0
  C  C57  1  0.41846559  0.47127377  0.78479319  1.0
  C  C58  1  0.41415769  0.47149433  0.85615228  1.0
  C  C59  1  0.50614586  0.76757766  0.51586784  1.0
  C  C60  1  0.46940423  0.79406953  0.45730352  1.0
  C  C61  1  0.46817509  0.86618768  0.46072962  1.0
  C  C62  1  0.50706474  0.68983865  0.51129978  1.0
  C  C63  1  0.50244074  0.91248119  0.52381285  1.0
  C  C64  1  0.53730046  0.88582292  0.58304872  1.0
  C  C65  1  0.54051655  0.81396918  0.57858550  1.0
  C  C66  1  0.46394785  0.11832840  0.53685748  1.0
  C  C67  1  0.46143789  0.19016107  0.53841313  1.0
  C  C68  1  0.49223151  0.08637264  0.48156579  1.0
  C  C69  1  0.48950768  0.23142195  0.48659308  1.0
  C  C70  1  0.51725570  0.19914714  0.43136497  1.0
  C  C71  1  0.51666978  0.12649085  0.42781724  1.0
  C  C72  1  0.29147868  0.45820373  0.45793239  1.0
  C  C73  1  0.71077495  0.54204545  0.54083004  1.0
  C  C74  1  0.79769487  0.56012831  0.55535434  1.0
  C  C75  1  0.20412633  0.44298621  0.44032549  1.0
  C  C76  1  0.92089272  0.63171812  0.62181850  1.0
  N  N77  1  0.53369787  0.50545093  0.02188074  1.0
  N  N78  1  0.47094240  0.49997778  0.97871208  1.0
  N  N79  1  0.50259789  0.98629745  0.53229000  1.0
  N  N80  1  0.49657035  0.01381678  0.47469935  1.0
  Cl  Cl81  1  0.20940221  0.34167692  0.33539420  1.0
  O  O82  1  0.50101487  0.49994917  0.50104044  1.0
  O  O83  1  0.53221882  0.34688231  0.45167103  1.0
  O  O84  1  0.54794035  0.66992257  0.56289367  1.0
  O  O85  1  0.43936017  0.45966885  0.64498606  1.0
  O  O86  1  0.46038358  0.52589334  0.33510325  1.0
  O  O87  1  0.54714967  0.55416211  0.67084737  1.0
  O  O88  1  0.55696383  0.46671688  0.34961361  1.0
  O  O89  1  0.45116957  0.33319918  0.53226080  1.0
  O  O90  1  0.46647515  0.64941395  0.45578729  1.0
  O  O91  1  0.31974577  0.42164984  0.50263928  1.0
  O  O92  1  0.67817621  0.58060536  0.57736609  1.0
  O  O93  1  0.32841233  0.50754444  0.42694555  1.0
  O  O94  1  0.67572745  0.48942383  0.49298371  1.0
