# generated using pymatgen
data_Zn4H24C48O13
_symmetry_space_group_name_H-M   'P 1'
_cell_length_a   19.89818112
_cell_length_b   19.89818001
_cell_length_c   39.77540416
_cell_angle_alpha   90.00012088
_cell_angle_beta   89.99991778
_cell_angle_gamma   89.99997369
_symmetry_Int_Tables_number   1
_chemical_formula_structural   Zn4H24C48O13
_chemical_formula_sum   'Zn16 H96 C192 O52'
_cell_volume   15748.57765627
_cell_formula_units_Z   4
loop_
 _symmetry_equiv_pos_site_id
 _symmetry_equiv_pos_as_xyz
  1  'x, y, z'
loop_
 _atom_site_type_symbol
 _atom_site_label
 _atom_site_symmetry_multiplicity
 _atom_site_fract_x
 _atom_site_fract_y
 _atom_site_fract_z
 _atom_site_occupancy
  Zn  Zn0  1  0.80704665  0.30704539  0.32429788  1.0
  Zn  Zn1  1  0.69295535  0.19295408  0.32429685  1.0
  Zn  Zn2  1  0.69295460  0.30704346  0.82429611  1.0
  Zn  Zn3  1  0.80705099  0.19295209  0.82429852  1.0
  Zn  Zn4  1  0.30704479  0.69295586  0.17570266  1.0
  Zn  Zn5  1  0.19294992  0.80704874  0.17570226  1.0
  Zn  Zn6  1  0.19295576  0.69295242  0.67570366  1.0
  Zn  Zn7  1  0.30704958  0.80704876  0.67570041  1.0
  Zn  Zn8  1  0.69312125  0.30687895  0.26741905  1.0
  Zn  Zn9  1  0.80688393  0.19311576  0.26741719  1.0
  Zn  Zn10  1  0.69311653  0.19311634  0.76741844  1.0
  Zn  Zn11  1  0.80688068  0.30687847  0.76741996  1.0
  Zn  Zn12  1  0.19311621  0.69311633  0.23258208  1.0
  Zn  Zn13  1  0.30687834  0.80687897  0.23257958  1.0
  Zn  Zn14  1  0.19311848  0.80688256  0.73258158  1.0
  Zn  Zn15  1  0.30687916  0.69312188  0.73258047  1.0
  H  H16  1  0.67184942  0.51414362  0.25834974  1.0
  H  H17  1  0.82815053  0.98585658  0.25834893  1.0
  H  H18  1  0.48585690  0.17184809  0.75834933  1.0
  H  H19  1  0.01414340  0.32815093  0.75834908  1.0
  H  H20  1  0.17184797  0.48585569  0.24165039  1.0
  H  H21  1  0.32815081  0.01414467  0.24165084  1.0
  H  H22  1  0.98585725  0.82815118  0.74165073  1.0
  H  H23  1  0.51414432  0.67184955  0.74165032  1.0
  H  H24  1  0.32815098  0.48585671  0.74165054  1.0
  H  H25  1  0.17184887  0.01414375  0.74165009  1.0
  H  H26  1  0.51414400  0.82815174  0.24165095  1.0
  H  H27  1  0.98585700  0.67184789  0.24165045  1.0
  H  H28  1  0.82815093  0.51414514  0.75834913  1.0
  H  H29  1  0.67185010  0.98585616  0.75834868  1.0
  H  H30  1  0.01414416  0.17184965  0.25834930  1.0
  H  H31  1  0.48585558  0.32815027  0.25834921  1.0
  H  H32  1  0.67108902  0.63981089  0.25818388  1.0
  H  H33  1  0.82891194  0.86018930  0.25818344  1.0
  H  H34  1  0.36018964  0.17108825  0.75818344  1.0
  H  H35  1  0.13981117  0.32891127  0.75818385  1.0
  H  H36  1  0.17108863  0.36018892  0.24181701  1.0
  H  H37  1  0.32891064  0.13981245  0.24181684  1.0
  H  H38  1  0.86018948  0.82891208  0.74181646  1.0
  H  H39  1  0.63981109  0.67108915  0.74181620  1.0
  H  H40  1  0.32891189  0.36018943  0.74181615  1.0
  H  H41  1  0.17108847  0.13981102  0.74181609  1.0
  H  H42  1  0.63981177  0.82891359  0.24181634  1.0
  H  H43  1  0.86018923  0.67108755  0.24181668  1.0
  H  H44  1  0.82891127  0.63981191  0.75818352  1.0
  H  H45  1  0.67108875  0.86018939  0.75818344  1.0
  H  H46  1  0.13981243  0.17108925  0.25818282  1.0
  H  H47  1  0.36018781  0.32891067  0.25818383  1.0
  H  H48  1  0.82795651  0.64018090  0.33305622  1.0
  H  H49  1  0.67204372  0.85981961  0.33305539  1.0
  H  H50  1  0.35982012  0.32795602  0.83305617  1.0
  H  H51  1  0.14017998  0.17204382  0.83305667  1.0
  H  H52  1  0.32795584  0.35981884  0.16694456  1.0
  H  H53  1  0.17204365  0.14018120  0.16694475  1.0
  H  H54  1  0.85981974  0.67204381  0.66694448  1.0
  H  H55  1  0.64018104  0.82795761  0.66694464  1.0
  H  H56  1  0.17204389  0.35981993  0.66694355  1.0
  H  H57  1  0.32795668  0.14018021  0.66694388  1.0
  H  H58  1  0.64018179  0.67204481  0.16694436  1.0
  H  H59  1  0.85981992  0.82795601  0.16694486  1.0
  H  H60  1  0.67204456  0.64018149  0.83305598  1.0
  H  H61  1  0.82795575  0.85981913  0.83305553  1.0
  H  H62  1  0.14018116  0.32795702  0.33305555  1.0
  H  H63  1  0.35981836  0.17204422  0.33305640  1.0
  H  H64  1  0.82773291  0.51452117  0.33305440  1.0
  H  H65  1  0.67226683  0.98547834  0.33305344  1.0
  H  H66  1  0.48547934  0.32773235  0.83305387  1.0
  H  H67  1  0.01452025  0.17226648  0.83305345  1.0
  H  H68  1  0.32773318  0.48547807  0.16694613  1.0
  H  H69  1  0.17226682  0.01452147  0.16694644  1.0
  H  H70  1  0.98547897  0.67226641  0.66694644  1.0
  H  H71  1  0.51452232  0.82773451  0.66694619  1.0
  H  H72  1  0.17226649  0.48547967  0.66694638  1.0
  H  H73  1  0.32773408  0.01452048  0.66694583  1.0
  H  H74  1  0.51452257  0.67226747  0.16694666  1.0
  H  H75  1  0.98547865  0.82773234  0.16694658  1.0
  H  H76  1  0.67226722  0.51452276  0.83305415  1.0
  H  H77  1  0.82773409  0.98547785  0.83305334  1.0
  H  H78  1  0.01452143  0.32773392  0.33305333  1.0
  H  H79  1  0.48547758  0.17226733  0.33305434  1.0
  H  H80  1  0.82631509  0.32631521  0.42797804  1.0
  H  H81  1  0.67368359  0.17368269  0.42797952  1.0
  H  H82  1  0.67368284  0.32631831  0.92798030  1.0
  H  H83  1  0.82631492  0.17368572  0.92797815  1.0
  H  H84  1  0.32631455  0.67368604  0.07202174  1.0
  H  H85  1  0.17368247  0.82631712  0.07202087  1.0
  H  H86  1  0.17368330  0.67368311  0.57202099  1.0
  H  H87  1  0.32631581  0.82631412  0.57202202  1.0
  H  H88  1  0.82665976  0.32666060  0.49080732  1.0
  H  H89  1  0.67333925  0.17334008  0.49080855  1.0
  H  H90  1  0.67334051  0.32666068  0.99080883  1.0
  H  H91  1  0.82666059  0.17334060  0.99080743  1.0
  H  H92  1  0.32665939  0.67333964  0.00919246  1.0
  H  H93  1  0.17333881  0.82665973  0.00919209  1.0
  H  H94  1  0.17333914  0.67334023  0.50919221  1.0
  H  H95  1  0.32666015  0.82665975  0.50919324  1.0
  H  H96  1  0.82665156  0.32665178  0.60091204  1.0
  H  H97  1  0.67334713  0.17334735  0.60091227  1.0
  H  H98  1  0.67334832  0.32665378  0.10091190  1.0
  H  H99  1  0.82665282  0.17334827  0.10091201  1.0
  H  H100  1  0.32665209  0.67334655  0.89908838  1.0
  H  H101  1  0.17334658  0.82665256  0.89908852  1.0
  H  H102  1  0.17334784  0.67334804  0.39908824  1.0
  H  H103  1  0.32665277  0.82665348  0.39908776  1.0
  H  H104  1  0.82633184  0.32633179  0.66375238  1.0
  H  H105  1  0.67366717  0.17366711  0.66375236  1.0
  H  H106  1  0.67366886  0.32633278  0.16375224  1.0
  H  H107  1  0.82633260  0.17366853  0.16375236  1.0
  H  H108  1  0.32633205  0.67366705  0.83624754  1.0
  H  H109  1  0.17366730  0.82633180  0.83624767  1.0
  H  H110  1  0.17366705  0.67366955  0.33624790  1.0
  H  H111  1  0.32633172  0.82633372  0.33624767  1.0
  C  C112  1  0.75004598  0.43200150  0.29573785  1.0
  C  C113  1  0.74995359  0.06799886  0.29573716  1.0
  C  C114  1  0.56799851  0.25004173  0.79573903  1.0
  C  C115  1  0.93200213  0.24995018  0.79573689  1.0
  C  C116  1  0.25004208  0.56799928  0.20426172  1.0
  C  C117  1  0.24995556  0.93200142  0.20426217  1.0
  C  C118  1  0.06799906  0.74995320  0.70426284  1.0
  C  C119  1  0.43200117  0.75004458  0.70426195  1.0
  C  C120  1  0.24995241  0.56799833  0.70426243  1.0
  C  C121  1  0.25004279  0.93200097  0.70426186  1.0
  C  C122  1  0.43200139  0.74995709  0.20426201  1.0
  C  C123  1  0.06799827  0.75004512  0.20426214  1.0
  C  C124  1  0.74995530  0.43200104  0.79573906  1.0
  C  C125  1  0.75004987  0.06799891  0.79573535  1.0
  C  C126  1  0.93200134  0.25004612  0.29573744  1.0
  C  C127  1  0.56799923  0.24995323  0.29573757  1.0
  C  C128  1  0.74989469  0.50696413  0.29565895  1.0
  C  C129  1  0.75010415  0.99303673  0.29565795  1.0
  C  C130  1  0.49303689  0.24989349  0.79565961  1.0
  C  C131  1  0.00696382  0.25010317  0.79565853  1.0
  C  C132  1  0.24989284  0.49303514  0.20434088  1.0
  C  C133  1  0.25010554  0.00696405  0.20434163  1.0
  C  C134  1  0.99303687  0.75010426  0.70434145  1.0
  C  C135  1  0.50696431  0.74989631  0.70434137  1.0
  C  C136  1  0.25010521  0.49303620  0.70434108  1.0
  C  C137  1  0.24989475  0.00696310  0.70434082  1.0
  C  C138  1  0.50696402  0.75010683  0.20434117  1.0
  C  C139  1  0.99303659  0.74989364  0.20434075  1.0
  C  C140  1  0.75010505  0.50696468  0.79565865  1.0
  C  C141  1  0.74989738  0.99303627  0.79565714  1.0
  C  C142  1  0.00696403  0.24989657  0.29565807  1.0
  C  C143  1  0.49303610  0.25010402  0.29565865  1.0
  C  C144  1  0.70574093  0.54235226  0.27458264  1.0
  C  C145  1  0.79425897  0.95764751  0.27458208  1.0
  C  C146  1  0.45764776  0.20574118  0.77458225  1.0
  C  C147  1  0.04235300  0.29425791  0.77458270  1.0
  C  C148  1  0.20574054  0.45764804  0.22541797  1.0
  C  C149  1  0.29425878  0.04235325  0.22541822  1.0
  C  C150  1  0.95764817  0.79425910  0.72541783  1.0
  C  C151  1  0.54235295  0.70574156  0.72541743  1.0
  C  C152  1  0.29425797  0.45764807  0.72541764  1.0
  C  C153  1  0.20574243  0.04235182  0.72541770  1.0
  C  C154  1  0.54235264  0.79425965  0.22541803  1.0
  C  C155  1  0.95764841  0.70574091  0.22541783  1.0
  C  C156  1  0.79425885  0.54235379  0.77458256  1.0
  C  C157  1  0.70574112  0.95764707  0.77458206  1.0
  C  C158  1  0.04235323  0.20574223  0.27458195  1.0
  C  C159  1  0.45764695  0.29425726  0.27458185  1.0
  C  C160  1  0.70532027  0.61215462  0.27449368  1.0
  C  C161  1  0.79467913  0.88784564  0.27449228  1.0
  C  C162  1  0.38784540  0.20531955  0.77449328  1.0
  C  C163  1  0.11215536  0.29467904  0.77449342  1.0
  C  C164  1  0.20531992  0.38784618  0.22550694  1.0
  C  C165  1  0.29467840  0.11215512  0.22550776  1.0
  C  C166  1  0.88784632  0.79467926  0.72550736  1.0
  C  C167  1  0.61215531  0.70532291  0.72550741  1.0
  C  C168  1  0.29467963  0.38784571  0.72550660  1.0
  C  C169  1  0.20532027  0.11215468  0.72550623  1.0
  C  C170  1  0.61215500  0.79468078  0.22550751  1.0
  C  C171  1  0.88784605  0.70531878  0.22550661  1.0
  C  C172  1  0.79467948  0.61215515  0.77449309  1.0
  C  C173  1  0.70532150  0.88784521  0.77449226  1.0
  C  C174  1  0.11215509  0.20532157  0.27449217  1.0
  C  C175  1  0.38784459  0.29467842  0.27449312  1.0
  C  C176  1  0.74955995  0.64815845  0.29559994  1.0
  C  C177  1  0.75044089  0.85184190  0.29559879  1.0
  C  C178  1  0.35184157  0.24955882  0.79559982  1.0
  C  C179  1  0.14815813  0.25044036  0.79559964  1.0
  C  C180  1  0.24955918  0.35184233  0.20440089  1.0
  C  C181  1  0.25043870  0.14815837  0.20440154  1.0
  C  C182  1  0.85184206  0.75044000  0.70440134  1.0
  C  C183  1  0.64815862  0.74956258  0.70440141  1.0
  C  C184  1  0.25044095  0.35184188  0.70440009  1.0
  C  C185  1  0.24956052  0.14815842  0.70439973  1.0
  C  C186  1  0.64815883  0.75044201  0.20440121  1.0
  C  C187  1  0.85184227  0.74955947  0.20440089  1.0
  C  C188  1  0.75044022  0.64815850  0.79559964  1.0
  C  C189  1  0.74956020  0.85184246  0.79559899  1.0
  C  C190  1  0.14815784  0.24956133  0.29559819  1.0
  C  C191  1  0.35184128  0.25043976  0.29559962  1.0
  C  C192  1  0.79393283  0.61232104  0.31671949  1.0
  C  C193  1  0.70606695  0.88767890  0.31671791  1.0
  C  C194  1  0.38767898  0.29393226  0.81671917  1.0
  C  C195  1  0.11232116  0.20606700  0.81671897  1.0
  C  C196  1  0.29393310  0.38767822  0.18328156  1.0
  C  C197  1  0.20606584  0.11232190  0.18328195  1.0
  C  C198  1  0.88767904  0.70606705  0.68328197  1.0
  C  C199  1  0.61232119  0.79393545  0.68328211  1.0
  C  C200  1  0.20606757  0.38767879  0.68328104  1.0
  C  C201  1  0.29393345  0.11232142  0.68328086  1.0
  C  C202  1  0.61232193  0.70606857  0.18328162  1.0
  C  C203  1  0.88767924  0.79393232  0.18328156  1.0
  C  C204  1  0.70606730  0.61232161  0.81671897  1.0
  C  C205  1  0.79393356  0.88767944  0.81671808  1.0
  C  C206  1  0.11232136  0.29393479  0.31671756  1.0
  C  C207  1  0.38767871  0.20606739  0.31671917  1.0
  C  C208  1  0.79385947  0.54254682  0.31673253  1.0
  C  C209  1  0.70613930  0.95745312  0.31673102  1.0
  C  C210  1  0.45745369  0.29385837  0.81673196  1.0
  C  C211  1  0.04254644  0.20613939  0.81673156  1.0
  C  C212  1  0.29385871  0.45745244  0.18326827  1.0
  C  C213  1  0.20613973  0.04254768  0.18326884  1.0
  C  C214  1  0.95745326  0.70613990  0.68326887  1.0
  C  C215  1  0.54254748  0.79386159  0.68326881  1.0
  C  C216  1  0.20614043  0.45745301  0.68326825  1.0
  C  C217  1  0.29386010  0.04254670  0.68326825  1.0
  C  C218  1  0.54254822  0.70614196  0.18326857  1.0
  C  C219  1  0.95745346  0.79385843  0.18326847  1.0
  C  C220  1  0.70614069  0.54254789  0.81673200  1.0
  C  C221  1  0.79386117  0.95745315  0.81673094  1.0
  C  C222  1  0.04254764  0.29386143  0.31673091  1.0
  C  C223  1  0.45745242  0.20613975  0.31673222  1.0
  C  C224  1  0.74966397  0.71935743  0.29566258  1.0
  C  C225  1  0.75033939  0.78064243  0.29566211  1.0
  C  C226  1  0.28064260  0.24966186  0.79566346  1.0
  C  C227  1  0.21935760  0.25033731  0.79566348  1.0
  C  C228  1  0.24966171  0.28064235  0.20433775  1.0
  C  C229  1  0.25033666  0.21935785  0.20433772  1.0
  C  C230  1  0.78064460  0.75033850  0.70433826  1.0
  C  C231  1  0.71935709  0.74966458  0.70433853  1.0
  C  C232  1  0.25033895  0.28064240  0.70433594  1.0
  C  C233  1  0.24966302  0.21935840  0.70433591  1.0
  C  C234  1  0.71935730  0.75033947  0.20433783  1.0
  C  C235  1  0.78064381  0.74966352  0.20433806  1.0
  C  C236  1  0.75033819  0.71935647  0.79566328  1.0
  C  C237  1  0.74966173  0.78064449  0.79566281  1.0
  C  C238  1  0.21935681  0.24966333  0.29566177  1.0
  C  C239  1  0.28064281  0.25033725  0.29566250  1.0
  C  C240  1  0.74999714  0.25000163  0.38682847  1.0
  C  C241  1  0.74999894  0.25000067  0.88682892  1.0
  C  C242  1  0.24999946  0.75000217  0.11317161  1.0
  C  C243  1  0.25000226  0.74999468  0.61317156  1.0
  C  C244  1  0.74999910  0.25000120  0.42431294  1.0
  C  C245  1  0.74999989  0.25000125  0.92431264  1.0
  C  C246  1  0.24999750  0.75000159  0.07568739  1.0
  C  C247  1  0.25000080  0.74999661  0.57568759  1.0
  C  C248  1  0.79311557  0.29311673  0.44205683  1.0
  C  C249  1  0.70688107  0.20688173  0.44205782  1.0
  C  C250  1  0.70688234  0.29311931  0.94205807  1.0
  C  C251  1  0.79311638  0.20688427  0.94205724  1.0
  C  C252  1  0.29311605  0.70688302  0.05794272  1.0
  C  C253  1  0.20688051  0.79311756  0.05794229  1.0
  C  C254  1  0.20688182  0.70688058  0.55794295  1.0
  C  C255  1  0.29311833  0.79311558  0.55794346  1.0
  C  C256  1  0.79325925  0.29326003  0.47694472  1.0
  C  C257  1  0.70674181  0.20674209  0.47694471  1.0
  C  C258  1  0.70674258  0.29325960  0.97694495  1.0
  C  C259  1  0.79325905  0.20674212  0.97694437  1.0
  C  C260  1  0.29325732  0.70674223  0.02305608  1.0
  C  C261  1  0.20674035  0.79325871  0.02305515  1.0
  C  C262  1  0.20674116  0.70674180  0.52305556  1.0
  C  C263  1  0.29325909  0.79325824  0.52305633  1.0
  C  C264  1  0.75000050  0.25000035  0.49498928  1.0
  C  C265  1  0.74999928  0.24999989  0.99498797  1.0
  C  C266  1  0.24999961  0.74999943  0.00501155  1.0
  C  C267  1  0.25000090  0.74999948  0.50501100  1.0
  C  C268  1  0.74999995  0.24999942  0.53052833  1.0
  C  C269  1  0.75000217  0.25000088  0.03052361  1.0
  C  C270  1  0.24999923  0.74999895  0.96947516  1.0
  C  C271  1  0.25000045  0.75000091  0.46947245  1.0
  C  C272  1  0.74999940  0.24999797  0.56123097  1.0
  C  C273  1  0.75000113  0.25000094  0.06122876  1.0
  C  C274  1  0.25000078  0.75000039  0.93877001  1.0
  C  C275  1  0.25000100  0.75000185  0.43876880  1.0
  C  C276  1  0.74999935  0.24999905  0.59675016  1.0
  C  C277  1  0.75000258  0.25000252  0.09674770  1.0
  C  C278  1  0.24999782  0.74999780  0.90325183  1.0
  C  C279  1  0.25000005  0.75000178  0.40325037  1.0
  C  C280  1  0.79326307  0.29326334  0.61479499  1.0
  C  C281  1  0.70673458  0.20673535  0.61479548  1.0
  C  C282  1  0.70673829  0.29326633  0.11479482  1.0
  C  C283  1  0.79326582  0.20673779  0.11479474  1.0
  C  C284  1  0.29326211  0.70673450  0.88520546  1.0
  C  C285  1  0.20673459  0.79326203  0.88520529  1.0
  C  C286  1  0.20673482  0.70673799  0.38520529  1.0
  C  C287  1  0.29326381  0.79326599  0.38520480  1.0
  C  C288  1  0.79311979  0.29312018  0.64968263  1.0
  C  C289  1  0.70687826  0.20687915  0.64968286  1.0
  C  C290  1  0.70688147  0.29312267  0.14968246  1.0
  C  C291  1  0.79312203  0.20688160  0.14968238  1.0
  C  C292  1  0.29311843  0.70687816  0.85031757  1.0
  C  C293  1  0.20687786  0.79311873  0.85031764  1.0
  C  C294  1  0.20687760  0.70688215  0.35031765  1.0
  C  C295  1  0.29311963  0.79312319  0.35031767  1.0
  C  C296  1  0.75000026  0.24999920  0.66743580  1.0
  C  C297  1  0.75000198  0.25000217  0.16743535  1.0
  C  C298  1  0.24999792  0.74999816  0.83256417  1.0
  C  C299  1  0.24999763  0.75000364  0.33256422  1.0
  C  C300  1  0.75000221  0.24999727  0.70490946  1.0
  C  C301  1  0.74999991  0.25000024  0.20490901  1.0
  C  C302  1  0.24999798  0.74999808  0.79509127  1.0
  C  C303  1  0.24999819  0.75000356  0.29509056  1.0
  O  O304  1  0.75001134  0.24999490  0.29593310  1.0
  O  O305  1  0.75000208  0.24998741  0.79593481  1.0
  O  O306  1  0.24998676  0.74999633  0.20406572  1.0
  O  O307  1  0.25000363  0.75001296  0.70406466  1.0
  O  O308  1  0.70951718  0.40281538  0.27555126  1.0
  O  O309  1  0.79048294  0.09718389  0.27555031  1.0
  O  O310  1  0.59718413  0.20951235  0.77555215  1.0
  O  O311  1  0.90281557  0.29048049  0.77555108  1.0
  O  O312  1  0.20951322  0.59718391  0.22444835  1.0
  O  O313  1  0.29048588  0.90281587  0.22444798  1.0
  O  O314  1  0.09718511  0.79048408  0.72444794  1.0
  O  O315  1  0.40281557  0.70951630  0.72444904  1.0
  O  O316  1  0.29048071  0.59718646  0.72444827  1.0
  O  O317  1  0.20951344  0.90281594  0.72444846  1.0
  O  O318  1  0.40281577  0.79048497  0.22444939  1.0
  O  O319  1  0.09718283  0.70951833  0.22445021  1.0
  O  O320  1  0.79048517  0.40281440  0.77555218  1.0
  O  O321  1  0.70952056  0.09718295  0.77554828  1.0
  O  O322  1  0.90281731  0.20951424  0.27555209  1.0
  O  O323  1  0.59718533  0.29048201  0.27555073  1.0
  O  O324  1  0.79067329  0.40303205  0.31597747  1.0
  O  O325  1  0.70932723  0.09696840  0.31597759  1.0
  O  O326  1  0.59696896  0.29066659  0.81597918  1.0
  O  O327  1  0.90303313  0.20932189  0.81597551  1.0
  O  O328  1  0.29066894  0.59696922  0.18402158  1.0
  O  O329  1  0.20932726  0.90303240  0.18402303  1.0
  O  O330  1  0.09696808  0.70932280  0.68402392  1.0
  O  O331  1  0.40303272  0.79066987  0.68402083  1.0
  O  O332  1  0.20932360  0.59696677  0.68402306  1.0
  O  O333  1  0.29066915  0.90303243  0.68402144  1.0
  O  O334  1  0.40303144  0.70933123  0.18402160  1.0
  O  O335  1  0.09696676  0.79067039  0.18402175  1.0
  O  O336  1  0.70932895  0.40303111  0.81597920  1.0
  O  O337  1  0.79067666  0.09696792  0.81597524  1.0
  O  O338  1  0.90303233  0.29067451  0.31597611  1.0
  O  O339  1  0.59696769  0.20932694  0.31597743  1.0
  O  O340  1  0.79049633  0.29050127  0.37227979  1.0
  O  O341  1  0.70949749  0.20950142  0.37227952  1.0
  O  O342  1  0.70949876  0.29050084  0.87227977  1.0
  O  O343  1  0.79049915  0.20950095  0.87227969  1.0
  O  O344  1  0.29050063  0.70950251  0.12771976  1.0
  O  O345  1  0.20950075  0.79050240  0.12772008  1.0
  O  O346  1  0.20950256  0.70949504  0.62772074  1.0
  O  O347  1  0.29050291  0.79049439  0.62771975  1.0
  O  O348  1  0.79050237  0.29049597  0.71944534  1.0
  O  O349  1  0.70950403  0.20949763  0.71944507  1.0
  O  O350  1  0.70950070  0.29049845  0.21944542  1.0
  O  O351  1  0.79049858  0.20950058  0.21944459  1.0
  O  O352  1  0.29049769  0.70950037  0.78055461  1.0
  O  O353  1  0.20949881  0.79049623  0.78055468  1.0
  O  O354  1  0.20949753  0.70950737  0.28055494  1.0
  O  O355  1  0.29049989  0.79049968  0.28055470  1.0
