# generated using pymatgen
data_Zn3H14C14(N2O3)3
_symmetry_space_group_name_H-M   'P 1'
_cell_length_a   11.81517158
_cell_length_b   14.33862221
_cell_length_c   17.84887442
_cell_angle_alpha   89.99934986
_cell_angle_beta   89.99994605
_cell_angle_gamma   111.11798527
_symmetry_Int_Tables_number   1
_chemical_formula_structural   Zn3H14C14(N2O3)3
_chemical_formula_sum   'Zn12 H56 C56 N24 O36'
_cell_volume   2820.75700363
_cell_formula_units_Z   4
loop_
 _symmetry_equiv_pos_site_id
 _symmetry_equiv_pos_as_xyz
  1  'x, y, z'
loop_
 _atom_site_type_symbol
 _atom_site_label
 _atom_site_symmetry_multiplicity
 _atom_site_fract_x
 _atom_site_fract_y
 _atom_site_fract_z
 _atom_site_occupancy
  Zn  Zn0  1  0.93175294  0.11357534  0.16619007  1.0
  Zn  Zn1  1  0.85212493  0.86503148  0.14482511  1.0
  Zn  Zn2  1  0.88110897  0.39683745  0.40733622  1.0
  Zn  Zn3  1  0.56825493  0.38642453  0.66618966  1.0
  Zn  Zn4  1  0.64787025  0.63497135  0.64482470  1.0
  Zn  Zn5  1  0.61888683  0.10315686  0.90734115  1.0
  Zn  Zn6  1  0.06824777  0.88642207  0.83381045  1.0
  Zn  Zn7  1  0.14787493  0.13496593  0.85517596  1.0
  Zn  Zn8  1  0.11888041  0.60315920  0.59266205  1.0
  Zn  Zn9  1  0.43174486  0.61357662  0.33381029  1.0
  Zn  Zn10  1  0.35212296  0.36502830  0.35517806  1.0
  Zn  Zn11  1  0.38111668  0.89684504  0.09265936  1.0
  H  H12  1  0.95920715  0.98387143  0.23723373  1.0
  H  H13  1  0.80152077  0.25514983  0.24620852  1.0
  H  H14  1  0.01772299  0.58057384  0.41813858  1.0
  H  H15  1  0.82784862  0.59258213  0.44922482  1.0
  H  H16  1  0.77946012  0.56390776  0.35429181  1.0
  H  H17  1  0.15099326  0.12764474  0.03818666  1.0
  H  H18  1  0.91638213  0.51604861  0.26737334  1.0
  H  H19  1  0.06378740  0.52885975  0.30009550  1.0
  H  H20  1  0.84494026  0.74643589  0.37489955  1.0
  H  H21  1  0.99103032  0.75073936  0.40642808  1.0
  H  H22  1  0.12478451  0.70895781  0.31195816  1.0
  H  H23  1  0.06856330  0.67580014  0.21927181  1.0
  H  H24  1  0.99989128  0.79406913  0.27137847  1.0
  H  H25  1  0.87935070  0.69579850  0.25617071  1.0
  H  H26  1  0.54079803  0.51612164  0.73723446  1.0
  H  H27  1  0.69848080  0.24483972  0.74621211  1.0
  H  H28  1  0.48226916  0.91941820  0.91813481  1.0
  H  H29  1  0.67215106  0.90742232  0.94922472  1.0
  H  H30  1  0.72053890  0.93609679  0.85428974  1.0
  H  H31  1  0.34900617  0.37234809  0.53818508  1.0
  H  H32  1  0.58362553  0.98395217  0.76737204  1.0
  H  H33  1  0.43621718  0.97114101  0.80009017  1.0
  H  H34  1  0.65506164  0.75356757  0.87489861  1.0
  H  H35  1  0.50897085  0.74926058  0.90642839  1.0
  H  H36  1  0.37521743  0.79104275  0.81195506  1.0
  H  H37  1  0.43144186  0.82419974  0.71926726  1.0
  H  H38  1  0.50011106  0.70593308  0.77137862  1.0
  H  H39  1  0.62065185  0.80420022  0.75617102  1.0
  H  H40  1  0.04079629  0.01612449  0.76276510  1.0
  H  H41  1  0.19846743  0.74483636  0.75379536  1.0
  H  H42  1  0.98226592  0.41941983  0.58186305  1.0
  H  H43  1  0.17214440  0.40741901  0.55077121  1.0
  H  H44  1  0.22053760  0.43609638  0.64570478  1.0
  H  H45  1  0.84900744  0.87235267  0.96181441  1.0
  H  H46  1  0.08362613  0.48395255  0.73262717  1.0
  H  H47  1  0.93621565  0.47113916  0.69991117  1.0
  H  H48  1  0.15506305  0.25356751  0.62509872  1.0
  H  H49  1  0.00896935  0.24925955  0.59357355  1.0
  H  H50  1  0.87521672  0.29103885  0.68804796  1.0
  H  H51  1  0.93144633  0.32420027  0.78073262  1.0
  H  H52  1  0.00011463  0.20593053  0.72862092  1.0
  H  H53  1  0.12065744  0.30420041  0.74382812  1.0
  H  H54  1  0.45920671  0.48387727  0.26276886  1.0
  H  H55  1  0.30151952  0.75516068  0.25378560  1.0
  H  H56  1  0.51773246  0.08058519  0.08186122  1.0
  H  H57  1  0.32784906  0.09257958  0.05077523  1.0
  H  H58  1  0.27946526  0.06390661  0.14570909  1.0
  H  H59  1  0.65098972  0.62765380  0.46181431  1.0
  H  H60  1  0.41638436  0.01605272  0.23262679  1.0
  H  H61  1  0.56379199  0.02886613  0.19990474  1.0
  H  H62  1  0.34493425  0.24643433  0.12509966  1.0
  H  H63  1  0.49102908  0.25074282  0.09356764  1.0
  H  H64  1  0.62478328  0.20896438  0.18803705  1.0
  H  H65  1  0.56856660  0.17580964  0.28072541  1.0
  H  H66  1  0.49988750  0.29407106  0.22861797  1.0
  H  H67  1  0.37935049  0.19580093  0.24382501  1.0
  C  C68  1  0.06709895  0.25097721  0.28471371  1.0
  C  C69  1  0.88944000  0.26390506  0.26942952  1.0
  C  C70  1  0.11333626  0.36487229  0.40915969  1.0
  C  C71  1  0.04875438  0.31203932  0.34146660  1.0
  C  C72  1  0.88233044  0.13410062  0.85933061  1.0
  C  C73  1  0.92671640  0.13187749  0.93690637  1.0
  C  C74  1  0.85793772  0.60053498  0.39077179  1.0
  C  C75  1  0.16236113  0.21046246  0.26297636  1.0
  C  C76  1  0.06604931  0.12881592  0.01631023  1.0
  C  C77  1  0.99192293  0.56018491  0.30373283  1.0
  C  C78  1  0.91290582  0.71100069  0.37054143  1.0
  C  C79  1  0.04356004  0.66848597  0.27874563  1.0
  C  C80  1  0.76801991  0.12833415  0.04761675  1.0
  C  C81  1  0.88059062  0.12774422  0.01012023  1.0
  C  C82  1  0.43290999  0.24902270  0.78471881  1.0
  C  C83  1  0.61056188  0.23609308  0.76943549  1.0
  C  C84  1  0.38667516  0.13512404  0.90916752  1.0
  C  C85  1  0.45124793  0.18796112  0.84147560  1.0
  C  C86  1  0.61764923  0.36589150  0.35933846  1.0
  C  C87  1  0.57328421  0.36811633  0.43689853  1.0
  C  C88  1  0.64205980  0.89945849  0.89076954  1.0
  C  C89  1  0.33764558  0.28954005  0.76298283  1.0
  C  C90  1  0.43395090  0.37118251  0.51631477  1.0
  C  C91  1  0.50807881  0.93981601  0.80372806  1.0
  C  C92  1  0.58709285  0.78899536  0.87053797  1.0
  C  C93  1  0.45644369  0.83151665  0.77874211  1.0
  C  C94  1  0.73198157  0.37166621  0.54761245  1.0
  C  C95  1  0.61941588  0.37225006  0.51012384  1.0
  C  C96  1  0.93289499  0.74902020  0.71528848  1.0
  C  C97  1  0.11054578  0.73608338  0.73057099  1.0
  C  C98  1  0.88665500  0.63513259  0.59083578  1.0
  C  C99  1  0.95124072  0.68795883  0.65853391  1.0
  C  C100  1  0.11767222  0.86590128  0.14066710  1.0
  C  C101  1  0.07328698  0.86812217  0.06309918  1.0
  C  C102  1  0.14205803  0.39946467  0.60922592  1.0
  C  C103  1  0.83763462  0.78953719  0.73702359  1.0
  C  C104  1  0.93395622  0.87118672  0.98368804  1.0
  C  C105  1  0.00808012  0.43981400  0.69626936  1.0
  C  C106  1  0.08709384  0.28899822  0.62945852  1.0
  C  C107  1  0.95644621  0.33151444  0.72125993  1.0
  C  C108  1  0.23198177  0.87166550  0.95238488  1.0
  C  C109  1  0.11941797  0.87225769  0.98987748  1.0
  C  C110  1  0.56709404  0.75097845  0.21528451  1.0
  C  C111  1  0.38944195  0.76390957  0.23056782  1.0
  C  C112  1  0.61332463  0.86487711  0.09083299  1.0
  C  C113  1  0.54876047  0.81204228  0.15852491  1.0
  C  C114  1  0.38234639  0.63410591  0.64066542  1.0
  C  C115  1  0.42670568  0.63187958  0.56309918  1.0
  C  C116  1  0.35794039  0.10053967  0.10922705  1.0
  C  C117  1  0.66236080  0.71046260  0.23701936  1.0
  C  C118  1  0.56604623  0.62881640  0.48368686  1.0
  C  C119  1  0.49192796  0.06019337  0.19626741  1.0
  C  C120  1  0.41290460  0.21100429  0.12945694  1.0
  C  C121  1  0.54356086  0.16849348  0.22125279  1.0
  C  C122  1  0.26801457  0.62833045  0.45238526  1.0
  C  C123  1  0.38057844  0.62774436  0.48987611  1.0
  N  N124  1  0.96425250  0.22183990  0.24048669  1.0
  N  N125  1  0.04330460  0.13295964  0.94313225  1.0
  N  N126  1  0.93648500  0.31819762  0.33043311  1.0
  N  N127  1  0.94597643  0.54950890  0.38160951  1.0
  N  N128  1  0.95585536  0.72050424  0.29120191  1.0
  N  N129  1  0.97093400  0.12558791  0.05824202  1.0
  N  N130  1  0.53575407  0.27815723  0.74049345  1.0
  N  N131  1  0.45669357  0.36703162  0.44313370  1.0
  N  N132  1  0.56351688  0.18179874  0.83044016  1.0
  N  N133  1  0.55402274  0.95049219  0.88160685  1.0
  N  N134  1  0.54414635  0.77949464  0.79120305  1.0
  N  N135  1  0.52907410  0.37441602  0.55823894  1.0
  N  N136  1  0.03573752  0.77814853  0.75951719  1.0
  N  N137  1  0.95669624  0.86704002  0.05686715  1.0
  N  N138  1  0.06350477  0.68179604  0.66956908  1.0
  N  N139  1  0.05401887  0.45048776  0.61839156  1.0
  N  N140  1  0.04414905  0.27949393  0.70879860  1.0
  N  N141  1  0.02906664  0.87441324  0.94175962  1.0
  N  N142  1  0.46424957  0.72184692  0.25950875  1.0
  N  N143  1  0.54330037  0.63296578  0.55686849  1.0
  N  N144  1  0.43648709  0.81820615  0.16956259  1.0
  N  N145  1  0.44597667  0.04951194  0.11838917  1.0
  N  N146  1  0.45585898  0.22050950  0.20879522  1.0
  N  N147  1  0.47092791  0.62558438  0.44175821  1.0
  O  O148  1  0.88478612  0.98050779  0.21177838  1.0
  O  O149  1  0.13658613  0.14702038  0.21058736  1.0
  O  O150  1  0.21929723  0.36749036  0.42570354  1.0
  O  O151  1  0.05568104  0.40517401  0.45025847  1.0
  O  O152  1  0.67875083  0.13648184  0.01101219  1.0
  O  O153  1  0.26690105  0.23919071  0.29635029  1.0
  O  O154  1  0.77763035  0.13646531  0.84650742  1.0
  O  O155  1  0.95658483  0.13449420  0.80693233  1.0
  O  O156  1  0.76622684  0.12319854  0.11882910  1.0
  O  O157  1  0.61521734  0.51949093  0.71177511  1.0
  O  O158  1  0.36342579  0.35298227  0.71059380  1.0
  O  O159  1  0.28069803  0.13250194  0.92570698  1.0
  O  O160  1  0.44432136  0.09482311  0.95026608  1.0
  O  O161  1  0.82125150  0.36351839  0.51101295  1.0
  O  O162  1  0.23310622  0.26081124  0.79635596  1.0
  O  O163  1  0.72237054  0.36352107  0.34650625  1.0
  O  O164  1  0.54341803  0.36549658  0.30693462  1.0
  O  O165  1  0.73377891  0.37680213  0.61883036  1.0
  O  O166  1  0.11521576  0.01949037  0.78822213  1.0
  O  O167  1  0.86341770  0.85298227  0.78941203  1.0
  O  O168  1  0.78069997  0.63251452  0.57429809  1.0
  O  O169  1  0.94430938  0.59483087  0.54974092  1.0
  O  O170  1  0.32125541  0.86351857  0.98898776  1.0
  O  O171  1  0.73309588  0.76080969  0.70364966  1.0
  O  O172  1  0.22237101  0.86353360  0.15349253  1.0
  O  O173  1  0.04341588  0.86550322  0.19306930  1.0
  O  O174  1  0.23377843  0.87679962  0.88117085  1.0
  O  O175  1  0.38478786  0.48051097  0.28822652  1.0
  O  O176  1  0.63657856  0.64701963  0.28940952  1.0
  O  O177  1  0.71930535  0.86749772  0.07429465  1.0
  O  O178  1  0.55568286  0.90517655  0.04973556  1.0
  O  O179  1  0.17874328  0.63647902  0.48898644  1.0
  O  O180  1  0.76689585  0.73918542  0.20364567  1.0
  O  O181  1  0.27761460  0.63646587  0.65349650  1.0
  O  O182  1  0.45657604  0.63450307  0.69306590  1.0
  O  O183  1  0.26621652  0.62319678  0.38117015  1.0
