# generated using pymatgen
data_AlH8C17Br2O7
_symmetry_space_group_name_H-M   'P 1'
_cell_length_a   6.65007462
_cell_length_b   23.24153273
_cell_length_c   26.36634030
_cell_angle_alpha   78.07989136
_cell_angle_beta   89.99614236
_cell_angle_gamma   89.99811536
_symmetry_Int_Tables_number   1
_chemical_formula_structural   AlH8C17Br2O7
_chemical_formula_sum   'Al4 H32 C68 Br8 O28'
_cell_volume   3987.25311323
_cell_formula_units_Z   4
loop_
 _symmetry_equiv_pos_site_id
 _symmetry_equiv_pos_as_xyz
  1  'x, y, z'
loop_
 _atom_site_type_symbol
 _atom_site_label
 _atom_site_symmetry_multiplicity
 _atom_site_fract_x
 _atom_site_fract_y
 _atom_site_fract_z
 _atom_site_occupancy
  Al  Al0  1  0.81702168  0.24895268  0.24779963  1.0
  Al  Al1  1  0.18301475  0.75104699  0.75219685  1.0
  Al  Al2  1  0.31702061  0.25104561  0.25220356  1.0
  Al  Al3  1  0.68301732  0.74895763  0.74779438  1.0
  H  H4  1  0.27381402  0.60388314  0.56204875  1.0
  H  H5  1  0.72614272  0.39605313  0.43796921  1.0
  H  H6  1  0.77381903  0.89613787  0.93790700  1.0
  H  H7  1  0.22615424  0.10389816  0.06208018  1.0
  H  H8  1  0.65731623  0.55447365  0.59819797  1.0
  H  H9  1  0.34261644  0.44550112  0.40183571  1.0
  H  H10  1  0.15732243  0.94555672  0.90178850  1.0
  H  H11  1  0.84264634  0.05445984  0.09818870  1.0
  H  H12  1  0.65076196  0.62243424  0.66012026  1.0
  H  H13  1  0.34923989  0.37755607  0.33990073  1.0
  H  H14  1  0.15075655  0.87760772  0.83985835  1.0
  H  H15  1  0.84925282  0.12240566  0.16011969  1.0
  H  H16  1  0.91539935  0.39422625  0.52249250  1.0
  H  H17  1  0.08446415  0.60573674  0.47752948  1.0
  H  H18  1  0.41549820  0.10577208  0.97753558  1.0
  H  H19  1  0.58441041  0.89424571  0.02245239  1.0
  H  H20  1  0.19073161  0.54271852  0.06293294  1.0
  H  H21  1  0.80930181  0.45729590  0.93707131  1.0
  H  H22  1  0.69072853  0.95728038  0.43706448  1.0
  H  H23  1  0.30929738  0.04271713  0.56293204  1.0
  H  H24  1  0.40428965  0.67022099  0.60157804  1.0
  H  H25  1  0.59574528  0.32971167  0.39843652  1.0
  H  H26  1  0.90433446  0.82983494  0.89834035  1.0
  H  H27  1  0.09568243  0.17021273  0.10164464  1.0
  H  H28  1  0.66018080  0.59349641  0.01350372  1.0
  H  H29  1  0.33984511  0.40651703  0.98649900  1.0
  H  H30  1  0.16016123  0.90652045  0.48650192  1.0
  H  H31  1  0.83986468  0.09347777  0.51349536  1.0
  H  H32  1  0.57751785  0.32013981  0.26228386  1.0
  H  H33  1  0.42252610  0.67985762  0.73772347  1.0
  H  H34  1  0.07754636  0.17987727  0.23768908  1.0
  H  H35  1  0.92249609  0.82012607  0.76230423  1.0
  C  C36  1  0.57047302  0.17199561  0.32693507  1.0
  C  C37  1  0.42956642  0.82800174  0.67306223  1.0
  C  C38  1  0.07049963  0.32800442  0.17306653  1.0
  C  C39  1  0.92952929  0.67199905  0.82693448  1.0
  C  C40  1  0.55960853  0.18791377  0.18656459  1.0
  C  C41  1  0.44042490  0.81210536  0.81342104  1.0
  C  C42  1  0.05956587  0.31207069  0.31344835  1.0
  C  C43  1  0.94046907  0.68792127  0.68655216  1.0
  C  C44  1  0.13255662  0.64570375  0.61853232  1.0
  C  C45  1  0.86745275  0.35425876  0.38147733  1.0
  C  C46  1  0.63256832  0.85433800  0.88141266  1.0
  C  C47  1  0.36743804  0.14569250  0.11857001  1.0
  C  C48  1  0.13513450  0.60800589  0.58330497  1.0
  C  C49  1  0.86484178  0.39194341  0.41671655  1.0
  C  C50  1  0.63513775  0.89201590  0.91665739  1.0
  C  C51  1  0.36485057  0.10801023  0.08332769  1.0
  C  C52  1  0.96723472  0.57454846  0.57582679  1.0
  C  C53  1  0.03270246  0.42541090  0.42419604  1.0
  C  C54  1  0.46723759  0.92546820  0.92415387  1.0
  C  C55  1  0.53273418  0.07455420  0.07583052  1.0
  C  C56  1  0.78994273  0.58008148  0.60352713  1.0
  C  C57  1  0.21000949  0.41989167  0.39649771  1.0
  C  C58  1  0.28994559  0.91994452  0.89645792  1.0
  C  C59  1  0.71003220  0.08007285  0.10352581  1.0
  C  C60  1  0.78618450  0.61792312  0.63795014  1.0
  C  C61  1  0.21380381  0.38206115  0.36206674  1.0
  C  C62  1  0.28617909  0.88211383  0.86202586  1.0
  C  C63  1  0.71382276  0.11790883  0.13795313  1.0
  C  C64  1  0.95494659  0.65081682  0.64684945  1.0
  C  C65  1  0.04506579  0.34916159  0.35315830  1.0
  C  C66  1  0.45492300  0.84921755  0.85311483  1.0
  C  C67  1  0.54508487  0.15080887  0.14686677  1.0
  C  C68  1  0.93112966  0.47522379  0.54945861  1.0
  C  C69  1  0.06872332  0.52474073  0.45056218  1.0
  C  C70  1  0.43118259  0.02478324  0.95055164  1.0
  C  C71  1  0.56876964  0.97523679  0.04943589  1.0
  C  C72  1  0.95033147  0.44099273  0.51218088  1.0
  C  C73  1  0.04953203  0.55897003  0.48783802  1.0
  C  C74  1  0.45041041  0.05900293  0.98783354  1.0
  C  C75  1  0.54953430  0.94101683  0.01215323  1.0
  C  C76  1  0.01956041  0.46456687  0.46180770  1.0
  C  C77  1  0.98031212  0.53539471  0.53821277  1.0
  C  C78  1  0.51962691  0.03541200  0.03820489  1.0
  C  C79  1  0.48032832  0.96460827  0.96178148  1.0
  C  C80  1  0.10555967  0.52421588  0.03471125  1.0
  C  C81  1  0.89446925  0.47579787  0.96529417  1.0
  C  C82  1  0.60555653  0.97578587  0.46528873  1.0
  C  C83  1  0.39446788  0.02421199  0.53470817  1.0
  C  C84  1  0.89006354  0.54362786  0.01485491  1.0
  C  C85  1  0.10996989  0.45638711  0.98515087  1.0
  C  C86  1  0.39005379  0.95638064  0.48514967  1.0
  C  C87  1  0.60997362  0.04361781  0.51484645  1.0
  C  C88  1  0.92445236  0.62681743  0.87365811  1.0
  C  C89  1  0.07556904  0.37318388  0.12634296  1.0
  C  C90  1  0.42448407  0.87318766  0.62634092  1.0
  C  C91  1  0.57555086  0.12681653  0.37365662  1.0
  C  C92  1  0.17381893  0.52327906  0.97837439  1.0
  C  C93  1  0.82620999  0.47673555  0.02163101  1.0
  C  C94  1  0.67381185  0.97672379  0.52162167  1.0
  C  C95  1  0.32621556  0.02327475  0.47837406  1.0
  C  C96  1  0.95781629  0.54273385  0.95640221  1.0
  C  C97  1  0.04221112  0.45727879  0.04360439  1.0
  C  C98  1  0.45780360  0.95727587  0.54359999  1.0
  C  C99  1  0.54221629  0.04272397  0.45639571  1.0
  C  C100  1  0.92581672  0.58704058  0.91185004  1.0
  C  C101  1  0.07420167  0.41296643  0.08815052  1.0
  C  C102  1  0.42580990  0.91296713  0.58815083  1.0
  C  C103  1  0.57421150  0.08703341  0.41184562  1.0
  Br  Br104  1  0.84928223  0.43602750  0.61708375  1.0
  Br  Br105  1  0.15059932  0.56393808  0.38293817  1.0
  Br  Br106  1  0.34931756  0.06400504  0.88293582  1.0
  Br  Br107  1  0.65062715  0.93602756  0.11705336  1.0
  Br  Br108  1  0.58980738  0.44070525  0.05584261  1.0
  Br  Br109  1  0.41020499  0.55931729  0.94416608  1.0
  Br  Br110  1  0.08984152  0.05932100  0.44417080  1.0
  Br  Br111  1  0.91017687  0.94067729  0.55582609  1.0
  O  O112  1  0.39644177  0.20207460  0.20570492  1.0
  O  O113  1  0.60359617  0.79794354  0.79428343  1.0
  O  O114  1  0.89639423  0.29790571  0.29431929  1.0
  O  O115  1  0.10364521  0.70209090  0.70567533  1.0
  O  O116  1  0.73919171  0.18737142  0.30571261  1.0
  O  O117  1  0.26085225  0.81262522  0.69428393  1.0
  O  O118  1  0.23922527  0.31261767  0.19427399  1.0
  O  O119  1  0.76080364  0.68739388  0.80572955  1.0
  O  O120  1  0.73536657  0.20157436  0.19962624  1.0
  O  O121  1  0.26467287  0.79843122  0.80036664  1.0
  O  O122  1  0.23532718  0.29842543  0.30036713  1.0
  O  O123  1  0.76471226  0.70156651  0.69963761  1.0
  O  O124  1  0.89691654  0.30904374  0.18859971  1.0
  O  O125  1  0.10311839  0.69095369  0.81139720  1.0
  O  O126  1  0.39689088  0.19096765  0.31141568  1.0
  O  O127  1  0.60315458  0.80903085  0.68857812  1.0
  O  O128  1  0.56858188  0.28533150  0.24751653  1.0
  O  O129  1  0.43145756  0.71467075  0.75248413  1.0
  O  O130  1  0.06858479  0.21466746  0.25248204  1.0
  O  O131  1  0.93145616  0.78533351  0.74751441  1.0
  O  O132  1  0.29884839  0.67751597  0.62522876  1.0
  O  O133  1  0.70118655  0.32243559  0.37477766  1.0
  O  O134  1  0.79890591  0.82255462  0.87468378  1.0
  O  O135  1  0.20112752  0.17748806  0.12529823  1.0
  O  O136  1  0.79070677  0.58791929  0.03120539  1.0
  O  O137  1  0.20931764  0.41209375  0.96879927  1.0
  O  O138  1  0.29070001  0.91208867  0.46880206  1.0
  O  O139  1  0.70932289  0.08790970  0.53119444  1.0
