# generated using pymatgen
data_Zn8H36C61O27
_symmetry_space_group_name_H-M   'P 1'
_cell_length_a   18.38632497
_cell_length_b   18.40700964
_cell_length_c   18.45918163
_cell_angle_alpha   60.18741660
_cell_angle_beta   89.74101317
_cell_angle_gamma   119.66704267
_symmetry_Int_Tables_number   1
_chemical_formula_structural   Zn8H36C61O27
_chemical_formula_sum   'Zn8 H36 C61 O27'
_cell_volume   4442.15089993
_cell_formula_units_Z   1
loop_
 _symmetry_equiv_pos_site_id
 _symmetry_equiv_pos_as_xyz
  1  'x, y, z'
loop_
 _atom_site_type_symbol
 _atom_site_label
 _atom_site_symmetry_multiplicity
 _atom_site_fract_x
 _atom_site_fract_y
 _atom_site_fract_z
 _atom_site_occupancy
  Zn  Zn0  1  0.45490760  0.91604508  0.13347468  1.0
  Zn  Zn1  1  0.45861377  0.91160988  0.96178930  1.0
  Zn  Zn2  1  0.62987787  0.08752898  0.95818142  1.0
  Zn  Zn3  1  0.45637133  0.08742508  0.95754603  1.0
  Zn  Zn4  1  0.04740881  0.08833969  0.36866295  1.0
  Zn  Zn5  1  0.87332839  0.91497419  0.54241623  1.0
  Zn  Zn6  1  0.04625186  0.08580884  0.54436157  1.0
  Zn  Zn7  1  0.04549944  0.91246233  0.54282484  1.0
  H  H8  1  0.32453635  0.17304812  0.22120366  1.0
  H  H9  1  0.53131075  0.40606287  0.75013840  1.0
  H  H10  1  0.29734601  0.87815185  0.80101811  1.0
  H  H11  1  0.28019186  0.13100599  0.09270068  1.0
  H  H12  1  0.20285661  0.87965132  0.70501956  1.0
  H  H13  1  0.25292098  0.21571614  0.65457760  1.0
  H  H14  1  0.15654280  0.12104871  0.75093392  1.0
  H  H15  1  0.35001559  0.21515792  0.75094253  1.0
  H  H16  1  0.25363203  0.12055265  0.84728492  1.0
  H  H17  1  0.81267146  0.15414285  0.75360790  1.0
  H  H18  1  0.90843119  0.15379720  0.65866464  1.0
  H  H19  1  0.63150084  0.87936807  0.46969554  1.0
  H  H20  1  0.62494011  0.81359061  0.71294550  1.0
  H  H21  1  0.66034094  0.75924685  0.80270447  1.0
  H  H22  1  0.52736766  0.81367226  0.80983781  1.0
  H  H23  1  0.11041622  0.95686492  0.22050089  1.0
  H  H24  1  0.56330394  0.75973491  0.89921981  1.0
  H  H25  1  0.23092867  0.59385311  0.30681438  1.0
  H  H26  1  0.33302106  0.40468068  0.18603079  1.0
  H  H27  1  0.25292173  0.40620771  0.13217007  1.0
  H  H28  1  0.43018007  0.59694661  0.09168559  1.0
  H  H29  1  0.35065922  0.59941543  0.03742746  1.0
  H  H30  1  0.53329209  0.77953031  0.37586168  1.0
  H  H31  1  0.17971031  0.83665798  0.27435236  1.0
  H  H32  1  0.22357650  0.87795684  0.40304754  1.0
  H  H33  1  0.39379247  0.05242317  0.27552342  1.0
  H  H34  1  0.81690677  0.11220888  0.08783393  1.0
  H  H35  1  0.91415647  0.11660800  0.18093101  1.0
  H  H36  1  0.63307474  0.78348165  0.46947304  1.0
  H  H37  1  0.05908209  0.31459468  0.44702096  1.0
  H  H38  1  0.53298725  0.87660581  0.37485754  1.0
  H  H39  1  0.81689824  0.40403865  0.79973963  1.0
  H  H40  1  0.91288939  0.59391431  0.70183206  1.0
  H  H41  1  0.62957476  0.60063990  0.74816508  1.0
  H  H42  1  0.62828513  0.59904088  0.65245503  1.0
  H  H43  1  0.53134615  0.40768240  0.84582406  1.0
  C  C44  1  0.36253321  0.99523545  0.86492350  1.0
  C  C45  1  0.84224917  0.06468626  0.21191817  1.0
  C  C46  1  0.80674546  0.00108497  0.30530995  1.0
  C  C47  1  0.63699940  0.99466596  0.14073538  1.0
  C  C48  1  0.71445664  0.93609363  0.34200814  1.0
  C  C49  1  0.63710965  0.85446724  0.42809479  1.0
  C  C50  1  0.57507199  0.85211706  0.36899879  1.0
  C  C51  1  0.65835834  0.44830876  0.77702035  1.0
  C  C52  1  0.69359910  0.39086496  0.80686268  1.0
  C  C53  1  0.78711729  0.44652699  0.77799683  1.0
  C  C54  1  0.84092818  0.55292787  0.72313045  1.0
  C  C55  1  0.17409522  0.97834004  0.23183480  1.0
  C  C56  1  0.80470343  0.61055034  0.69371699  1.0
  C  C57  1  0.71235081  0.55504867  0.72220744  1.0
  C  C58  1  0.63425902  0.56338888  0.71853136  1.0
  C  C59  1  0.36155609  0.72524760  0.14440764  1.0
  C  C60  1  0.57313271  0.44255446  0.77999698  1.0
  C  C61  1  0.27875338  0.06101396  0.77840390  1.0
  C  C62  1  0.30608319  0.99573302  0.80750331  1.0
  C  C63  1  0.27709954  0.93011022  0.77955846  1.0
  C  C64  1  0.22404275  0.93085192  0.72587306  1.0
  C  C65  1  0.19604817  0.99670840  0.69727562  1.0
  C  C66  1  0.21119767  0.91121902  0.26342787  1.0
  C  C67  1  0.22502243  0.06125122  0.72514396  1.0
  C  C68  1  0.22253128  0.14430751  0.72094933  1.0
  C  C69  1  0.28334877  0.14398650  0.78129166  1.0
  C  C70  1  0.66497297  0.92338923  0.79438355  1.0
  C  C71  1  0.63698900  0.27725574  0.86566424  1.0
  C  C72  1  0.69639477  0.00537367  0.80092581  1.0
  C  C73  1  0.78587359  0.08858661  0.75032859  1.0
  C  C74  1  0.83965530  0.08835617  0.69707678  1.0
  C  C75  1  0.80732773  0.00477586  0.69115846  1.0
  C  C76  1  0.71884166  0.92308679  0.74110548  1.0
  C  C77  1  0.23678540  0.93429594  0.33392050  1.0
  C  C78  1  0.64638571  0.81712120  0.76722808  1.0
  C  C79  1  0.58539530  0.81735231  0.82773660  1.0
  C  C80  1  0.30983992  0.55494722  0.17386329  1.0
  C  C81  1  0.30436818  0.61145827  0.20057781  1.0
  C  C82  1  0.24005706  0.55457515  0.28265602  1.0
  C  C83  1  0.63950410  0.00509581  0.85878040  1.0
  C  C84  1  0.18418430  0.44732540  0.33520790  1.0
  C  C85  1  0.19199070  0.39086011  0.30778057  1.0
  C  C86  1  0.25553366  0.44823549  0.22610223  1.0
  C  C87  1  0.29784120  0.44120266  0.16120335  1.0
  C  C88  1  0.33020788  0.03115145  0.26403827  1.0
  C  C89  1  0.35893829  0.56201402  0.10195695  1.0
  C  C90  1  0.86270732  0.72407855  0.63612585  1.0
  C  C91  1  0.13965585  0.27686935  0.36326679  1.0
  C  C92  1  0.86504594  0.00344074  0.36087475  1.0
  C  C93  1  0.13886731  0.99652793  0.64056335  1.0
  C  C94  1  0.86514800  0.00416181  0.63525235  1.0
  C  C95  1  0.36266104  0.00861493  0.13615311  1.0
  C  C96  1  0.14211667  0.00036822  0.36073503  1.0
  C  C97  1  0.26745491  0.07514849  0.16186963  1.0
  C  C98  1  0.29307444  0.09836223  0.23234413  1.0
  C  C99  1  0.30531247  0.00910749  0.19235139  1.0
  C  C100  1  0.19950508  0.00085930  0.30355663  1.0
  C  C101  1  0.11263795  0.39634833  0.41633508  1.0
  C  C102  1  0.65971451  0.93356728  0.28972446  1.0
  C  C103  1  0.69423005  0.99590435  0.19748762  1.0
  C  C104  1  0.78774012  0.06216058  0.15975210  1.0
  O  O105  1  0.49962650  0.00010584  0.00336999  1.0
  O  O106  1  0.11288502  0.05461101  0.62311232  1.0
  O  O107  1  0.82642147  0.93238640  0.62413203  1.0
  O  O108  1  0.38835470  0.06217888  0.88137489  1.0
  O  O109  1  0.11588255  0.93501615  0.44420790  1.0
  O  O110  1  0.94829098  0.07458803  0.60324341  1.0
  O  O111  1  0.12411422  0.06635585  0.32063435  1.0
  O  O112  1  0.94878231  0.06186426  0.32107838  1.0
  O  O113  1  0.12052690  0.93918455  0.61407835  1.0
  O  O114  1  0.82329337  0.76877165  0.60954468  1.0
  O  O115  1  0.12549220  0.23223326  0.44634890  1.0
  O  O116  1  0.36947361  0.77012926  0.18174912  1.0
  O  O117  1  0.55316285  0.93309979  0.18110192  1.0
  O  O118  1  0.39783274  0.76774584  0.06271879  1.0
  O  O119  1  0.67645425  0.23282643  0.89263129  1.0
  O  O120  1  0.55638883  0.93524824  0.88889323  1.0
  O  O121  1  0.37712936  0.06060051  0.05283225  1.0
  O  O122  1  0.67774803  0.07342549  0.87396147  1.0
  O  O123  1  0.39240323  0.95509080  0.17687394  1.0
  O  O124  1  0.10969629  0.44037367  0.44767012  1.0
  O  O125  1  0.55311519  0.23374588  0.88427376  1.0
  O  O126  1  0.38030224  0.92885114  0.89287390  1.0
  O  O127  1  0.67621493  0.05490091  0.05703694  1.0
  O  O128  1  0.00370660  0.00144502  0.49866056  1.0
  O  O129  1  0.94637805  0.76738884  0.61826187  1.0
  O  O130  1  0.11615405  0.23490351  0.32189165  1.0
  O  O131  1  0.82560177  0.94589385  0.44453822  1.0
