# generated using pymatgen
data_Zn4H18C30O13
_symmetry_space_group_name_H-M   'P 1'
_cell_length_a   20.09257667
_cell_length_b   20.72275792
_cell_length_c   22.01762821
_cell_angle_alpha   114.88457833
_cell_angle_beta   115.61481412
_cell_angle_gamma   62.66376821
_symmetry_Int_Tables_number   1
_chemical_formula_structural   Zn4H18C30O13
_chemical_formula_sum   'Zn8 H36 C60 O26'
_cell_volume   7055.06438441
_cell_formula_units_Z   2
loop_
 _symmetry_equiv_pos_site_id
 _symmetry_equiv_pos_as_xyz
  1  'x, y, z'
loop_
 _atom_site_type_symbol
 _atom_site_label
 _atom_site_symmetry_multiplicity
 _atom_site_fract_x
 _atom_site_fract_y
 _atom_site_fract_z
 _atom_site_occupancy
  Zn  Zn0  1  0.97130312  0.97249816  0.88610754  1.0
  Zn  Zn1  1  0.96752838  0.11274564  0.02784250  1.0
  Zn  Zn2  1  0.11687835  0.95927823  0.02766909  1.0
  Zn  Zn3  1  0.95677133  0.96040245  0.01957321  1.0
  Zn  Zn4  1  0.53921333  0.53083447  0.59240909  1.0
  Zn  Zn5  1  0.53750618  0.39005770  0.45370061  1.0
  Zn  Zn6  1  0.55055006  0.53898121  0.45502314  1.0
  Zn  Zn7  1  0.39028452  0.54623589  0.45685528  1.0
  H  H8  1  0.82224123  0.24649387  0.87498744  1.0
  H  H9  1  0.83859579  0.10936720  0.74469649  1.0
  H  H10  1  0.77444612  0.13195229  0.63259142  1.0
  H  H11  1  0.68915786  0.21807060  0.55545373  1.0
  H  H12  1  0.66709944  0.40884118  0.73715526  1.0
  H  H13  1  0.75043602  0.32426815  0.81451837  1.0
  H  H14  1  0.25364618  0.81286952  0.87786914  1.0
  H  H15  1  0.11292853  0.84354400  0.74754754  1.0
  H  H16  1  0.32272468  0.71613214  0.81321973  1.0
  H  H17  1  0.41027023  0.63408009  0.73758194  1.0
  H  H18  1  0.23136366  0.71835007  0.56484089  1.0
  H  H19  1  0.14360859  0.80338470  0.64091078  1.0
  H  H20  1  0.84875651  0.79321835  0.86278509  1.0
  H  H21  1  0.80192625  0.85534296  0.73962963  1.0
  H  H22  1  0.72627641  0.79665445  0.62871760  1.0
  H  H23  1  0.64740310  0.71091357  0.55519665  1.0
  H  H24  1  0.68360763  0.65793573  0.73824988  1.0
  H  H25  1  0.76314605  0.74158469  0.81180981  1.0
  H  H26  1  0.24311769  0.11568251  0.17914038  1.0
  H  H27  1  0.10291157  0.26244713  0.16157663  1.0
  H  H28  1  0.12549542  0.37898984  0.23485854  1.0
  H  H29  1  0.21462185  0.45237969  0.32026918  1.0
  H  H30  1  0.41148346  0.24579314  0.32210628  1.0
  H  H31  1  0.32420682  0.17201233  0.23750630  1.0
  H  H32  1  0.78546830  0.11428631  0.13450590  1.0
  H  H33  1  0.84243617  0.24736055  0.18000996  1.0
  H  H34  1  0.79482810  0.35809723  0.26430816  1.0
  H  H35  1  0.71816192  0.43158154  0.35056922  1.0
  H  H36  1  0.64839203  0.24269745  0.29736354  1.0
  H  H37  1  0.72331083  0.16910952  0.21074385  1.0
  H  H38  1  0.10728719  0.83737446  0.18047116  1.0
  H  H39  1  0.25781811  0.80041621  0.14836668  1.0
  H  H40  1  0.37677695  0.71931415  0.20599696  1.0
  H  H41  1  0.45379745  0.64110644  0.29078116  1.0
  H  H42  1  0.24309679  0.69095544  0.33288425  1.0
  H  H43  1  0.16580413  0.76944456  0.24969031  1.0
  C  C44  1  0.88966630  0.13214804  0.88377718  1.0
  C  C45  1  0.84001377  0.18816449  0.84308267  1.0
  C  C46  1  0.81794139  0.16935077  0.77244010  1.0
  C  C47  1  0.76866619  0.22153067  0.72914583  1.0
  C  C48  1  0.75064985  0.19277947  0.65558276  1.0
  C  C49  1  0.70320541  0.24046774  0.61227186  1.0
  C  C50  1  0.67291731  0.31860283  0.64162552  1.0
  C  C51  1  0.69087110  0.34800587  0.71491849  1.0
  C  C52  1  0.73765787  0.30030505  0.75786552  1.0
  C  C53  1  0.62196678  0.37090635  0.59626577  1.0
  C  C54  1  0.13677951  0.88603148  0.88589107  1.0
  C  C55  1  0.19367629  0.83476751  0.84581194  1.0
  C  C56  1  0.17398442  0.81707149  0.77542582  1.0
  C  C57  1  0.22700694  0.76669657  0.73274561  1.0
  C  C58  1  0.30274893  0.71801790  0.75921547  1.0
  C  C59  1  0.35178001  0.67160684  0.71711580  1.0
  C  C60  1  0.32608847  0.67149585  0.64674108  1.0
  C  C61  1  0.25068176  0.71898089  0.61950094  1.0
  C  C62  1  0.20201966  0.76597868  0.66207499  1.0
  C  C63  1  0.37825845  0.62064814  0.60109739  1.0
  C  C64  1  0.89239410  0.87698429  0.87492313  1.0
  C  C65  1  0.84606849  0.82593528  0.83337023  1.0
  C  C66  1  0.80133487  0.82137010  0.76615837  1.0
  C  C67  1  0.75224941  0.77391881  0.72526418  1.0
  C  C68  1  0.71740958  0.76573195  0.65268616  1.0
  C  C69  1  0.67330835  0.71820055  0.61147588  1.0
  C  C70  1  0.66175666  0.67847511  0.64210355  1.0
  C  C71  1  0.69396516  0.68807945  0.71475156  1.0
  C  C72  1  0.73866160  0.73483837  0.75553651  1.0
  C  C73  1  0.61674897  0.62549330  0.59784948  1.0
  C  C74  1  0.12813129  0.11242241  0.11038154  1.0
  C  C75  1  0.18360852  0.15286852  0.16049259  1.0
  C  C76  1  0.16408451  0.22876423  0.18183894  1.0
  C  C77  1  0.21788389  0.27013638  0.23058338  1.0
  C  C78  1  0.18829286  0.34967681  0.25420290  1.0
  C  C79  1  0.23760927  0.39090222  0.30185137  1.0
  C  C80  1  0.31828652  0.35344911  0.32686779  1.0
  C  C81  1  0.34862773  0.27425350  0.30291885  1.0
  C  C82  1  0.29933391  0.23338036  0.25563651  1.0
  C  C83  1  0.37201872  0.39678234  0.37800794  1.0
  C  C84  1  0.86664382  0.10927376  0.09100894  1.0
  C  C85  1  0.81574280  0.14797938  0.13708766  1.0
  C  C86  1  0.80966513  0.21804398  0.18110657  1.0
  C  C87  1  0.76433454  0.25858243  0.23092593  1.0
  C  C88  1  0.76243001  0.33285626  0.27138809  1.0
  C  C89  1  0.72007289  0.37400340  0.31962457  1.0
  C  C90  1  0.67883735  0.34153355  0.32911772  1.0
  C  C91  1  0.68064389  0.26731387  0.28945345  1.0
  C  C92  1  0.72251763  0.22662541  0.24103224  1.0
  C  C93  1  0.63225696  0.38606849  0.37998191  1.0
  C  C94  1  0.10691870  0.88294144  0.10794553  1.0
  C  C95  1  0.14614355  0.83718615  0.15792801  1.0
  C  C96  1  0.22356362  0.79734709  0.17383836  1.0
  C  C97  1  0.26604399  0.75056965  0.22211458  1.0
  C  C98  1  0.34753647  0.71320282  0.23406294  1.0
  C  C99  1  0.39069600  0.66953070  0.28108231  1.0
  C  C100  1  0.35300966  0.66182713  0.31705445  1.0
  C  C101  1  0.27156424  0.69782126  0.30476813  1.0
  C  C102  1  0.22884619  0.74157567  0.25818061  1.0
  C  C103  1  0.39837274  0.61665305  0.36881157  1.0
  O  O104  1  0.00294186  0.00241228  0.98893517  1.0
  O  O105  1  0.90527577  0.16017073  0.95048529  1.0
  O  O106  1  0.91252249  0.06215776  0.85048941  1.0
  O  O107  1  0.60220657  0.34111438  0.52995746  1.0
  O  O108  1  0.60220618  0.44154657  0.62781261  1.0
  O  O109  1  0.16677327  0.90067692  0.95264560  1.0
  O  O110  1  0.06427875  0.91101020  0.85220102  1.0
  O  O111  1  0.34684650  0.61377994  0.53533954  1.0
  O  O112  1  0.45003297  0.58795902  0.63131486  1.0
  O  O113  1  0.91954433  0.88214713  0.94068594  1.0
  O  O114  1  0.90169141  0.91151799  0.84439232  1.0
  O  O115  1  0.59651615  0.61331535  0.53148331  1.0
  O  O116  1  0.60270495  0.59604243  0.62968578  1.0
  O  O117  1  0.15944934  0.04018972  0.09386079  1.0
  O  O118  1  0.05579068  0.15061452  0.08779117  1.0
  O  O119  1  0.34077456  0.46860464  0.39838616  1.0
  O  O120  1  0.44486381  0.35845369  0.39728567  1.0
  O  O121  1  0.87134497  0.04032465  0.05728816  1.0
  O  O122  1  0.90211896  0.14551685  0.08849337  1.0
  O  O123  1  0.62933233  0.45476486  0.41093515  1.0
  O  O124  1  0.59862790  0.35228429  0.38838992  1.0
  O  O125  1  0.03228553  0.91377636  0.09555383  1.0
  O  O126  1  0.14849462  0.88851168  0.08108846  1.0
  O  O127  1  0.47285667  0.58845114  0.38112534  1.0
  O  O128  1  0.35893203  0.61015432  0.39712096  1.0
  O  O129  1  0.50467108  0.50064523  0.48967675  1.0
