# generated using pymatgen
data_Al2H24C29O10
_symmetry_space_group_name_H-M   'P 1'
_cell_length_a   6.64959050
_cell_length_b   17.37420469
_cell_length_c   19.02324851
_cell_angle_alpha   70.30851086
_cell_angle_beta   89.99324666
_cell_angle_gamma   89.98923304
_symmetry_Int_Tables_number   1
_chemical_formula_structural   Al2H24C29O10
_chemical_formula_sum   'Al4 H48 C58 O20'
_cell_volume   2069.25654623
_cell_formula_units_Z   2
loop_
 _symmetry_equiv_pos_site_id
 _symmetry_equiv_pos_as_xyz
  1  'x, y, z'
loop_
 _atom_site_type_symbol
 _atom_site_label
 _atom_site_symmetry_multiplicity
 _atom_site_fract_x
 _atom_site_fract_y
 _atom_site_fract_z
 _atom_site_occupancy
  Al  Al0  1  0.86617791  0.49916516  0.50071538  1.0
  Al  Al1  1  0.36617249  0.50084649  0.49928164  1.0
  Al  Al2  1  0.36314125  0.99810170  0.00196642  1.0
  Al  Al3  1  0.86316065  0.00189094  0.99805536  1.0
  H  H4  1  0.82596126  0.91514121  0.81839729  1.0
  H  H5  1  0.32593304  0.08495543  0.18158100  1.0
  H  H6  1  0.40141212  0.81626604  0.90657018  1.0
  H  H7  1  0.90149301  0.18368419  0.09343720  1.0
  H  H8  1  0.55948076  0.70659715  0.86729324  1.0
  H  H9  1  0.05950406  0.29337225  0.13265065  1.0
  H  H10  1  0.56020665  0.62192171  0.78572624  1.0
  H  H11  1  0.06027149  0.37805577  0.21421421  1.0
  H  H12  1  0.40442245  0.58476868  0.68169194  1.0
  H  H13  1  0.90456726  0.41520196  0.31827565  1.0
  H  H14  1  0.82641672  0.68204201  0.59496567  1.0
  H  H15  1  0.32654832  0.31802429  0.40504403  1.0
  H  H16  1  0.66814058  0.79154604  0.63427849  1.0
  H  H17  1  0.16824405  0.20854242  0.36574064  1.0
  H  H18  1  0.66804475  0.87664474  0.71553639  1.0
  H  H19  1  0.16806017  0.12347336  0.28445801  1.0
  H  H20  1  0.36539490  0.85579996  0.23035945  1.0
  H  H21  1  0.86683507  0.14461926  0.76996987  1.0
  H  H22  1  0.13362426  0.88741434  0.25711128  1.0
  H  H23  1  0.63611570  0.11252713  0.74290192  1.0
  H  H24  1  0.14116193  0.77672308  0.36812386  1.0
  H  H25  1  0.64324960  0.22323040  0.63191179  1.0
  H  H26  1  0.37110719  0.74367630  0.34128368  1.0
  H  H27  1  0.87235056  0.25667242  0.65896196  1.0
  H  H28  1  0.38110401  0.76152109  0.16439174  1.0
  H  H29  1  0.87973073  0.23883389  0.83599270  1.0
  H  H30  1  0.37314630  0.64495636  0.26903939  1.0
  H  H31  1  0.87197171  0.35530821  0.73126870  1.0
  H  H32  1  0.80832972  0.77000310  0.16854567  1.0
  H  H33  1  0.30704825  0.22928309  0.83094956  1.0
  H  H34  1  0.80826304  0.83739759  0.21930743  1.0
  H  H35  1  0.30927144  0.16203148  0.78005132  1.0
  H  H36  1  0.80969817  0.72622681  0.33043597  1.0
  H  H37  1  0.31043039  0.27342031  0.66908737  1.0
  H  H38  1  0.81387644  0.65857998  0.27959606  1.0
  H  H39  1  0.31317136  0.34092719  0.72007694  1.0
  H  H40  1  0.14301492  0.61362862  0.24069597  1.0
  H  H41  1  0.64100561  0.38639176  0.75925787  1.0
  H  H42  1  0.24246643  0.66649292  0.10334204  1.0
  H  H43  1  0.99405895  0.69530341  0.11729808  1.0
  H  H44  1  0.16045633  0.76809423  0.05679950  1.0
  H  H45  1  0.73854813  0.33371194  0.89673474  1.0
  H  H46  1  0.49082135  0.30452419  0.88237304  1.0
  H  H47  1  0.65721437  0.23199792  0.94319879  1.0
  H  H48  1  0.61927061  0.60574493  0.45752082  1.0
  H  H49  1  0.11934409  0.39430654  0.54261895  1.0
  H  H50  1  0.61985344  0.89417732  0.04215139  1.0
  H  H51  1  0.11972977  0.10580087  0.95778579  1.0
  C  C52  1  0.61436014  0.38452741  0.61574688  1.0
  C  C53  1  0.11437428  0.61545670  0.38423108  1.0
  C  C54  1  0.61636869  0.41999160  0.41696334  1.0
  C  C55  1  0.11629378  0.58002194  0.58303157  1.0
  C  C56  1  0.95160712  0.87473949  0.81846272  1.0
  C  C57  1  0.45160341  0.12532467  0.18151854  1.0
  C  C58  1  0.11379372  0.87003381  0.86663968  1.0
  C  C59  1  0.61383988  0.12998133  0.13336253  1.0
  C  C60  1  0.27627251  0.81800743  0.86900407  1.0
  C  C61  1  0.77632998  0.18197347  0.13099088  1.0
  C  C62  1  0.27707049  0.76776472  0.82472491  1.0
  C  C63  1  0.77712608  0.23223586  0.17525037  1.0
  C  C64  1  0.11402828  0.77365910  0.77403685  1.0
  C  C65  1  0.61407752  0.22637230  0.22594574  1.0
  C  C66  1  0.95102109  0.82876663  0.77036040  1.0
  C  C67  1  0.45104952  0.17129325  0.22962648  1.0
  C  C68  1  0.43613790  0.71078733  0.82832141  1.0
  C  C69  1  0.93617450  0.28919732  0.17163656  1.0
  C  C70  1  0.43642546  0.66400673  0.78330565  1.0
  C  C71  1  0.93649450  0.33598073  0.21665563  1.0
  C  C72  1  0.27751001  0.66994238  0.73072849  1.0
  C  C73  1  0.77760692  0.33005257  0.26924794  1.0
  C  C74  1  0.11409988  0.72479243  0.72730825  1.0
  C  C75  1  0.61418639  0.27523078  0.27268109  1.0
  C  C76  1  0.95092527  0.73065181  0.67668869  1.0
  C  C77  1  0.45101451  0.26939341  0.32331333  1.0
  C  C78  1  0.79165185  0.78750986  0.67315831  1.0
  C  C79  1  0.29173447  0.21256114  0.32684815  1.0
  C  C80  1  0.79173571  0.83450637  0.71797245  1.0
  C  C81  1  0.29177843  0.16557755  0.28201888  1.0
  C  C82  1  0.27783676  0.62456530  0.68208574  1.0
  C  C83  1  0.77795390  0.37542428  0.31790073  1.0
  C  C84  1  0.11537353  0.62915017  0.63407314  1.0
  C  C85  1  0.61553997  0.37086277  0.36592681  1.0
  C  C86  1  0.95198942  0.68055812  0.63229140  1.0
  C  C87  1  0.45210689  0.31948200  0.36771174  1.0
  C  C88  1  0.21233053  0.83520334  0.24927263  1.0
  C  C89  1  0.71370473  0.16490744  0.75083376  1.0
  C  C90  1  0.21602227  0.76140474  0.32295359  1.0
  C  C91  1  0.71729013  0.23868740  0.67714614  1.0
  C  C92  1  0.22503594  0.73964182  0.17594781  1.0
  C  C93  1  0.72357965  0.26048531  0.82415526  1.0
  C  C94  1  0.88890016  0.78513365  0.21256967  1.0
  C  C95  1  0.38880353  0.21440508  0.78702186  1.0
  C  C96  1  0.10504314  0.81159268  0.18730548  1.0
  C  C97  1  0.60490819  0.18832705  0.81263772  1.0
  C  C98  1  0.10848564  0.68758379  0.31164996  1.0
  C  C99  1  0.60849920  0.31234873  0.68829524  1.0
  C  C100  1  0.22021141  0.66555008  0.24982839  1.0
  C  C101  1  0.71898106  0.33455320  0.75025890  1.0
  C  C102  1  0.89098121  0.71166254  0.28619174  1.0
  C  C103  1  0.39096181  0.28797677  0.71347960  1.0
  C  C104  1  0.61257057  0.08036039  0.08278152  1.0
  C  C105  1  0.11242376  0.91961876  0.91725222  1.0
  C  C106  1  0.60977891  0.11559042  0.88458764  1.0
  C  C107  1  0.11004069  0.88437487  0.11539731  1.0
  C  C108  1  0.15102764  0.71651306  0.10956691  1.0
  C  C109  1  0.64797876  0.28354044  0.89038750  1.0
  O  O110  1  0.44560821  0.43754331  0.43788230  1.0
  O  O111  1  0.94547075  0.56245755  0.56212753  1.0
  O  O112  1  0.78638778  0.41087955  0.58848020  1.0
  O  O113  1  0.28631820  0.58912429  0.41151421  1.0
  O  O114  1  0.78751786  0.43891527  0.43641697  1.0
  O  O115  1  0.28738825  0.56109869  0.56357786  1.0
  O  O116  1  0.94686895  0.58662231  0.41349120  1.0
  O  O117  1  0.44693950  0.41338736  0.58651461  1.0
  O  O118  1  0.61660312  0.54953541  0.49079586  1.0
  O  O119  1  0.11662331  0.45046542  0.50922307  1.0
  O  O120  1  0.78253656  0.08913625  0.91066329  1.0
  O  O121  1  0.28275686  0.91109763  0.08957706  1.0
  O  O122  1  0.44151194  0.05849305  0.06610587  1.0
  O  O123  1  0.94129881  0.94181103  0.93362718  1.0
  O  O124  1  0.44309928  0.08635037  0.91452322  1.0
  O  O125  1  0.94335692  0.91341149  0.08525097  1.0
  O  O126  1  0.28228003  0.93425687  0.94110198  1.0
  O  O127  1  0.78262099  0.06538944  0.05924843  1.0
  O  O128  1  0.61463319  0.95045796  0.00911136  1.0
  O  O129  1  0.11461404  0.04954618  0.99088924  1.0
