# generated using pymatgen
data_ZnH12C20BrNO6
_symmetry_space_group_name_H-M   'P 1'
_cell_length_a   11.07125185
_cell_length_b   16.40984426
_cell_length_c   17.80841185
_cell_angle_alpha   95.48912342
_cell_angle_beta   90.41316551
_cell_angle_gamma   92.20864956
_symmetry_Int_Tables_number   1
_chemical_formula_structural   ZnH12C20BrNO6
_chemical_formula_sum   'Zn2 H24 C40 Br2 N2 O12'
_cell_volume   3217.96613795
_cell_formula_units_Z   2
loop_
 _symmetry_equiv_pos_site_id
 _symmetry_equiv_pos_as_xyz
  1  'x, y, z'
loop_
 _atom_site_type_symbol
 _atom_site_label
 _atom_site_symmetry_multiplicity
 _atom_site_fract_x
 _atom_site_fract_y
 _atom_site_fract_z
 _atom_site_occupancy
  Zn  Zn0  1  0.49512649  0.41412109  0.49826372  1.0
  Zn  Zn1  1  0.50463200  0.58578794  0.50522522  1.0
  H  H2  1  0.37896166  0.71275982  0.42564778  1.0
  H  H3  1  0.38140974  0.86286380  0.42748397  1.0
  H  H4  1  0.66562556  0.86967173  0.59902138  1.0
  H  H5  1  0.64821796  0.72129813  0.58884080  1.0
  H  H6  1  0.33463034  0.13022850  0.40054091  1.0
  H  H7  1  0.61861462  0.13613227  0.57184383  1.0
  H  H8  1  0.62201508  0.28709280  0.57346335  1.0
  H  H9  1  0.35161673  0.27884013  0.41156053  1.0
  H  H10  1  0.50662137  0.61805319  0.26439996  1.0
  H  H11  1  0.50725837  0.61081125  0.12603541  1.0
  H  H12  1  0.49114424  0.34516860  0.11916037  1.0
  H  H13  1  0.49079452  0.35598753  0.25499515  1.0
  H  H14  1  0.50908479  0.65525636  0.88390992  1.0
  H  H15  1  0.49321667  0.38947237  0.87617387  1.0
  H  H16  1  0.49353991  0.38301312  0.73757465  1.0
  H  H17  1  0.50931593  0.64492191  0.74807486  1.0
  H  H18  1  0.78031047  0.60211354  0.40064255  1.0
  H  H19  1  0.22937170  0.59958739  0.39996712  1.0
  H  H20  1  0.10877844  0.41111734  0.57718565  1.0
  H  H21  1  0.88262468  0.41179869  0.57753151  1.0
  H  H22  1  0.65851127  0.96907852  0.59442855  1.0
  H  H23  1  0.34147189  0.03016893  0.40476967  1.0
  H  H24  1  0.49091141  0.35290152  0.03031311  1.0
  H  H25  1  0.50924864  0.64721951  0.97226927  1.0
  C  C26  1  0.49710862  0.49289954  0.35354346  1.0
  C  C27  1  0.26289540  0.49762020  0.50006090  1.0
  C  C28  1  0.50283648  0.50933054  0.64933519  1.0
  C  C29  1  0.73684192  0.49881840  0.50100491  1.0
  C  C30  1  0.44059980  0.75080967  0.46343198  1.0
  C  C31  1  0.44268295  0.83549214  0.46455548  1.0
  C  C32  1  0.52333671  0.88427471  0.51353265  1.0
  C  C33  1  0.59853459  0.84051064  0.55875191  1.0
  C  C34  1  0.59072976  0.75564811  0.55431868  1.0
  C  C35  1  0.53306232  0.97411338  0.51982609  1.0
  C  C36  1  0.46662714  0.02554316  0.47981633  1.0
  C  C37  1  0.40156802  0.15935437  0.44093380  1.0
  C  C38  1  0.47657515  0.11535665  0.48606728  1.0
  C  C39  1  0.55755608  0.16397196  0.53500129  1.0
  C  C40  1  0.55991519  0.24865187  0.53628544  1.0
  C  C41  1  0.40928209  0.24426087  0.44577372  1.0
  C  C42  1  0.49773209  0.48766050  0.26930895  1.0
  C  C43  1  0.50279782  0.55861041  0.23129254  1.0
  C  C44  1  0.50329789  0.55444065  0.15304623  1.0
  C  C45  1  0.49869140  0.47823070  0.10811904  1.0
  C  C46  1  0.49428389  0.40726743  0.14791129  1.0
  C  C47  1  0.49383396  0.41166567  0.22615941  1.0
  C  C48  1  0.49825065  0.46922381  0.02523039  1.0
  C  C49  1  0.50213815  0.53091451  0.97738842  1.0
  C  C50  1  0.50598660  0.59322764  0.85503151  1.0
  C  C51  1  0.50171751  0.52205165  0.89452681  1.0
  C  C52  1  0.49715693  0.44598249  0.84934232  1.0
  C  C53  1  0.49745903  0.44223594  0.77109584  1.0
  C  C54  1  0.50234547  0.51343497  0.73347766  1.0
  C  C55  1  0.50630973  0.58921299  0.77685134  1.0
  C  C56  1  0.87217568  0.50029499  0.49749333  1.0
  C  C57  1  0.93746632  0.55158930  0.44993658  1.0
  C  C58  1  0.93409504  0.45052684  0.54176496  1.0
  C  C59  1  0.87850261  0.60140016  0.40110263  1.0
  C  C60  1  0.94345688  0.64961244  0.35519767  1.0
  C  C61  1  0.12760958  0.49941169  0.49696453  1.0
  C  C62  1  0.06102410  0.45007396  0.54156845  1.0
  C  C63  1  0.06715802  0.55100469  0.44971568  1.0
  C  C64  1  0.13125741  0.60027923  0.40080875  1.0
  C  C65  1  0.07155567  0.64915810  0.35526284  1.0
  Br  Br66  1  0.85725317  0.71527636  0.29251048  1.0
  Br  Br67  1  0.16561758  0.71497878  0.29335621  1.0
  N  N68  1  0.51259935  0.71098461  0.50754374  1.0
  N  N69  1  0.48743802  0.28869813  0.49268934  1.0
  O  O70  1  0.49336835  0.42560610  0.38419061  1.0
  O  O71  1  0.50058690  0.56441237  0.38882638  1.0
  O  O72  1  0.32077763  0.56656334  0.50470352  1.0
  O  O73  1  0.30873972  0.42763341  0.49849229  1.0
  O  O74  1  0.50786392  0.57720639  0.61988579  1.0
  O  O75  1  0.49802594  0.43814813  0.61337026  1.0
  O  O76  1  0.68277014  0.42898959  0.50052371  1.0
  O  O77  1  0.68707500  0.56780470  0.50460852  1.0
  O  O78  1  0.61661128  0.01110090  0.57077758  1.0
  O  O79  1  0.38293303  0.98845086  0.42908619  1.0
  O  O80  1  0.49332335  0.39007575  0.99095285  1.0
  O  O81  1  0.50707719  0.61003368  0.01162421  1.0
