# generated using pymatgen
data_Zn2H20C26N8O
_symmetry_space_group_name_H-M   'P 1'
_cell_length_a   14.88211551
_cell_length_b   14.94549217
_cell_length_c   22.96841324
_cell_angle_alpha   90.00210773
_cell_angle_beta   90.01187934
_cell_angle_gamma   79.55246234
_symmetry_Int_Tables_number   1
_chemical_formula_structural   Zn2H20C26N8O
_chemical_formula_sum   'Zn8 H80 C104 N32 O4'
_cell_volume   5023.95235680
_cell_formula_units_Z   4
loop_
 _symmetry_equiv_pos_site_id
 _symmetry_equiv_pos_as_xyz
  1  'x, y, z'
loop_
 _atom_site_type_symbol
 _atom_site_label
 _atom_site_symmetry_multiplicity
 _atom_site_fract_x
 _atom_site_fract_y
 _atom_site_fract_z
 _atom_site_occupancy
  Zn  Zn0  1  0.58119640  0.55190682  0.06972108  1.0
  Zn  Zn1  1  0.58113642  0.55197629  0.93043486  1.0
  Zn  Zn2  1  0.06895678  0.06805807  0.56958465  1.0
  Zn  Zn3  1  0.06890307  0.06809119  0.43023980  1.0
  Zn  Zn4  1  0.42987543  0.41539530  0.92896811  1.0
  Zn  Zn5  1  0.42990268  0.41535224  0.07116092  1.0
  Zn  Zn6  1  0.92560191  0.92391720  0.42960267  1.0
  Zn  Zn7  1  0.92566203  0.92392261  0.57033638  1.0
  H  H8  1  0.28546706  0.90570067  0.94529705  1.0
  H  H9  1  0.37075794  0.05659987  0.09374154  1.0
  H  H10  1  0.85354247  0.56983819  0.40627449  1.0
  H  H11  1  0.85431897  0.56955190  0.59372590  1.0
  H  H12  1  0.42622765  0.75956352  0.74293880  1.0
  H  H13  1  0.42630385  0.75952092  0.25715252  1.0
  H  H14  1  0.97425381  0.19530345  0.19259561  1.0
  H  H15  1  0.97405809  0.19594054  0.80710345  1.0
  H  H16  1  0.87980581  0.28138807  0.11657272  1.0
  H  H17  1  0.87968163  0.28182696  0.88322081  1.0
  H  H18  1  0.32858935  0.85226711  0.67137061  1.0
  H  H19  1  0.28548373  0.90582178  0.05481150  1.0
  H  H20  1  0.32862201  0.85228536  0.32864733  1.0
  H  H21  1  0.66762447  0.12581015  0.14914812  1.0
  H  H22  1  0.66752306  0.12622161  0.85056880  1.0
  H  H23  1  0.20953722  0.62010909  0.62409319  1.0
  H  H24  1  0.20947810  0.62018791  0.37588927  1.0
  H  H25  1  0.30474991  0.52827472  0.69761040  1.0
  H  H26  1  0.30472974  0.52830075  0.30245118  1.0
  H  H27  1  0.76209950  0.03902930  0.22351611  1.0
  H  H28  1  0.76192904  0.03962038  0.77611284  1.0
  H  H29  1  0.93136256  0.64532095  0.90620791  1.0
  H  H30  1  0.76741999  0.41979421  0.44528363  1.0
  H  H31  1  0.93138356  0.64550377  0.09391497  1.0
  H  H32  1  0.42280347  0.15364014  0.40616711  1.0
  H  H33  1  0.42291308  0.15264719  0.59385790  1.0
  H  H34  1  0.09741865  0.63158422  0.90618244  1.0
  H  H35  1  0.09743599  0.63175776  0.09395698  1.0
  H  H36  1  0.58904326  0.13660067  0.40613958  1.0
  H  H37  1  0.58913290  0.13560684  0.59390003  1.0
  H  H38  1  0.25262409  0.56947874  0.09445955  1.0
  H  H39  1  0.25256217  0.56938617  0.90572325  1.0
  H  H40  1  0.74532172  0.07551017  0.59438227  1.0
  H  H41  1  0.76729163  0.42001135  0.55453453  1.0
  H  H42  1  0.74513888  0.07549028  0.40558253  1.0
  H  H43  1  0.44374766  0.74236277  0.90582225  1.0
  H  H44  1  0.44380148  0.74241872  0.09432780  1.0
  H  H45  1  0.92759521  0.25589613  0.40566225  1.0
  H  H46  1  0.92753311  0.25570016  0.59421989  1.0
  H  H47  1  0.78250908  0.61812527  0.09437048  1.0
  H  H48  1  0.78235968  0.61825698  0.90578308  1.0
  H  H49  1  0.27117239  0.13250512  0.59421537  1.0
  H  H50  1  0.27123535  0.13253573  0.40566470  1.0
  H  H51  1  0.37714172  0.21214817  0.90592577  1.0
  H  H52  1  0.26673905  0.06448800  0.94478666  1.0
  H  H53  1  0.37723691  0.21209318  0.09410957  1.0
  H  H54  1  0.86665187  0.72336701  0.40586370  1.0
  H  H55  1  0.86658600  0.72338670  0.59410308  1.0
  H  H56  1  0.56766642  0.22402853  0.08911614  1.0
  H  H57  1  0.56766517  0.22417854  0.91071753  1.0
  H  H58  1  0.06949009  0.73902325  0.59731446  1.0
  H  H59  1  0.06950877  0.73904502  0.40268935  1.0
  H  H60  1  0.76602640  0.40389527  0.91530866  1.0
  H  H61  1  0.76612180  0.40364773  0.08473365  1.0
  H  H62  1  0.25631324  0.93022910  0.40979150  1.0
  H  H63  1  0.26690920  0.06457895  0.05539872  1.0
  H  H64  1  0.25638352  0.93011440  0.59014789  1.0
  H  H65  1  0.38851018  0.89977705  0.90629319  1.0
  H  H66  1  0.38854618  0.89981016  0.09383044  1.0
  H  H67  1  0.87046343  0.41309054  0.40618701  1.0
  H  H68  1  0.87026843  0.41287374  0.59377548  1.0
  H  H69  1  0.61681813  0.64139821  0.15913928  1.0
  H  H70  1  0.61676651  0.64148194  0.84096697  1.0
  H  H71  1  0.09394710  0.16437131  0.65864643  1.0
  H  H72  1  0.09396732  0.16398707  0.34116084  1.0
  H  H73  1  0.53855436  0.89036039  0.96178073  1.0
  H  H74  1  0.75003343  0.57854846  0.44501236  1.0
  H  H75  1  0.53852934  0.89047089  0.03836953  1.0
  H  H76  1  0.02090510  0.40191352  0.46177973  1.0
  H  H77  1  0.02073858  0.40215354  0.53838014  1.0
  H  H78  1  0.51926099  0.04922083  0.96160902  1.0
  H  H79  1  0.51938598  0.04932723  0.03829318  1.0
  H  H80  1  0.00282169  0.56074093  0.46143352  1.0
  H  H81  1  0.00312901  0.56095460  0.53813541  1.0
  H  H82  1  0.32977147  0.48295299  0.79782516  1.0
  H  H83  1  0.32993811  0.48279825  0.20234433  1.0
  H  H84  1  0.83874170  0.96572402  0.29413951  1.0
  H  H85  1  0.75043128  0.57871429  0.55531911  1.0
  H  H86  1  0.83872602  0.96613213  0.70568167  1.0
  H  H87  1  0.37044325  0.05658909  0.90631920  1.0
  C  C88  1  0.49499272  0.60075354  0.19037378  1.0
  C  C89  1  0.70685667  0.37079564  0.08239436  1.0
  C  C90  1  0.86866934  0.73808777  0.54785529  1.0
  C  C91  1  0.56337205  0.65882237  0.19418991  1.0
  C  C92  1  0.56334216  0.65883859  0.80588345  1.0
  C  C93  1  0.05211236  0.16516027  0.69967106  1.0
  C  C94  1  0.05225330  0.16465093  0.30007837  1.0
  C  C95  1  0.19926812  0.89412488  0.41156100  1.0
  C  C96  1  0.19931238  0.89404146  0.58839255  1.0
  C  C97  1  0.82308249  0.62870981  0.00007458  1.0
  C  C98  1  0.31280240  0.14103342  0.49995652  1.0
  C  C99  1  0.37638136  0.16913624  0.00001452  1.0
  C  C100  1  0.86297021  0.68122630  0.49998475  1.0
  C  C101  1  0.69812288  0.28115781  0.09688150  1.0
  C  C102  1  0.69807866  0.28139141  0.90301643  1.0
  C  C103  1  0.19387161  0.80523819  0.60670088  1.0
  C  C104  1  0.49493461  0.60079915  0.80973350  1.0
  C  C105  1  0.19384010  0.80530986  0.39326428  1.0
  C  C106  1  0.35210176  0.92770026  0.94581247  1.0
  C  C107  1  0.35215274  0.92774797  0.05429812  1.0
  C  C108  1  0.83436109  0.44115969  0.44576902  1.0
  C  C109  1  0.83434238  0.44114463  0.55417616  1.0
  C  C110  1  0.33955777  0.03314074  0.94571456  1.0
  C  C111  1  0.33970975  0.03317841  0.05439092  1.0
  C  C112  1  0.82268982  0.54658139  0.44573212  1.0
  C  C113  1  0.82302336  0.54654631  0.55434958  1.0
  C  C114  1  0.49956776  0.91978583  0.00005043  1.0
  C  C115  1  0.98984220  0.10081068  0.69574664  1.0
  C  C116  1  0.98213843  0.43178595  0.50001293  1.0
  C  C117  1  0.40592519  0.88772934  0.00005805  1.0
  C  C118  1  0.88800012  0.40072933  0.49998178  1.0
  C  C119  1  0.38399246  0.06748741  0.00002243  1.0
  C  C120  1  0.86781174  0.58009917  0.49998678  1.0
  C  C121  1  0.38791747  0.51550144  0.80680391  1.0
  C  C122  1  0.38805381  0.51537737  0.19334230  1.0
  C  C123  1  0.89100268  0.00599675  0.30305310  1.0
  C  C124  1  0.89098645  0.00639081  0.69675510  1.0
  C  C125  1  0.48685109  0.02440787  0.99998936  1.0
  C  C126  1  0.98990185  0.10037983  0.30402562  1.0
  C  C127  1  0.97041302  0.53612914  0.49987848  1.0
  C  C128  1  0.37804630  0.72893588  0.71749483  1.0
  C  C129  1  0.37810258  0.72891859  0.28257928  1.0
  C  C130  1  0.90739235  0.17923822  0.18267261  1.0
  C  C131  1  0.90721742  0.17983276  0.81703554  1.0
  C  C132  1  0.85324061  0.22823219  0.13995796  1.0
  C  C133  1  0.85310457  0.22870821  0.85979698  1.0
  C  C134  1  0.32376408  0.78069443  0.67617563  1.0
  C  C135  1  0.32379192  0.78071121  0.32385699  1.0
  C  C136  1  0.76370410  0.21453262  0.12897342  1.0
  C  C137  1  0.60551318  0.27939621  0.08523955  1.0
  C  C138  1  0.76361139  0.21491105  0.87081483  1.0
  C  C139  1  0.25932405  0.74461283  0.64289508  1.0
  C  C140  1  0.25931380  0.74466478  0.35710781  1.0
  C  C141  1  0.73538086  0.14100458  0.15764008  1.0
  C  C142  1  0.73526635  0.14144320  0.84208528  1.0
  C  C143  1  0.25583391  0.65180502  0.65070211  1.0
  C  C144  1  0.25581812  0.65185284  0.34931037  1.0
  C  C145  1  0.30972926  0.59981940  0.69239396  1.0
  C  C146  1  0.30973514  0.59983817  0.30765732  1.0
  C  C147  1  0.78922366  0.09179731  0.20012395  1.0
  C  C148  1  0.60549944  0.27954085  0.91468170  1.0
  C  C149  1  0.78907024  0.09233644  0.79955804  1.0
  C  C150  1  0.37022633  0.63787717  0.72795693  1.0
  C  C151  1  0.37026770  0.63786347  0.27211873  1.0
  C  C152  1  0.87438731  0.11325746  0.21615872  1.0
  C  C153  1  0.87420273  0.11386846  0.78352399  1.0
  C  C154  1  0.96723159  0.64237612  0.94779576  1.0
  C  C155  1  0.96724377  0.64247834  0.05233164  1.0
  C  C156  1  0.45867764  0.14966922  0.44779150  1.0
  C  C157  1  0.45872797  0.14915720  0.55223536  1.0
  C  C158  1  0.06167506  0.63477943  0.94779627  1.0
  C  C159  1  0.10436704  0.79621341  0.59125641  1.0
  C  C160  1  0.06168582  0.63487669  0.05233998  1.0
  C  C161  1  0.55337451  0.14017208  0.44779478  1.0
  C  C162  1  0.55342034  0.13965140  0.55223952  1.0
  C  C163  1  0.11196072  0.62502468  0.00007301  1.0
  C  C164  1  0.60387478  0.12969378  0.50001305  1.0
  C  C165  1  0.26680963  0.56168689  0.04818656  1.0
  C  C166  1  0.26677711  0.56161258  0.95199824  1.0
  C  C167  1  0.75956835  0.06809552  0.54808709  1.0
  C  C168  1  0.75949141  0.06809784  0.45186929  1.0
  C  C169  1  0.91820800  0.64095839  0.00006184  1.0
  C  C170  1  0.10435159  0.79626605  0.40871354  1.0
  C  C171  1  0.40916701  0.14950141  0.49999735  1.0
  C  C172  1  0.45053144  0.72752979  0.95207165  1.0
  C  C173  1  0.45055827  0.72756074  0.04808103  1.0
  C  C174  1  0.93454284  0.24104976  0.45190949  1.0
  C  C175  1  0.93448594  0.24093653  0.54796183  1.0
  C  C176  1  0.41703893  0.58715274  0.22304798  1.0
  C  C177  1  0.41697187  0.58719197  0.77705360  1.0
  C  C178  1  0.91916324  0.07461246  0.73051098  1.0
  C  C179  1  0.91929954  0.07405820  0.26922051  1.0
  C  C180  1  0.21064726  0.59157585  0.00008740  1.0
  C  C181  1  0.70679975  0.37098239  0.91762359  1.0
  C  C182  1  0.70279969  0.09679187  0.49999090  1.0
  C  C183  1  0.42734351  0.78526291  0.00006882  1.0
  C  C184  1  0.90973221  0.29828487  0.49995601  1.0
  C  C185  1  0.76825259  0.61535039  0.04808437  1.0
  C  C186  1  0.76819198  0.61539292  0.95207455  1.0
  C  C187  1  0.25683500  0.13015370  0.54791359  1.0
  C  C188  1  0.25687294  0.13017061  0.45195790  1.0
  C  C189  1  0.37867561  0.22701362  0.95218454  1.0
  C  C190  1  0.37871278  0.22698864  0.04785433  1.0
  C  C191  1  0.86869831  0.73807420  0.45211293  1.0
  N  N192  1  0.50789987  0.54042291  0.14519840  1.0
  N  N193  1  0.34817340  0.51588739  0.97050327  1.0
  N  N194  1  0.84178498  0.02434368  0.52956051  1.0
  N  N195  1  0.84173996  0.02434673  0.47036355  1.0
  N  N196  1  0.48617751  0.64257931  0.97053107  1.0
  N  N197  1  0.48620271  0.64259668  0.02964979  1.0
  N  N198  1  0.97256627  0.15674827  0.47034561  1.0
  N  N199  1  0.97253452  0.15667965  0.52947333  1.0
  N  N200  1  0.68802789  0.59575864  0.02995456  1.0
  N  N201  1  0.68799222  0.59578683  0.97021194  1.0
  N  N202  1  0.17520083  0.11405986  0.52979332  1.0
  N  N203  1  0.50779079  0.54055182  0.85495575  1.0
  N  N204  1  0.17522241  0.11407094  0.47002690  1.0
  N  N205  1  0.38245999  0.31232898  0.97013579  1.0
  N  N206  1  0.38248309  0.31231295  0.02992369  1.0
  N  N207  1  0.87742801  0.82204604  0.47011724  1.0
  N  N208  1  0.87741090  0.82205676  0.52984927  1.0
  N  N209  1  0.56317263  0.36190743  0.06681695  1.0
  N  N210  1  0.56316359  0.36196759  0.93323989  1.0
  N  N211  1  0.06028103  0.87433942  0.56725852  1.0
  N  N212  1  0.06025943  0.87438877  0.43270199  1.0
  N  N213  1  0.62554848  0.41808290  0.93505578  1.0
  N  N214  1  0.99867488  0.05089953  0.64552031  1.0
  N  N215  1  0.62558420  0.41799864  0.06506098  1.0
  N  N216  1  0.11884426  0.93444695  0.43456815  1.0
  N  N217  1  0.11887932  0.93438286  0.56538607  1.0
  N  N218  1  0.99858357  0.05067531  0.35433213  1.0
  N  N219  1  0.44254260  0.48901177  0.85327165  1.0
  N  N220  1  0.44269416  0.48883212  0.14690505  1.0
  N  N221  1  0.93874268  0.99336053  0.35336367  1.0
  N  N222  1  0.93884807  0.99356504  0.64651279  1.0
  N  N223  1  0.34819516  0.51592595  0.02969383  1.0
  O  O224  1  0.56883382  0.72019924  0.22875922  1.0
  O  O225  1  0.56882875  0.72013641  0.77127036  1.0
  O  O226  1  0.06392639  0.21631928  0.73964026  1.0
  O  O227  1  0.06423258  0.21561767  0.26004728  1.0
