# generated using pymatgen
data_Al6H78C86O33
_symmetry_space_group_name_H-M   'P 1'
_cell_length_a   12.44725184
_cell_length_b   12.52013668
_cell_length_c   26.75479222
_cell_angle_alpha   81.42952079
_cell_angle_beta   82.99876883
_cell_angle_gamma   63.49266881
_symmetry_Int_Tables_number   1
_chemical_formula_structural   Al6H78C86O33
_chemical_formula_sum   'Al6 H78 C86 O33'
_cell_volume   3682.29460931
_cell_formula_units_Z   1
loop_
 _symmetry_equiv_pos_site_id
 _symmetry_equiv_pos_as_xyz
  1  'x, y, z'
loop_
 _atom_site_type_symbol
 _atom_site_label
 _atom_site_symmetry_multiplicity
 _atom_site_fract_x
 _atom_site_fract_y
 _atom_site_fract_z
 _atom_site_occupancy
  Al  Al0  1  0.59540046  0.58595663  0.49213438  1.0
  Al  Al1  1  0.58468533  0.33204508  0.50424766  1.0
  Al  Al2  1  0.34998757  0.55512672  0.50531930  1.0
  Al  Al3  1  0.06745148  0.07456053  0.01837247  1.0
  Al  Al4  1  0.32128445  0.08648888  0.00658959  1.0
  Al  Al5  1  0.09662403  0.31904513  0.00331806  1.0
  H  H6  1  0.30344106  0.69146188  0.82015902  1.0
  H  H7  1  0.45571990  0.64141656  0.73003658  1.0
  H  H8  1  0.70214736  0.53082162  0.79408288  1.0
  H  H9  1  0.64958931  0.51558488  0.71560102  1.0
  H  H10  1  0.97802870  0.33657912  0.69115903  1.0
  H  H11  1  0.86184101  0.48069133  0.69960112  1.0
  H  H12  1  0.77740008  0.17972039  0.73502552  1.0
  H  H13  1  0.92917667  0.15417182  0.72544278  1.0
  H  H14  1  0.61569151  0.39422642  0.74062892  1.0
  H  H15  1  0.64024218  0.43318398  0.82040272  1.0
  H  H16  1  0.92978618  0.15036590  0.81260332  1.0
  H  H17  1  0.21419552  0.51035461  0.20608044  1.0
  H  H18  1  0.26318135  0.22493325  0.31440975  1.0
  H  H19  1  0.16001166  0.37756433  0.31028401  1.0
  H  H20  1  0.14746183  0.38430240  0.22367150  1.0
  H  H21  1  0.19523803  0.00538476  0.70537352  1.0
  H  H22  1  0.22880661  0.22742338  0.23037461  1.0
  H  H23  1  0.54418592  0.25277891  0.28499750  1.0
  H  H24  1  0.47518716  0.15526217  0.30207274  1.0
  H  H25  1  0.13778970  0.01256866  0.78793640  1.0
  H  H26  1  0.48041326  0.87047745  0.78303245  1.0
  H  H27  1  0.48000819  0.68016438  0.84764000  1.0
  H  H28  1  0.27717618  0.08214470  0.75291239  1.0
  H  H29  1  0.11787645  0.46247922  0.75755429  1.0
  H  H30  1  0.01391848  0.53064650  0.70943002  1.0
  H  H31  1  0.01092463  0.61383180  0.75809647  1.0
  H  H32  1  0.84359420  0.56147805  0.77823267  1.0
  H  H33  1  0.95095803  0.47954304  0.82307078  1.0
  H  H34  1  0.10253120  0.30525456  0.84592536  1.0
  H  H35  1  0.06928922  0.18000129  0.85374090  1.0
  H  H36  1  0.20926210  0.16665926  0.82484771  1.0
  H  H37  1  0.06163670  0.18779918  0.76101451  1.0
  H  H38  1  0.12149162  0.29228479  0.74871771  1.0
  H  H39  1  0.28999717  0.62925539  0.70590516  1.0
  H  H40  1  0.77439622  0.03485228  0.79478048  1.0
  H  H41  1  0.84807726  0.00253386  0.85181754  1.0
  H  H42  1  0.69062281  0.04904386  0.85394961  1.0
  H  H43  1  0.73793425  0.21615041  0.86917577  1.0
  H  H44  1  0.65622022  0.25234697  0.81466742  1.0
  H  H45  1  0.07448787  0.58429413  0.26441433  1.0
  H  H46  1  0.09389239  0.54717512  0.33082689  1.0
  H  H47  1  0.05273624  0.69599567  0.30297825  1.0
  H  H48  1  0.27132137  0.58710327  0.32311503  1.0
  H  H49  1  0.24382934  0.65224724  0.25973976  1.0
  H  H50  1  0.71505385  0.13518611  0.23690766  1.0
  H  H51  1  0.71329562  0.07464621  0.18104912  1.0
  H  H52  1  0.75718033  0.19121985  0.17688192  1.0
  H  H53  1  0.54647715  0.26874458  0.14965387  1.0
  H  H54  1  0.55948713  0.33813285  0.19974091  1.0
  H  H55  1  0.43602424  0.54075840  0.27903584  1.0
  H  H56  1  0.43816692  0.50587361  0.19175166  1.0
  H  H57  1  0.38704816  0.05589316  0.27947497  1.0
  H  H58  1  0.33043054  0.06334952  0.22042851  1.0
  H  H59  1  0.46404591  0.94048035  0.23988557  1.0
  H  H60  1  0.49673417  0.09317312  0.17214633  1.0
  H  H61  1  0.58210943  0.04206603  0.22553096  1.0
  H  H62  1  0.04436290  0.08391894  0.64629001  1.0
  H  H63  1  0.14892924  0.95643985  0.61646090  1.0
  H  H64  1  0.99542389  0.98535450  0.62601858  1.0
  H  H65  1  0.10959182  0.82265219  0.69257341  1.0
  H  H66  1  0.00939260  0.95366645  0.71931808  1.0
  H  H67  1  0.16571427  0.78794108  0.88222744  1.0
  H  H68  1  0.05965271  0.93970696  0.87810224  1.0
  H  H69  1  0.01261223  0.82520613  0.87734310  1.0
  H  H70  1  0.00933744  0.91658266  0.79171878  1.0
  H  H71  1  0.12759768  0.77227035  0.79342382  1.0
  H  H72  1  0.64264765  0.88871919  0.66514827  1.0
  H  H73  1  0.63307519  0.87785699  0.73235574  1.0
  H  H74  1  0.73474299  0.75320266  0.70039395  1.0
  H  H75  1  0.56842371  0.71094367  0.73410209  1.0
  H  H76  1  0.55985671  0.73886235  0.66769096  1.0
  H  H77  1  0.51013156  0.89465499  0.60672875  1.0
  H  H78  1  0.35437318  0.96253086  0.59816897  1.0
  H  H79  1  0.43200312  0.05257016  0.59405667  1.0
  H  H80  1  0.30479502  0.05971233  0.67582558  1.0
  H  H81  1  0.45324420  0.02792180  0.68267198  1.0
  H  H82  1  0.67891084  0.71238528  0.45041794  1.0
  H  H83  1  0.93512447  0.00087209  0.00022982  1.0
  C  C84  1  0.71937108  0.37299483  0.56689630  1.0
  C  C85  1  0.37286567  0.31293588  0.73280560  1.0
  C  C86  1  0.37786854  0.31949905  0.68225506  1.0
  C  C87  1  0.38155174  0.32880390  0.63581214  1.0
  C  C88  1  0.36331375  0.70259742  0.74177933  1.0
  C  C89  1  0.19588075  0.91843618  0.72051455  1.0
  C  C90  1  0.18091810  0.91848095  0.77946668  1.0
  C  C91  1  0.30428344  0.91278460  0.89329980  1.0
  C  C92  1  0.32588716  0.82277618  0.70497177  1.0
  C  C93  1  0.36252223  0.72574333  0.79665389  1.0
  C  C94  1  0.31025035  0.86253435  0.79918257  1.0
  C  C95  1  0.39985778  0.35891032  0.58259850  1.0
  C  C96  1  0.39391293  0.91243860  0.76535368  1.0
  C  C97  1  0.41720731  0.87705797  0.70942764  1.0
  C  C98  1  0.30769217  0.88807158  0.85066969  1.0
  C  C99  1  0.33700372  0.78445802  0.65532794  1.0
  C  C100  1  0.35355821  0.74074464  0.61576030  1.0
  C  C101  1  0.68352786  0.42858436  0.73893601  1.0
  C  C102  1  0.89831795  0.38600865  0.71560394  1.0
  C  C103  1  0.93390731  0.37101494  0.77093676  1.0
  C  C104  1  0.86844856  0.34017010  0.90350471  1.0
  C  C105  1  0.80214461  0.34101518  0.71275559  1.0
  C  C106  1  0.38557785  0.69151397  0.56805360  1.0
  C  C107  1  0.70827250  0.44158865  0.79219666  1.0
  C  C108  1  0.83471984  0.34453462  0.80663015  1.0
  C  C109  1  0.84317595  0.21927457  0.79894785  1.0
  C  C110  1  0.84088224  0.21448222  0.74164827  1.0
  C  C111  1  0.84984931  0.34601186  0.85930677  1.0
  C  C112  1  0.78303571  0.34194604  0.66036326  1.0
  C  C113  1  0.76397272  0.34772421  0.61630011  1.0
  C  C114  1  0.33462900  0.46345739  0.26690023  1.0
  C  C115  1  0.24376362  0.31288100  0.29302906  1.0
  C  C116  1  0.23182331  0.31012205  0.23666263  1.0
  C  C117  1  0.71782789  0.38747858  0.42284337  1.0
  C  C118  1  0.31055181  0.30662073  0.10881047  1.0
  C  C119  1  0.35003770  0.34199904  0.29883887  1.0
  C  C120  1  0.31112905  0.45775648  0.21119444  1.0
  C  C121  1  0.33761246  0.32535376  0.20372292  1.0
  C  C122  1  0.46420419  0.22769598  0.22164225  1.0
  C  C123  1  0.46654992  0.23829751  0.27863999  1.0
  C  C124  1  0.32418596  0.31790014  0.15168192  1.0
  C  C125  1  0.35922928  0.34817978  0.35170104  1.0
  C  C126  1  0.36937479  0.35253945  0.39593269  1.0
  C  C127  1  0.30363529  0.88048111  0.13524522  1.0
  C  C128  1  0.39560812  0.37195573  0.44334741  1.0
  C  C129  1  0.31413679  0.85044238  0.18081582  1.0
  C  C130  1  0.32461915  0.82308186  0.23085315  1.0
  C  C131  1  0.33358605  0.80387377  0.27710691  1.0
  C  C132  1  0.34475458  0.78008714  0.32719772  1.0
  C  C133  1  0.35597920  0.75546059  0.37298539  1.0
  C  C134  1  0.91501100  0.29734029  0.13859605  1.0
  C  C135  1  0.88594146  0.31263645  0.18338310  1.0
  C  C136  1  0.85503490  0.32665546  0.23255064  1.0
  C  C137  1  0.82817719  0.33722254  0.27807411  1.0
  C  C138  1  0.79766380  0.34993404  0.32735972  1.0
  C  C139  1  0.38335845  0.70516560  0.42438203  1.0
  C  C140  1  0.76881657  0.36217887  0.37240142  1.0
  C  C141  1  0.27306167  0.96183978  0.94124082  1.0
  C  C142  1  0.29387907  0.27306087  0.92733226  1.0
  C  C143  1  0.93417011  0.30305924  0.94823499  1.0
  C  C144  1  0.27910940  0.93780643  0.08442217  1.0
  C  C145  1  0.28432489  0.27805533  0.06363574  1.0
  C  C146  1  0.96343739  0.26880723  0.08807159  1.0
  C  C147  1  0.33134030  0.29947320  0.87596435  1.0
  C  C148  1  0.35087503  0.30608474  0.82982018  1.0
  C  C149  1  0.36574807  0.31081865  0.77928843  1.0
  C  C150  1  0.93437308  0.48801917  0.78290014  1.0
  C  C151  1  0.02432289  0.52499103  0.75011845  1.0
  C  C152  1  0.06129996  0.26561011  0.77576975  1.0
  C  C153  1  0.11304174  0.22760480  0.82794961  1.0
  C  C154  1  0.74388007  0.19337697  0.83042920  1.0
  C  C155  1  0.76554749  0.06280392  0.83276397  1.0
  C  C156  1  0.23981227  0.57970835  0.28756437  1.0
  C  C157  1  0.10848088  0.60139528  0.29693089  1.0
  C  C158  1  0.56498954  0.25384823  0.18995339  1.0
  C  C159  1  0.69401489  0.15783294  0.19680366  1.0
  C  C160  1  0.49065837  0.09812405  0.21323465  1.0
  C  C161  1  0.41263719  0.03807845  0.23967660  1.0
  C  C162  1  0.09252500  0.91573956  0.69510420  1.0
  C  C163  1  0.06959739  0.98885752  0.64306003  1.0
  C  C164  1  0.09893250  0.86113324  0.80604033  1.0
  C  C165  1  0.08405901  0.85330856  0.86386300  1.0
  C  C166  1  0.54957932  0.78158542  0.70221532  1.0
  C  C167  1  0.64447447  0.82875166  0.69975200  1.0
  C  C168  1  0.39747651  0.98942113  0.67114253  1.0
  C  C169  1  0.42515853  0.97279993  0.61466615  1.0
  O  O170  1  0.48887017  0.67206609  0.54791127  1.0
  O  O171  1  0.49770020  0.29908984  0.46061108  1.0
  O  O172  1  0.31813708  0.46459925  0.46410333  1.0
  O  O173  1  0.30594834  0.67372747  0.45038933  1.0
  O  O174  1  0.50857294  0.49029625  0.50032366  1.0
  O  O175  1  0.95533263  0.20005982  0.97086403  1.0
  O  O176  1  0.16556103  0.99296362  0.95882318  1.0
  O  O177  1  0.35551066  0.97379074  0.96162789  1.0
  O  O178  1  0.36541047  0.17430484  0.95065859  1.0
  O  O179  1  0.19037572  0.34605472  0.94393450  1.0
  O  O180  1  0.97387238  0.37495033  0.96021850  1.0
  O  O181  1  0.69985622  0.47437477  0.54308435  1.0
  O  O182  1  0.98298589  0.16679467  0.07716908  1.0
  O  O183  1  0.17982757  0.95888615  0.06843221  1.0
  O  O184  1  0.36032140  0.96743310  0.06093798  1.0
  O  O185  1  0.35434879  0.17476414  0.04907204  1.0
  O  O186  1  0.18922053  0.35485535  0.04173707  1.0
  O  O187  1  0.98546816  0.34984475  0.05943023  1.0
  O  O188  1  0.16276783  0.16078063  0.00951031  1.0
  O  O189  1  0.69761056  0.29193895  0.55136104  1.0
  O  O190  1  0.49601737  0.28719282  0.56007566  1.0
  O  O191  1  0.32163876  0.45916454  0.56317246  1.0
  O  O192  1  0.30673316  0.66896356  0.55009572  1.0
  O  O193  1  0.48207953  0.69131004  0.43864231  1.0
  O  O194  1  0.68960133  0.49118033  0.43445969  1.0
  O  O195  1  0.70168253  0.30226545  0.45113749  1.0
  O  O196  1  0.48206670  0.66209752  0.81318523  1.0
  O  O197  1  0.35260503  0.03711946  0.76939827  1.0
  O  O198  1  0.28652975  0.64566290  0.74076896  1.0
  O  O199  1  0.44961959  0.46796814  0.26505022  1.0
  O  O200  1  0.36838285  0.51327748  0.17546383  1.0
  O  O201  1  0.67335769  0.67444507  0.48421103  1.0
  O  O202  1  0.98458989  0.99079043  0.02736051  1.0
