# generated using pymatgen
data_CdH13C18N3O4
_symmetry_space_group_name_H-M   'P 1'
_cell_length_a   13.91740402
_cell_length_b   13.91744261
_cell_length_c   14.26990932
_cell_angle_alpha   89.99980251
_cell_angle_beta   89.99983845
_cell_angle_gamma   62.79444931
_symmetry_Int_Tables_number   1
_chemical_formula_structural   CdH13C18N3O4
_chemical_formula_sum   'Cd4 H52 C72 N12 O16'
_cell_volume   2458.22925078
_cell_formula_units_Z   4
loop_
 _symmetry_equiv_pos_site_id
 _symmetry_equiv_pos_as_xyz
  1  'x, y, z'
loop_
 _atom_site_type_symbol
 _atom_site_label
 _atom_site_symmetry_multiplicity
 _atom_site_fract_x
 _atom_site_fract_y
 _atom_site_fract_z
 _atom_site_occupancy
  Cd  Cd0  1  0.37252672  0.32493252  0.63437295  1.0
  Cd  Cd1  1  0.62747169  0.67506610  0.13437304  1.0
  Cd  Cd2  1  0.32493445  0.37252713  0.36562631  1.0
  Cd  Cd3  1  0.67506676  0.62747170  0.86562508  1.0
  H  H4  1  0.54260820  0.60413557  0.62999171  1.0
  H  H5  1  0.45738983  0.39586386  0.12999320  1.0
  H  H6  1  0.60413682  0.54260899  0.37000759  1.0
  H  H7  1  0.39586216  0.45739305  0.87000909  1.0
  H  H8  1  0.83792687  0.28418263  0.62755524  1.0
  H  H9  1  0.16207297  0.71581602  0.12755507  1.0
  H  H10  1  0.28418533  0.83792495  0.37244834  1.0
  H  H11  1  0.71581298  0.16207544  0.87244575  1.0
  H  H12  1  0.52029457  0.00014383  0.80651174  1.0
  H  H13  1  0.47970850  0.99985601  0.30650905  1.0
  H  H14  1  0.00014551  0.52029327  0.19349087  1.0
  H  H15  1  0.99985509  0.47971254  0.69348784  1.0
  H  H16  1  0.53948104  0.95051883  0.10568366  1.0
  H  H17  1  0.46051774  0.04948069  0.60568145  1.0
  H  H18  1  0.95052076  0.53948076  0.89431879  1.0
  H  H19  1  0.04948098  0.46052289  0.39431558  1.0
  H  H20  1  0.41827145  0.27268176  0.99122598  1.0
  H  H21  1  0.58172951  0.72731835  0.49122672  1.0
  H  H22  1  0.27268297  0.41827363  0.00877400  1.0
  H  H23  1  0.72731787  0.58172212  0.50877138  1.0
  H  H24  1  0.37162307  0.77321597  0.62722710  1.0
  H  H25  1  0.62837321  0.22678263  0.12722729  1.0
  H  H26  1  0.77321724  0.37162646  0.37277150  1.0
  H  H27  1  0.22678244  0.62837559  0.87277150  1.0
  H  H28  1  0.67696852  0.46377438  0.63068132  1.0
  H  H29  1  0.32303098  0.53622345  0.13068201  1.0
  H  H30  1  0.46377801  0.67696683  0.36932290  1.0
  H  H31  1  0.53622206  0.32303442  0.86932167  1.0
  H  H32  1  0.20182547  0.57889946  0.62704475  1.0
  H  H33  1  0.79817446  0.42109594  0.12704453  1.0
  H  H34  1  0.57890192  0.20182703  0.37295426  1.0
  H  H35  1  0.42109710  0.79817338  0.87295525  1.0
  H  H36  1  0.62080746  0.13954886  0.62330628  1.0
  H  H37  1  0.37919496  0.86044741  0.12330643  1.0
  H  H38  1  0.13955209  0.62080507  0.37669209  1.0
  H  H39  1  0.86044878  0.37919292  0.87669118  1.0
  H  H40  1  0.19424365  0.76238480  0.62462398  1.0
  H  H41  1  0.80575415  0.23761057  0.12462154  1.0
  H  H42  1  0.76238890  0.19424521  0.37537660  1.0
  H  H43  1  0.23761078  0.80575683  0.87537807  1.0
  H  H44  1  0.81153333  0.11611994  0.62440838  1.0
  H  H45  1  0.18846904  0.88387795  0.12440687  1.0
  H  H46  1  0.11612271  0.81153004  0.37559229  1.0
  H  H47  1  0.88387673  0.18846792  0.87559125  1.0
  H  H48  1  0.41590857  0.23980910  0.15720532  1.0
  H  H49  1  0.58409122  0.76018947  0.65720600  1.0
  H  H50  1  0.23981088  0.41591031  0.84279267  1.0
  H  H51  1  0.76019075  0.58408778  0.34279060  1.0
  H  H52  1  0.46801137  0.11496841  0.20398361  1.0
  H  H53  1  0.53198650  0.88503245  0.70398401  1.0
  H  H54  1  0.11496748  0.46801514  0.79601670  1.0
  H  H55  1  0.88503347  0.53198470  0.29601446  1.0
  C  C56  1  0.46608319  0.60056292  0.62760007  1.0
  C  C57  1  0.53391523  0.39943571  0.12760064  1.0
  C  C58  1  0.60056574  0.46608415  0.37240017  1.0
  C  C59  1  0.39943433  0.53391709  0.87240141  1.0
  C  C60  1  0.75723802  0.28956616  0.62702065  1.0
  C  C61  1  0.24276253  0.71043251  0.12702028  1.0
  C  C62  1  0.28957055  0.75723560  0.37298245  1.0
  C  C63  1  0.71042776  0.24276479  0.87298171  1.0
  C  C64  1  0.42823445  0.21671015  0.80757948  1.0
  C  C65  1  0.57176791  0.78328968  0.30757866  1.0
  C  C66  1  0.21671167  0.42823487  0.19241924  1.0
  C  C67  1  0.78328902  0.57176769  0.69241930  1.0
  C  C68  1  0.50881669  0.03216092  0.87727459  1.0
  C  C69  1  0.49118664  0.96783791  0.37727337  1.0
  C  C70  1  0.03216234  0.50881520  0.12272655  1.0
  C  C71  1  0.96783695  0.49119079  0.62272427  1.0
  C  C72  1  0.46455089  0.14369118  0.89093117  1.0
  C  C73  1  0.53545028  0.85630758  0.39093231  1.0
  C  C74  1  0.14369362  0.46455196  0.10906766  1.0
  C  C75  1  0.85630682  0.53545164  0.60906484  1.0
  C  C76  1  0.52025730  0.00523143  0.04592526  1.0
  C  C77  1  0.47974372  0.99476829  0.54592403  1.0
  C  C78  1  0.00523217  0.52025639  0.95407523  1.0
  C  C79  1  0.99476909  0.47974789  0.45407357  1.0
  C  C80  1  0.46325122  0.50115525  0.62756450  1.0
  C  C81  1  0.53674758  0.49884258  0.12756333  1.0
  C  C82  1  0.50115765  0.46325118  0.37243815  1.0
  C  C83  1  0.49884132  0.53675086  0.87243841  1.0
  C  C84  1  0.48036697  0.11728155  0.06062879  1.0
  C  C85  1  0.51963436  0.88271894  0.56062573  1.0
  C  C86  1  0.11728168  0.48036759  0.93937358  1.0
  C  C87  1  0.88271899  0.51963347  0.43937139  1.0
  C  C88  1  0.45221156  0.18561271  0.98159953  1.0
  C  C89  1  0.54779089  0.81438582  0.48159937  1.0
  C  C90  1  0.18561512  0.45221146  0.01839991  1.0
  C  C91  1  0.81438595  0.54778833  0.51839717  1.0
  C  C92  1  0.36928707  0.69588602  0.62654397  1.0
  C  C93  1  0.63071106  0.30411017  0.12654390  1.0
  C  C94  1  0.69588970  0.36928854  0.37345627  1.0
  C  C95  1  0.30411108  0.63071270  0.87345744  1.0
  C  C96  1  0.66703706  0.39058334  0.62811452  1.0
  C  C97  1  0.33296244  0.60941450  0.12811353  1.0
  C  C98  1  0.39058752  0.66703505  0.37188856  1.0
  C  C99  1  0.60941188  0.33296455  0.87188849  1.0
  C  C100  1  0.56377778  0.39622652  0.62726391  1.0
  C  C101  1  0.43622283  0.60377052  0.12726336  1.0
  C  C102  1  0.39622950  0.56377810  0.37273806  1.0
  C  C103  1  0.60377132  0.43622152  0.87273907  1.0
  C  C104  1  0.27540275  0.58835243  0.62668794  1.0
  C  C105  1  0.72459610  0.41164377  0.12668655  1.0
  C  C106  1  0.58835544  0.27540339  0.37331292  1.0
  C  C107  1  0.41164534  0.72459786  0.87331418  1.0
  C  C108  1  0.63785098  0.20871513  0.62456053  1.0
  C  C109  1  0.36214924  0.79128273  0.12456026  1.0
  C  C110  1  0.20871844  0.63784901  0.37543968  1.0
  C  C111  1  0.79128276  0.36214979  0.87544042  1.0
  C  C112  1  0.27190272  0.69000025  0.62563171  1.0
  C  C113  1  0.72809579  0.30999513  0.12562994  1.0
  C  C114  1  0.69000322  0.27190559  0.37436955  1.0
  C  C115  1  0.30999789  0.72809647  0.87437038  1.0
  C  C116  1  0.57787125  0.84474454  0.93856294  1.0
  C  C117  1  0.42212553  0.15525564  0.43855833  1.0
  C  C118  1  0.84474234  0.57787609  0.06144112  1.0
  C  C119  1  0.15525708  0.42212844  0.56143920  1.0
  C  C120  1  0.53566847  0.96337497  0.95482499  1.0
  C  C121  1  0.46433151  0.03662441  0.45482417  1.0
  C  C122  1  0.96337613  0.53566907  0.04517603  1.0
  C  C123  1  0.03662471  0.46433716  0.54517359  1.0
  C  C124  1  0.74297501  0.19661859  0.62515957  1.0
  C  C125  1  0.25702522  0.80337926  0.12515884  1.0
  C  C126  1  0.19662100  0.74297285  0.37484106  1.0
  C  C127  1  0.80337839  0.25702673  0.87484142  1.0
  N  N128  1  0.47117668  0.16035074  0.14949685  1.0
  N  N129  1  0.52882341  0.83965030  0.64949531  1.0
  N  N130  1  0.16035022  0.47117855  0.85050401  1.0
  N  N131  1  0.83965064  0.52882113  0.35050191  1.0
  N  N132  1  0.36837550  0.49674605  0.62753030  1.0
  N  N133  1  0.63162405  0.50325016  0.12752955  1.0
  N  N134  1  0.49674730  0.36837630  0.37247126  1.0
  N  N135  1  0.50325130  0.63162654  0.87247048  1.0
  N  N136  1  0.55125543  0.30586628  0.62553176  1.0
  N  N137  1  0.44874518  0.69413077  0.12553157  1.0
  N  N138  1  0.30586886  0.55125375  0.37446842  1.0
  N  N139  1  0.69413197  0.44874587  0.87446984  1.0
  O  O140  1  0.38860674  0.31895257  0.81866353  1.0
  O  O141  1  0.61139312  0.68104637  0.31866365  1.0
  O  O142  1  0.31895462  0.38860853  0.18133500  1.0
  O  O143  1  0.68104537  0.61139405  0.68133381  1.0
  O  O144  1  0.43861812  0.17348396  0.72671778  1.0
  O  O145  1  0.56138294  0.82651607  0.22671614  1.0
  O  O146  1  0.17348632  0.43861802  0.27328314  1.0
  O  O147  1  0.82651676  0.56138354  0.77328172  1.0
  O  O148  1  0.57254856  0.78514115  0.00374141  1.0
  O  O149  1  0.42743704  0.21486413  0.50373873  1.0
  O  O150  1  0.78513405  0.57256536  0.99626145  1.0
  O  O151  1  0.21486587  0.42744612  0.49626140  1.0
  O  O152  1  0.61468064  0.80812792  0.85673272  1.0
  O  O153  1  0.38531883  0.19187009  0.35672668  1.0
  O  O154  1  0.80813016  0.61468158  0.14327344  1.0
  O  O155  1  0.19186780  0.38531945  0.64327084  1.0
