# generated using pymatgen
data_ZnH8C13(N3O)2
_symmetry_space_group_name_H-M   'P 1'
_cell_length_a   11.20084481
_cell_length_b   15.69863811
_cell_length_c   16.07493553
_cell_angle_alpha   115.02467444
_cell_angle_beta   102.63368238
_cell_angle_gamma   102.71754012
_symmetry_Int_Tables_number   1
_chemical_formula_structural   ZnH8C13(N3O)2
_chemical_formula_sum   'Zn6 H48 C78 N36 O12'
_cell_volume   2337.75424565
_cell_formula_units_Z   6
loop_
 _symmetry_equiv_pos_site_id
 _symmetry_equiv_pos_as_xyz
  1  'x, y, z'
loop_
 _atom_site_type_symbol
 _atom_site_label
 _atom_site_symmetry_multiplicity
 _atom_site_fract_x
 _atom_site_fract_y
 _atom_site_fract_z
 _atom_site_occupancy
  Zn  Zn0  1  0.24254057  0.57272457  0.39044513  1.0
  Zn  Zn1  1  0.75745998  0.42727583  0.60956098  1.0
  Zn  Zn2  1  0.40647874  0.88756608  0.79288439  1.0
  Zn  Zn3  1  0.59351869  0.11243938  0.20711673  1.0
  Zn  Zn4  1  0.80581604  0.29736639  0.92104756  1.0
  Zn  Zn5  1  0.19419477  0.70263051  0.07895121  1.0
  H  H6  1  0.76495554  0.78668640  0.65961731  1.0
  H  H7  1  0.23505607  0.21331735  0.34040485  1.0
  H  H8  1  0.93010301  0.72334788  0.60015423  1.0
  H  H9  1  0.06991066  0.27665199  0.39986859  1.0
  H  H10  1  0.61963124  0.45939635  0.35370708  1.0
  H  H11  1  0.38037394  0.54061628  0.64630070  1.0
  H  H12  1  0.45767870  0.52088029  0.41389831  1.0
  H  H13  1  0.54232782  0.47913606  0.58611027  1.0
  H  H14  1  0.08270404  0.67023180  0.52529124  1.0
  H  H15  1  0.91730292  0.32976956  0.47471488  1.0
  H  H16  1  0.96566724  0.39489306  0.26541860  1.0
  H  H17  1  0.03432128  0.60511110  0.73458104  1.0
  H  H18  1  0.69976918  0.95817931  0.92464749  1.0
  H  H19  1  0.30022339  0.04181852  0.07534331  1.0
  H  H20  1  0.87748996  0.89104098  0.91685875  1.0
  H  H21  1  0.12250537  0.10896039  0.08313793  1.0
  H  H22  1  0.97834424  0.01913485  0.73938090  1.0
  H  H23  1  0.02165722  0.98086613  0.26061723  1.0
  H  H24  1  0.80569544  0.09174463  0.75294323  1.0
  H  H25  1  0.19429529  0.90824623  0.24704381  1.0
  H  H26  1  0.16572939  0.97432399  0.75010117  1.0
  H  H27  1  0.83427273  0.02567955  0.24990427  1.0
  H  H28  1  0.22902284  0.78980426  0.87118380  1.0
  H  H29  1  0.77096607  0.21018946  0.12880911  1.0
  H  H30  1  0.24730854  0.48931438  0.07117495  1.0
  H  H31  1  0.75268331  0.51066827  0.92881484  1.0
  H  H32  1  0.41435192  0.42461974  0.01873246  1.0
  H  H33  1  0.58564238  0.57536489  0.98125664  1.0
  H  H34  1  0.70675419  0.64607948  0.30288416  1.0
  H  H35  1  0.29324521  0.35391373  0.69709782  1.0
  H  H36  1  0.53991620  0.71192783  0.35351011  1.0
  H  H37  1  0.46008000  0.28805609  0.64648116  1.0
  H  H38  1  0.56359532  0.34043146  0.98655348  1.0
  H  H39  1  0.43640674  0.65956141  0.01343432  1.0
  H  H40  1  0.96877567  0.50428711  0.12708102  1.0
  H  H41  1  0.03122342  0.49570906  0.87291411  1.0
  H  H42  1  0.13784745  0.16762664  0.89902331  1.0
  H  H43  1  0.86215026  0.83239226  0.10098387  1.0
  H  H44  1  0.34833791  0.14553309  0.95481834  1.0
  H  H45  1  0.65166021  0.85448315  0.04517787  1.0
  H  H46  1  0.41804967  0.36748749  0.25097390  1.0
  H  H47  1  0.58195630  0.63251051  0.74903217  1.0
  H  H48  1  0.76041137  0.40666956  0.30334213  1.0
  H  H49  1  0.23958838  0.59334126  0.69666781  1.0
  H  H50  1  0.03926576  0.82683906  0.90396340  1.0
  H  H51  1  0.96072452  0.17315610  0.09603244  1.0
  H  H52  1  0.85506915  0.61090911  0.22224132  1.0
  H  H53  1  0.14492202  0.38908598  0.77774652  1.0
  C  C54  1  0.73426686  0.71492097  0.59276668  1.0
  C  C55  1  0.26573770  0.28508238  0.40725403  1.0
  C  C56  1  0.82644887  0.67891855  0.55896606  1.0
  C  C57  1  0.17356199  0.32108794  0.44105833  1.0
  C  C58  1  0.78735507  0.58655307  0.47182796  1.0
  C  C59  1  0.21265857  0.41345556  0.52818848  1.0
  C  C60  1  0.65303452  0.53085498  0.42152720  1.0
  C  C61  1  0.34697708  0.46915817  0.57848859  1.0
  C  C62  1  0.56057692  0.56656989  0.45541663  1.0
  C  C63  1  0.43943157  0.43343936  0.54459254  1.0
  C  C64  1  0.59974248  0.65950213  0.54077570  1.0
  C  C65  1  0.40026602  0.34051025  0.45923935  1.0
  C  C66  1  0.50472213  0.69976867  0.57683488  1.0
  C  C67  1  0.49528274  0.30023841  0.42317644  1.0
  C  C68  1  0.88328745  0.55192962  0.43285743  1.0
  C  C69  1  0.11671798  0.44807302  0.56715527  1.0
  C  C70  1  0.01715835  0.59830158  0.46307016  1.0
  C  C71  1  0.98284138  0.40170256  0.53693602  1.0
  C  C72  1  0.96186966  0.45547877  0.32934588  1.0
  C  C73  1  0.03812593  0.54452578  0.67065522  1.0
  C  C74  1  0.76219611  0.97294683  0.88531340  1.0
  C  C75  1  0.23779876  0.02705323  0.11468035  1.0
  C  C76  1  0.86266968  0.93446443  0.88010746  1.0
  C  C77  1  0.13732540  0.06553687  0.11989067  1.0
  C  C78  1  0.94353541  0.95115708  0.82864470  1.0
  C  C79  1  0.05646717  0.04884529  0.17135781  1.0
  C  C80  1  0.91953527  0.00729046  0.78198667  1.0
  C  C81  1  0.08046359  0.99270629  0.21800993  1.0
  C  C82  1  0.82124830  0.04757047  0.78875826  1.0
  C  C83  1  0.17874856  0.95242605  0.21123397  1.0
  C  C84  1  0.74145645  0.03078786  0.84068345  1.0
  C  C85  1  0.25853791  0.96920831  0.15930732  1.0
  C  C86  1  0.63848776  0.07402652  0.84647213  1.0
  C  C87  1  0.36150973  0.92597235  0.15351941  1.0
  C  C88  1  0.05074915  0.91316101  0.82324364  1.0
  C  C89  1  0.94925230  0.08684245  0.17676034  1.0
  C  C90  1  0.14758657  0.92899474  0.78457109  1.0
  C  C91  1  0.85241145  0.07100758  0.21543142  1.0
  C  C92  1  0.18491693  0.83376711  0.84645343  1.0
  C  C93  1  0.81507598  0.16622752  0.15354022  1.0
  C  C94  1  0.34869960  0.52522089  0.12107617  1.0
  C  C95  1  0.65129416  0.47476817  0.87891156  1.0
  C  C96  1  0.44300248  0.48806053  0.09212851  1.0
  C  C97  1  0.55698815  0.51192647  0.90785845  1.0
  C  C98  1  0.57431137  0.53126416  0.15563728  1.0
  C  C99  1  0.42568028  0.46872436  0.84434389  1.0
  C  C100  1  0.60698516  0.61216377  0.25033180  1.0
  C  C101  1  0.39300930  0.38782418  0.74965155  1.0
  C  C102  1  0.51241016  0.64915741  0.27981339  1.0
  C  C103  1  0.48758905  0.35083119  0.72017433  1.0
  C  C104  1  0.38231731  0.60686449  0.21521472  1.0
  C  C105  1  0.61768021  0.39311894  0.78477945  1.0
  C  C106  1  0.67056508  0.49141460  0.12096674  1.0
  C  C107  1  0.32943281  0.50858409  0.87901971  1.0
  C  C108  1  0.65299715  0.40228891  0.04020436  1.0
  C  C109  1  0.34700353  0.59770499  0.95978636  1.0
  C  C110  1  0.86398817  0.48447254  0.10917698  1.0
  C  C111  1  0.13601134  0.51552053  0.89081518  1.0
  C  C112  1  0.28274732  0.64751154  0.24455092  1.0
  C  C113  1  0.71725292  0.35247457  0.75544112  1.0
  C  C114  1  0.19972794  0.21093656  0.97629151  1.0
  C  C115  1  0.80027293  0.78907608  0.02371482  1.0
  C  C116  1  0.31779106  0.19865742  0.00763722  1.0
  C  C117  1  0.68221261  0.80135509  0.99236329  1.0
  C  C118  1  0.39724572  0.25513567  0.10702534  1.0
  C  C119  1  0.60275873  0.74487182  0.89297508  1.0
  C  C120  1  0.35687130  0.32279440  0.17382647  1.0
  C  C121  1  0.64313136  0.67720762  0.82617822  1.0
  C  C122  1  0.23658667  0.33268980  0.14361457  1.0
  C  C123  1  0.76341225  0.66731158  0.85639592  1.0
  C  C124  1  0.15664318  0.27586617  0.04385615  1.0
  C  C125  1  0.84335800  0.72413907  0.95615514  1.0
  C  C126  1  0.02039769  0.27500698  0.00924293  1.0
  C  C127  1  0.97960080  0.72499730  0.99076253  1.0
  C  C128  1  0.19802082  0.40905850  0.21550798  1.0
  C  C129  1  0.80197852  0.59093933  0.78450754  1.0
  C  C130  1  0.51996397  0.23977749  0.14584241  1.0
  C  C131  1  0.48003165  0.76022230  0.85415497  1.0
  N  N132  1  0.37357374  0.66580504  0.52748127  1.0
  N  N133  1  0.62643537  0.33420280  0.47252134  1.0
  N  N134  1  0.32364692  0.72465137  0.58707973  1.0
  N  N135  1  0.67635805  0.27535396  0.41291992  1.0
  N  N136  1  0.42193881  0.79107697  0.66882435  1.0
  N  N137  1  0.57806112  0.20892885  0.33117822  1.0
  N  N138  1  0.53576307  0.77862458  0.66615433  1.0
  N  N139  1  0.46423985  0.22138419  0.33385266  1.0
  N  N140  1  0.06426787  0.53776969  0.39803404  1.0
  N  N141  1  0.93573026  0.46223358  0.60197067  1.0
  N  N142  1  0.85186865  0.46139925  0.34817522  1.0
  N  N143  1  0.14812565  0.53860664  0.65183100  1.0
  N  N144  1  0.51247018  0.02621589  0.82897297  1.0
  N  N145  1  0.48752568  0.97378689  0.17102082  1.0
  N  N146  1  0.44967783  0.09243601  0.83655955  1.0
  N  N147  1  0.55032187  0.90756835  0.16343063  1.0
  N  N148  1  0.53330550  0.17741282  0.85843857  1.0
  N  N149  1  0.46669647  0.82258935  0.14154867  1.0
  N  N150  1  0.65253031  0.16859543  0.86562324  1.0
  N  N151  1  0.34747226  0.83140425  0.13436540  1.0
  N  N152  1  0.23001255  0.87924225  0.79967026  1.0
  N  N153  1  0.76998462  0.12075647  0.20032855  1.0
  N  N154  1  0.07783120  0.85227504  0.86125965  1.0
  N  N155  1  0.92216436  0.14772217  0.13873768  1.0
  N  N156  1  0.24938344  0.65740356  0.32288365  1.0
  N  N157  1  0.75061820  0.34258528  0.67711134  1.0
  N  N158  1  0.15484425  0.69880072  0.32285650  1.0
  N  N159  1  0.84516600  0.30119706  0.67714302  1.0
  N  N160  1  0.13123757  0.71375823  0.24819273  1.0
  N  N161  1  0.86877723  0.28624498  0.75181052  1.0
  N  N162  1  0.20936505  0.68161292  0.19701298  1.0
  N  N163  1  0.79064575  0.31838334  0.80298578  1.0
  N  N164  1  0.77311728  0.39930051  0.03371886  1.0
  N  N165  1  0.22688508  0.60069391  0.96627550  1.0
  N  N166  1  0.80554294  0.54123574  0.16306669  1.0
  N  N167  1  0.19445469  0.45875869  0.83692332  1.0
  O  O168  1  0.10313368  0.43124235  0.18540881  1.0
  O  O169  1  0.89685301  0.56874749  0.81460730  1.0
  O  O170  1  0.27123270  0.45102706  0.30739211  1.0
  O  O171  1  0.72876403  0.54896591  0.69262187  1.0
  O  O172  1  0.99600108  0.31782645  0.95819677  1.0
  O  O173  1  0.00400843  0.68218324  0.04181460  1.0
  O  O174  1  0.93294319  0.22472406  0.02518770  1.0
  O  O175  1  0.06704891  0.77526825  0.97480227  1.0
  O  O176  1  0.51275283  0.14676258  0.10843801  1.0
  O  O177  1  0.48723945  0.85323638  0.89156008  1.0
  O  O178  1  0.61772978  0.31340222  0.21339629  1.0
  O  O179  1  0.38226833  0.68659436  0.78660467  1.0
