# generated using pymatgen
data_ZnH10C31N4Cl6O13
_symmetry_space_group_name_H-M   'P 1'
_cell_length_a   16.16422938
_cell_length_b   16.73322234
_cell_length_c   27.53673637
_cell_angle_alpha   88.48403846
_cell_angle_beta   88.57386181
_cell_angle_gamma   86.43580977
_symmetry_Int_Tables_number   1
_chemical_formula_structural   ZnH10C31N4Cl6O13
_chemical_formula_sum   'Zn2 H20 C62 N8 Cl12 O26'
_cell_volume   7429.10161463
_cell_formula_units_Z   2
loop_
 _symmetry_equiv_pos_site_id
 _symmetry_equiv_pos_as_xyz
  1  'x, y, z'
loop_
 _atom_site_type_symbol
 _atom_site_label
 _atom_site_symmetry_multiplicity
 _atom_site_fract_x
 _atom_site_fract_y
 _atom_site_fract_z
 _atom_site_occupancy
  Zn  Zn0  1  0.58956414  0.51099620  0.50198387  1.0
  Zn  Zn1  1  0.41044090  0.48900378  0.49801361  1.0
  H  H2  1  0.61868185  0.26825135  0.45402463  1.0
  H  H3  1  0.38132548  0.73173245  0.54597449  1.0
  H  H4  1  0.12704359  0.42580548  0.57026056  1.0
  H  H5  1  0.87296193  0.57423576  0.42974904  1.0
  H  H6  1  0.31747412  0.41047084  0.96984976  1.0
  H  H7  1  0.68243737  0.58976201  0.03015862  1.0
  H  H8  1  0.54244092  0.37399499  0.67713129  1.0
  H  H9  1  0.45762662  0.62610250  0.32289361  1.0
  H  H10  1  0.55129872  0.96704031  0.44080274  1.0
  H  H11  1  0.44877869  0.03292304  0.55921990  1.0
  H  H12  1  0.26506396  0.37879058  0.58814644  1.0
  H  H13  1  0.73493237  0.62122014  0.41185828  1.0
  H  H14  1  0.59569657  0.27158630  0.34175082  1.0
  H  H15  1  0.40430501  0.72848460  0.65820214  1.0
  H  H16  1  0.54741299  0.28873530  0.24032841  1.0
  H  H17  1  0.45259153  0.71136728  0.75963677  1.0
  H  H18  1  0.31283912  0.31960023  0.05697121  1.0
  H  H19  1  0.68716666  0.68051190  0.94299853  1.0
  H  H20  1  0.56411286  0.80262822  0.39081774  1.0
  H  H21  1  0.43588948  0.19736576  0.60918168  1.0
  C  C22  1  0.53544706  0.35210659  0.52180464  1.0
  C  C23  1  0.46451597  0.64788205  0.47818058  1.0
  C  C24  1  0.47076440  0.54126019  0.89948369  1.0
  C  C25  1  0.52919398  0.45890688  0.10051108  1.0
  C  C26  1  0.40572357  0.50716589  0.87436039  1.0
  C  C27  1  0.59422320  0.49301795  0.12563287  1.0
  C  C28  1  0.35012846  0.46264413  0.90177750  1.0
  C  C29  1  0.64977512  0.53759593  0.09822545  1.0
  C  C30  1  0.51984401  0.59739690  0.87395407  1.0
  C  C31  1  0.48015108  0.40271818  0.12602343  1.0
  C  C32  1  0.47021908  0.54760769  0.64417982  1.0
  C  C33  1  0.52981663  0.45245403  0.35581195  1.0
  C  C34  1  0.44678548  0.44611184  0.02614734  1.0
  C  C35  1  0.55318401  0.55405529  0.97383709  1.0
  C  C36  1  0.56875586  0.53007167  0.02450520  1.0
  C  C37  1  0.43118801  0.47011877  0.97548656  1.0
  C  C38  1  0.51420110  0.47823419  0.05029769  1.0
  C  C39  1  0.48576608  0.52193052  0.94969225  1.0
  C  C40  1  0.39931891  0.39070214  0.05249596  1.0
  C  C41  1  0.60066815  0.60944168  0.94748235  1.0
  C  C42  1  0.41760339  0.36872592  0.10133063  1.0
  C  C43  1  0.58241112  0.63137545  0.89863767  1.0
  C  C44  1  0.47329557  0.53757282  0.58983519  1.0
  C  C45  1  0.52674962  0.46246673  0.41015965  1.0
  C  C46  1  0.36282104  0.44551158  0.95107222  1.0
  C  C47  1  0.63710625  0.55469620  0.04892355  1.0
  C  C48  1  0.54324926  0.26239372  0.51963616  1.0
  C  C49  1  0.45674886  0.73759847  0.48036081  1.0
  C  C50  1  0.50058477  0.21349511  0.55217207  1.0
  C  C51  1  0.49942949  0.78648688  0.44783023  1.0
  C  C52  1  0.49496279  0.13205113  0.54216209  1.0
  C  C53  1  0.50508551  0.86792181  0.45785433  1.0
  C  C54  1  0.53210685  0.09903163  0.49916551  1.0
  C  C55  1  0.46795527  0.90093831  0.50085364  1.0
  C  C56  1  0.57920183  0.14952004  0.46831508  1.0
  C  C57  1  0.42084690  0.85045590  0.53170020  1.0
  C  C58  1  0.58516487  0.22915401  0.47868327  1.0
  C  C59  1  0.41484792  0.77083157  0.52131865  1.0
  C  C60  1  0.23465970  0.51292071  0.45668578  1.0
  C  C61  1  0.76535108  0.48708644  0.54331441  1.0
  C  C62  1  0.14796260  0.52588947  0.46152104  1.0
  C  C63  1  0.85204991  0.47413921  0.53848536  1.0
  C  C64  1  0.10964501  0.49401324  0.50368101  1.0
  C  C65  1  0.89036754  0.50602442  0.49632708  1.0
  C  C66  1  0.40108731  0.51487868  0.82099654  1.0
  C  C67  1  0.59883343  0.48530575  0.17899495  1.0
  C  C68  1  0.15714227  0.45049419  0.53786943  1.0
  C  C69  1  0.84286556  0.54953988  0.46213733  1.0
  C  C70  1  0.24234309  0.43895913  0.52910160  1.0
  C  C71  1  0.75766272  0.56105818  0.47090288  1.0
  C  C72  1  0.50433632  0.61806283  0.82241749  1.0
  C  C73  1  0.49566450  0.38204986  0.17755995  1.0
  C  C74  1  0.44072200  0.62723019  0.71607060  1.0
  C  C75  1  0.55926962  0.37286212  0.28390945  1.0
  C  C76  1  0.44236205  0.61946802  0.66521224  1.0
  C  C77  1  0.55764457  0.38060274  0.33476678  1.0
  C  C78  1  0.49925467  0.48295563  0.67396319  1.0
  C  C79  1  0.50076329  0.51712278  0.32604061  1.0
  C  C80  1  0.49712662  0.49023500  0.72446483  1.0
  C  C81  1  0.50286384  0.50985718  0.27553884  1.0
  C  C82  1  0.46603228  0.56182793  0.74573696  1.0
  C  C83  1  0.53394339  0.43827211  0.25425121  1.0
  N  N84  1  0.45946385  0.56443957  0.79772223  1.0
  N  N85  1  0.54050335  0.43568622  0.20226500  1.0
  N  N86  1  0.52252633  0.02162508  0.48567816  1.0
  N  N87  1  0.47754865  0.97833766  0.51434562  1.0
  N  N88  1  0.28068785  0.47228494  0.49029743  1.0
  N  N89  1  0.71932204  0.52771683  0.50970249  1.0
  N  N90  1  0.02445440  0.50773657  0.51629385  1.0
  N  N91  1  0.97556055  0.49231187  0.48371513  1.0
  Cl  Cl92  1  0.62718468  0.11094403  0.41623070  1.0
  Cl  Cl93  1  0.37289123  0.88902350  0.58379227  1.0
  Cl  Cl94  1  0.71535407  0.45230832  0.59388773  1.0
  Cl  Cl95  1  0.28465903  0.54767193  0.40610518  1.0
  Cl  Cl96  1  0.90651379  0.41819566  0.58136165  1.0
  Cl  Cl97  1  0.09350630  0.58184022  0.41864453  1.0
  Cl  Cl98  1  0.53523718  0.40928451  0.75967131  1.0
  Cl  Cl99  1  0.46472233  0.59081832  0.24035121  1.0
  Cl  Cl100  1  0.26302242  0.42528169  0.87865404  1.0
  Cl  Cl101  1  0.73684170  0.57501455  0.12136618  1.0
  Cl  Cl102  1  0.35424774  0.29939835  0.12780331  1.0
  Cl  Cl103  1  0.64582041  0.70063844  0.87215235  1.0
  O  O104  1  0.60120009  0.38973740  0.51819459  1.0
  O  O105  1  0.39875446  0.61026904  0.48181956  1.0
  O  O106  1  0.46136177  0.38163495  0.52356273  1.0
  O  O107  1  0.53858923  0.61832805  0.47640125  1.0
  O  O108  1  0.54445671  0.54143803  0.56969689  1.0
  O  O109  1  0.45558767  0.45863327  0.43029570  1.0
  O  O110  1  0.40566958  0.52482654  0.57010328  1.0
  O  O111  1  0.59438907  0.47515789  0.42989503  1.0
  O  O112  1  0.35302770  0.48066871  0.79627364  1.0
  O  O113  1  0.64686975  0.51954142  0.20372547  1.0
  O  O114  1  0.46923249  0.32231684  0.19905159  1.0
  O  O115  1  0.53079969  0.67776958  0.80091447  1.0
  O  O116  1  0.52939191  0.41483964  0.65193268  1.0
  O  O117  1  0.47065716  0.58523692  0.34808410  1.0
  O  O118  1  0.54971150  0.91130428  0.42583298  1.0
  O  O119  1  0.45036016  0.08866204  0.57419189  1.0
  O  O120  1  0.29337112  0.39440077  0.55808597  1.0
  O  O121  1  0.70663013  0.60561054  0.44192012  1.0
  O  O122  1  0.58253953  0.31641166  0.36341451  1.0
  O  O123  1  0.41747227  0.68364539  0.63655300  1.0
  O  O124  1  0.58660459  0.29958269  0.26624327  1.0
  O  O125  1  0.41338635  0.70051984  0.73372901  1.0
  O  O126  1  0.33576199  0.35615850  0.03198811  1.0
  O  O127  1  0.66423041  0.64397933  0.96799129  1.0
  O  O128  1  0.53785137  0.75731975  0.40675463  1.0
  O  O129  1  0.46213923  0.24267366  0.59323772  1.0
