# generated using pymatgen
data_MgH6C12N2O3
_symmetry_space_group_name_H-M   'P 1'
_cell_length_a   6.86785810
_cell_length_b   33.29880996
_cell_length_c   33.30641879
_cell_angle_alpha   119.51875843
_cell_angle_beta   93.91779613
_cell_angle_gamma   93.95854174
_symmetry_Int_Tables_number   1
_chemical_formula_structural   MgH6C12N2O3
_chemical_formula_sum   'Mg6 H36 C72 N12 O18'
_cell_volume   6566.25922174
_cell_formula_units_Z   6
loop_
 _symmetry_equiv_pos_site_id
 _symmetry_equiv_pos_as_xyz
  1  'x, y, z'
loop_
 _atom_site_type_symbol
 _atom_site_label
 _atom_site_symmetry_multiplicity
 _atom_site_fract_x
 _atom_site_fract_y
 _atom_site_fract_z
 _atom_site_occupancy
  Mg  Mg0  1  0.74290336  0.69254581  0.32377601  1.0
  Mg  Mg1  1  0.05049774  0.63115991  0.30742998  1.0
  Mg  Mg2  1  0.41902494  0.67621903  0.36880023  1.0
  Mg  Mg3  1  0.32900725  0.30447786  0.67136334  1.0
  Mg  Mg4  1  0.02460890  0.36682401  0.69546751  1.0
  Mg  Mg5  1  0.65772770  0.32861394  0.63311177  1.0
  H  H6  1  0.80490222  0.43238987  0.82736096  1.0
  H  H7  1  0.37238110  0.39504795  0.56751077  1.0
  H  H8  1  0.97690945  0.17251146  0.60513603  1.0
  H  H9  1  0.62712328  0.46037166  0.89779795  1.0
  H  H10  1  0.16635805  0.43739725  0.53946976  1.0
  H  H11  1  0.72854029  0.10210949  0.56276967  1.0
  H  H12  1  0.08504233  0.39015612  0.80871397  1.0
  H  H13  1  0.69475857  0.41840212  0.60975735  1.0
  H  H14  1  0.27597055  0.19131059  0.58155861  1.0
  H  H15  1  0.45066634  0.52947759  0.01117538  1.0
  H  H16  1  0.92038860  0.48180830  0.47051257  1.0
  H  H17  1  0.43872492  0.98858300  0.51812491  1.0
  H  H18  1  0.28924643  0.56401157  0.08472166  1.0
  H  H19  1  0.72401086  0.52079715  0.43603454  1.0
  H  H20  1  0.20337278  0.91511152  0.47909629  1.0
  H  H21  1  0.43517846  0.51329001  0.10791252  1.0
  H  H22  1  0.92122745  0.59482885  0.48694542  1.0
  H  H23  1  0.32612523  0.89210149  0.40521604  1.0
  H  H24  1  0.26662432  0.54903578  0.18008306  1.0
  H  H25  1  0.71687431  0.63112991  0.45105152  1.0
  H  H26  1  0.08562797  0.81987297  0.36882933  1.0
  H  H27  1  0.97606012  0.59759317  0.18704010  1.0
  H  H28  1  0.37788709  0.58955150  0.40257446  1.0
  H  H29  1  0.78797108  0.81299844  0.41045183  1.0
  H  H30  1  0.69176169  0.46188629  0.04732450  1.0
  H  H31  1  0.22937218  0.58548332  0.53834297  1.0
  H  H32  1  0.64477474  0.95268496  0.41425690  1.0
  H  H33  1  0.53401268  0.39057603  0.97783249  1.0
  H  H34  1  0.14383830  0.58742046  0.60979074  1.0
  H  H35  1  0.55709986  0.02225349  0.41247233  1.0
  H  H36  1  0.68951214  0.35806096  0.90389927  1.0
  H  H37  1  0.33188553  0.54589201  0.64215659  1.0
  H  H38  1  0.78610470  0.09624193  0.45419472  1.0
  H  H39  1  0.00139125  0.39738013  0.90101700  1.0
  H  H40  1  0.60369330  0.50354002  0.60263897  1.0
  H  H41  1  0.10024664  0.09907399  0.49652832  1.0
  C  C42  1  0.66487912  0.38057143  0.73913183  1.0
  C  C43  1  0.28431208  0.35856575  0.61936481  1.0
  C  C44  1  0.92554703  0.26077854  0.64141234  1.0
  C  C45  1  0.54847024  0.39442864  0.77850164  1.0
  C  C46  1  0.15413585  0.38410020  0.60550897  1.0
  C  C47  1  0.76968089  0.22141480  0.61592227  1.0
  C  C48  1  0.64693572  0.42301263  0.82393490  1.0
  C  C49  1  0.22382415  0.40097775  0.57690523  1.0
  C  C50  1  0.82247459  0.17595574  0.59912976  1.0
  C  C51  1  0.54997809  0.43897410  0.86298111  1.0
  C  C52  1  0.11074274  0.42399786  0.56090326  1.0
  C  C53  1  0.68635203  0.13693827  0.57612924  1.0
  C  C54  1  0.34454739  0.42702899  0.85692659  1.0
  C  C55  1  0.91729963  0.42985454  0.57288163  1.0
  C  C56  1  0.48705695  0.14300826  0.57020236  1.0
  C  C57  1  0.24346538  0.39893702  0.81254067  1.0
  C  C58  1  0.84449373  0.41353532  0.60099380  1.0
  C  C59  1  0.43053762  0.18743151  0.58647697  1.0
  C  C60  1  0.34084621  0.38111436  0.77244516  1.0
  C  C61  1  0.95989592  0.39131391  0.61883653  1.0
  C  C62  1  0.56819001  0.22750227  0.60870360  1.0
  C  C63  1  0.21192770  0.47632309  0.97157947  1.0
  C  C64  1  0.73504166  0.49530037  0.52370431  1.0
  C  C65  1  0.23996410  0.02832601  0.50467737  1.0
  C  C66  1  0.30677348  0.51450242  0.01248391  1.0
  C  C67  1  0.79150999  0.49807077  0.48552024  1.0
  C  C68  1  0.29358700  0.98735285  0.50188634  1.0
  C  C69  1  0.21822709  0.53334191  0.05324618  1.0
  C  C70  1  0.68378955  0.51996327  0.46670191  1.0
  C  C71  1  0.16410211  0.94661254  0.47991969  1.0
  C  C72  1  0.03408937  0.51404736  0.05515261  1.0
  C  C73  1  0.51910026  0.54117111  0.48606654  1.0
  C  C74  1  0.97832718  0.94478304  0.45869502  1.0
  C  C75  1  0.71367075  0.55362735  0.14338312  1.0
  C  C76  1  0.15938603  0.58991130  0.44657609  1.0
  C  C77  1  0.56926321  0.85664750  0.41011878  1.0
  C  C78  1  0.51352580  0.53938431  0.14129237  1.0
  C  C79  1  0.97349697  0.60207764  0.46081594  1.0
  C  C80  1  0.37121385  0.85872915  0.39796162  1.0
  C  C81  1  0.42197106  0.55905107  0.18112142  1.0
  C  C82  1  0.86223809  0.62215836  0.44106174  1.0
  C  C83  1  0.23991973  0.81887411  0.37781432  1.0
  C  C84  1  0.52482779  0.59313757  0.22400948  1.0
  C  C85  1  0.93109816  0.63089358  0.40692426  1.0
  C  C86  1  0.30007567  0.77599750  0.36904232  1.0
  C  C87  1  0.41090315  0.61242490  0.26404890  1.0
  C  C88  1  0.79800403  0.65155622  0.38754471  1.0
  C  C89  1  0.14638370  0.73593165  0.34833680  1.0
  C  C90  1  0.73073916  0.60728768  0.22683005  1.0
  C  C91  1  0.12289825  0.61957882  0.39279396  1.0
  C  C92  1  0.50303170  0.77317288  0.38038661  1.0
  C  C93  1  0.82123228  0.58682334  0.18567791  1.0
  C  C94  1  0.23377680  0.59894550  0.41332096  1.0
  C  C95  1  0.63450570  0.81434528  0.40104706  1.0
  C  C96  1  0.93695903  0.47208543  0.01482952  1.0
  C  C97  1  0.46424938  0.54280355  0.52806103  1.0
  C  C98  1  0.92204975  0.98515861  0.45707290  1.0
  C  C99  1  0.75970998  0.44791645  0.01537208  1.0
  C  C100  1  0.31144237  0.56752374  0.55231322  1.0
  C  C101  1  0.74465314  0.98464636  0.43230453  1.0
  C  C102  1  0.67131148  0.40797154  0.97622842  1.0
  C  C103  1  0.26344107  0.56835343  0.59230887  1.0
  C  C104  1  0.69565063  0.02384478  0.43156591  1.0
  C  C105  1  0.75858500  0.38971241  0.93476743  1.0
  C  C106  1  0.36905838  0.54509967  0.61048660  1.0
  C  C107  1  0.82416384  0.06533382  0.45494258  1.0
  C  C108  1  0.93367145  0.41157663  0.93303705  1.0
  C  C109  1  0.52190394  0.52144417  0.58851512  1.0
  C  C110  1  0.00066872  0.06702536  0.47859047  1.0
  C  C111  1  0.02712653  0.45310645  0.97218030  1.0
  C  C112  1  0.57354927  0.51910672  0.54698187  1.0
  C  C113  1  0.05481525  0.02780273  0.48084953  1.0
  N  N114  1  0.22486340  0.44102452  0.89332568  1.0
  N  N115  1  0.78342263  0.45221571  0.55888775  1.0
  N  N116  1  0.33104461  0.10659372  0.54781331  1.0
  N  N117  1  0.31882695  0.46376099  0.93384027  1.0
  N  N118  1  0.85459177  0.47012104  0.53623043  1.0
  N  N119  1  0.38453540  0.06606061  0.52990280  1.0
  N  N120  1  0.96747372  0.53795875  0.09886166  1.0
  N  N121  1  0.42855939  0.56096805  0.46216494  1.0
  N  N122  1  0.86765246  0.90111251  0.43891889  1.0
  N  N123  1  0.78321546  0.53198409  0.09957752  1.0
  N  N124  1  0.25049272  0.56779744  0.46828247  1.0
  N  N125  1  0.68271889  0.90045203  0.43223636  1.0
  O  O126  1  0.23170196  0.59685636  0.25990981  1.0
  O  O127  1  0.63431016  0.66297925  0.40307680  1.0
  O  O128  1  0.97133523  0.74002447  0.33686971  1.0
  O  O129  1  0.49625251  0.64603420  0.30344733  1.0
  O  O130  1  0.85000897  0.65732031  0.35392535  1.0
  O  O131  1  0.19253060  0.69656179  0.34263538  1.0
  O  O132  1  0.83885096  0.63900804  0.26675238  1.0
  O  O133  1  0.19930755  0.62770270  0.36099849  1.0
  O  O134  1  0.57136766  0.73326229  0.37224902  1.0
  O  O135  1  0.84530773  0.39635995  0.74535253  1.0
  O  O136  1  0.44892272  0.34897561  0.60355327  1.0
  O  O137  1  0.09966204  0.25454811  0.65101991  1.0
  O  O138  1  0.57902185  0.35160157  0.69772906  1.0
  O  O139  1  0.22740001  0.34610910  0.64833519  1.0
  O  O140  1  0.88124233  0.30220289  0.65382593  1.0
  O  O141  1  0.23458403  0.35300135  0.73108064  1.0
  O  O142  1  0.88174265  0.37805083  0.64696060  1.0
  O  O143  1  0.50334222  0.26888095  0.62193450  1.0
