# generated using pymatgen
data_Al3H43C60(N3O7)2
_symmetry_space_group_name_H-M   'P 1'
_cell_length_a   12.68987343
_cell_length_b   12.70194900
_cell_length_c   26.87561745
_cell_angle_alpha   89.99357168
_cell_angle_beta   89.90488957
_cell_angle_gamma   119.93529882
_symmetry_Int_Tables_number   1
_chemical_formula_structural   Al3H43C60(N3O7)2
_chemical_formula_sum   'Al6 H86 C120 N12 O28'
_cell_volume   3754.03798057
_cell_formula_units_Z   2
loop_
 _symmetry_equiv_pos_site_id
 _symmetry_equiv_pos_as_xyz
  1  'x, y, z'
loop_
 _atom_site_type_symbol
 _atom_site_label
 _atom_site_symmetry_multiplicity
 _atom_site_fract_x
 _atom_site_fract_y
 _atom_site_fract_z
 _atom_site_occupancy
  Al  Al0  1  0.23454061  0.76805531  0.74935902  1.0
  Al  Al1  1  0.47641522  0.74755788  0.74959397  1.0
  Al  Al2  1  0.23683350  0.51651787  0.74973403  1.0
  Al  Al3  1  0.46983617  0.23007857  0.24907224  1.0
  Al  Al4  1  0.73364433  0.25557095  0.25016865  1.0
  Al  Al5  1  0.72060033  0.48454877  0.24967000  1.0
  H  H6  1  0.62869702  0.64602214  0.12923113  1.0
  H  H7  1  0.13445527  0.41178203  0.88719659  1.0
  H  H8  1  0.62394285  0.62901978  0.63568317  1.0
  H  H9  1  0.27804364  0.84589485  0.88773212  1.0
  H  H10  1  0.44524734  0.26105117  0.10499639  1.0
  H  H11  1  0.03094328  0.66570828  0.36133162  1.0
  H  H12  1  0.75035707  0.17245537  0.10963407  1.0
  H  H13  1  0.33188024  0.36770487  0.36667635  1.0
  H  H14  1  0.82190177  0.57818857  0.11013050  1.0
  H  H15  1  0.62327469  0.95393151  0.36388717  1.0
  H  H16  1  0.20271351  0.74996885  0.60264660  1.0
  H  H17  1  0.84288211  0.27997390  0.38236644  1.0
  H  H18  1  0.37716033  0.34581246  0.86130448  1.0
  H  H19  1  0.55075468  0.80562411  0.60826401  1.0
  H  H20  1  0.95612120  0.61936879  0.86500177  1.0
  H  H21  1  0.24081777  0.42017850  0.61101224  1.0
  H  H22  1  0.66386797  0.04711106  0.86311900  1.0
  H  H23  1  0.39131072  0.17724524  0.01900895  1.0
  H  H24  1  0.16692016  0.80191258  0.42826184  1.0
  H  H25  1  0.83448926  0.20307287  0.02341634  1.0
  H  H26  1  0.19228248  0.34339439  0.43642950  1.0
  H  H27  1  0.80025543  0.63770055  0.02504014  1.0
  H  H28  1  0.36479675  0.97813204  0.13342043  1.0
  H  H29  1  0.62607438  0.82224496  0.43335731  1.0
  H  H30  1  0.22852934  0.83276278  0.51650075  1.0
  H  H31  1  0.36850891  0.20792326  0.92979821  1.0
  H  H32  1  0.60078842  0.77064570  0.52260211  1.0
  H  H33  1  0.84231871  0.64648754  0.93495383  1.0
  H  H34  1  0.15923726  0.35318886  0.52620631  1.0
  H  H35  1  0.80310995  0.16582593  0.93326459  1.0
  H  H36  1  0.64051489  0.80308871  0.09573640  1.0
  H  H37  1  0.83834985  0.80176921  0.09026136  1.0
  H  H38  1  0.85067635  0.94810504  0.09542964  1.0
  H  H39  1  0.71709097  0.57743132  0.38694316  1.0
  H  H40  1  0.86588370  0.89360344  0.03642572  1.0
  H  H41  1  0.79872953  0.15770852  0.42792740  1.0
  H  H42  1  0.83090398  0.99804010  0.44498989  1.0
  H  H43  1  0.91164843  0.06923506  0.50040295  1.0
  H  H44  1  0.98144134  0.12586964  0.44145153  1.0
  H  H45  1  0.21212913  0.83282463  0.10097267  1.0
  H  H46  1  0.20637695  0.02735772  0.09401729  1.0
  H  H47  1  0.06262113  0.89149229  0.10209139  1.0
  H  H48  1  0.11001605  0.95686660  0.04189396  1.0
  H  H49  1  0.83861996  0.63940902  0.43488587  1.0
  H  H50  1  0.98604194  0.36072990  0.13503250  1.0
  H  H51  1  0.86891558  0.85049459  0.44630030  1.0
  H  H52  1  0.99867384  0.83304051  0.45651958  1.0
  H  H53  1  0.91282465  0.83827542  0.50802079  1.0
  H  H54  1  0.07960133  0.31444202  0.10770267  1.0
  H  H55  1  0.15896346  0.19459943  0.10151655  1.0
  H  H56  1  0.21456034  0.24682408  0.04015163  1.0
  H  H57  1  0.06047152  0.13159880  0.04932890  1.0
  H  H58  1  0.38030549  0.22815057  0.43707721  1.0
  H  H59  1  0.16948839  0.14624296  0.43232305  1.0
  H  H60  1  0.14774533  0.04008307  0.47995714  1.0
  H  H61  1  0.42502013  0.14301753  0.38360715  1.0
  H  H62  1  0.19622510  0.02363301  0.41931444  1.0
  H  H63  1  0.95613786  0.22707278  0.59531053  1.0
  H  H64  1  0.78291836  0.02972078  0.59116683  1.0
  H  H65  1  0.74284555  0.06892146  0.53334790  1.0
  H  H66  1  0.72874073  0.13549115  0.58924568  1.0
  H  H67  1  0.70366325  0.90771798  0.99087842  1.0
  H  H68  1  0.86588129  0.89475376  0.94265957  1.0
  H  H69  1  0.80703541  0.98091395  0.91344445  1.0
  H  H70  1  0.75736267  0.83012284  0.89390030  1.0
  H  H71  1  0.30236451  0.18319318  0.54099259  1.0
  H  H72  1  0.99830706  0.36707644  0.62829664  1.0
  H  H73  1  0.34469681  0.24479313  0.62723745  1.0
  H  H74  1  0.47815354  0.31179928  0.58925515  1.0
  H  H75  1  0.44615534  0.18693622  0.62866761  1.0
  H  H76  1  0.22848382  0.37920355  0.94613772  1.0
  H  H77  1  0.02450769  0.13304157  0.96634438  1.0
  H  H78  1  0.14890734  0.17570847  0.92502793  1.0
  H  H79  1  0.03137451  0.20883550  0.90961662  1.0
  H  H80  1  0.76650290  0.70955767  0.60448977  1.0
  H  H81  1  0.96240943  0.73912131  0.60068296  1.0
  H  H82  1  0.93669389  0.68069710  0.53873680  1.0
  H  H83  1  0.57018939  0.73251452  0.88404663  1.0
  H  H84  1  0.86536728  0.58041692  0.58944511  1.0
  H  H85  1  0.10210008  0.79103056  0.99465712  1.0
  H  H86  1  0.10222799  0.96154993  0.95079986  1.0
  H  H87  1  0.03635390  0.82629048  0.91395900  1.0
  H  H88  1  0.18790612  0.94249233  0.90281129  1.0
  H  H89  1  0.36708400  0.00788622  0.63085488  1.0
  H  H90  1  0.16410032  0.89628215  0.77750733  1.0
  H  H91  1  0.27184786  0.14301954  0.21816394  1.0
  C  C92  1  0.43963740  0.88936436  0.82011465  1.0
  C  C93  1  0.57463335  0.11535444  0.17834980  1.0
  C  C94  1  0.26950684  0.38763896  0.46174386  1.0
  C  C95  1  0.85294632  0.59842210  0.01017028  1.0
  C  C96  1  0.58691099  0.86146592  0.45835657  1.0
  C  C97  1  0.16816612  0.74162729  0.50234033  1.0
  C  C98  1  0.41075166  0.28544671  0.95506223  1.0
  C  C99  1  0.57222385  0.83218393  0.50770363  1.0
  C  C100  1  0.87630026  0.60326145  0.96039793  1.0
  C  C101  1  0.25117441  0.39381502  0.51136946  1.0
  C  C102  1  0.72540741  0.12673386  0.95863434  1.0
  C  C103  1  0.81652851  0.86670094  0.07201424  1.0
  C  C104  1  0.87339632  0.44299148  0.31806875  1.0
  C  C105  1  0.89434691  0.08552831  0.46195118  1.0
  C  C106  1  0.14145604  0.93878125  0.07724302  1.0
  C  C107  1  0.90680104  0.80594142  0.46966703  1.0
  C  C108  1  0.13619934  0.21592138  0.06488342  1.0
  C  C109  1  0.20474755  0.09010256  0.44790945  1.0
  C  C110  1  0.78442169  0.10385718  0.56966517  1.0
  C  C111  1  0.78338889  0.88986123  0.92643201  1.0
  C  C112  1  0.40472218  0.22530517  0.60445965  1.0
  C  C113  1  0.08675215  0.20412612  0.94045200  1.0
  C  C114  1  0.89466999  0.67249126  0.57513674  1.0
  C  C115  1  0.54684107  0.43001393  0.17530211  1.0
  C  C116  1  0.12034009  0.89454366  0.93205324  1.0
  C  C117  1  0.51518108  0.50718759  0.96759438  1.0
  C  C118  1  0.04918404  0.52135029  0.51760520  1.0
  C  C119  1  0.50388094  0.00927438  0.97157393  1.0
  C  C120  1  0.47242841  0.50905961  0.52567535  1.0
  C  C121  1  0.98512518  0.49022848  0.97304530  1.0
  C  C122  1  0.48120442  0.96161171  0.52224389  1.0
  C  C123  1  0.01196943  0.50350926  0.46713682  1.0
  C  C124  1  0.41124029  0.54566692  0.68026260  1.0
  C  C125  1  0.52298098  0.48910709  0.01928521  1.0
  C  C126  1  0.49280960  0.98812406  0.47060339  1.0
  C  C127  1  0.96002234  0.48376206  0.02479744  1.0
  C  C128  1  0.49140388  0.49834137  0.47432265  1.0
  C  C129  1  0.52217645  0.02923469  0.02351841  1.0
  C  C130  1  0.62995940  0.73050147  0.98094718  1.0
  C  C131  1  0.93748708  0.29722265  0.53083755  1.0
  C  C132  1  0.27991798  0.89797504  0.98553647  1.0
  C  C133  1  0.69690755  0.62950620  0.53857109  1.0
  C  C134  1  0.09000295  0.37109802  0.98706245  1.0
  C  C135  1  0.09945565  0.54512259  0.82021976  1.0
  C  C136  1  0.38427527  0.08861761  0.53472905  1.0
  C  C137  1  0.90311504  0.27929640  0.48077940  1.0
  C  C138  1  0.62976333  0.71231613  0.03200502  1.0
  C  C139  1  0.38618507  0.10457750  0.48352642  1.0
  C  C140  1  0.06574601  0.36380571  0.03800858  1.0
  C  C141  1  0.71534850  0.61813790  0.48789467  1.0
  C  C142  1  0.29827320  0.91189325  0.03656850  1.0
  C  C143  1  0.54111946  0.64211792  0.89854144  1.0
  C  C144  1  0.03277341  0.44070480  0.60118845  1.0
  C  C145  1  0.36823526  0.90678586  0.90241207  1.0
  C  C146  1  0.45010471  0.88099608  0.67798257  1.0
  C  C147  1  0.55100177  0.58084284  0.60888156  1.0
  C  C148  1  0.08143749  0.44949681  0.90313698  1.0
  C  C149  1  0.41611709  0.98083969  0.60544086  1.0
  C  C150  1  0.89907873  0.36921225  0.39891220  1.0
  C  C151  1  0.58415811  0.57061268  0.10317284  1.0
  C  C152  1  0.46104161  0.08951745  0.40042687  1.0
  C  C153  1  0.96715147  0.41337476  0.10811432  1.0
  C  C154  1  0.62735492  0.53769433  0.40406106  1.0
  C  C155  1  0.43999642  0.00630457  0.10728936  1.0
  C  C156  1  0.53556622  0.45245056  0.12168968  1.0
  C  C157  1  0.43813439  0.56676763  0.81812448  1.0
  C  C158  1  0.92985439  0.46979371  0.36823839  1.0
  C  C159  1  0.55821835  0.07506770  0.12574006  1.0
  C  C160  1  0.52727326  0.46999411  0.37301452  1.0
  C  C161  1  0.90613654  0.47119177  0.12696324  1.0
  C  C162  1  0.52959415  0.05646894  0.37017716  1.0
  C  C163  1  0.10051056  0.55864905  0.61975410  1.0
  C  C164  1  0.47123019  0.54145673  0.86801145  1.0
  C  C165  1  0.46411523  0.91098264  0.62425755  1.0
  C  C166  1  0.04952975  0.51749485  0.87191195  1.0
  C  C167  1  0.43227676  0.52542584  0.62766883  1.0
  C  C168  1  0.12481311  0.57815840  0.67405539  1.0
  C  C169  1  0.46849322  0.94264479  0.87090464  1.0
  C  C170  1  0.56508997  0.62740092  0.94815728  1.0
  C  C171  1  0.00665838  0.41898914  0.55027937  1.0
  C  C172  1  0.38325732  0.94041661  0.95247727  1.0
  C  C173  1  0.57438811  0.57370433  0.55824861  1.0
  C  C174  1  0.05145806  0.43502909  0.95412782  1.0
  C  C175  1  0.42858925  0.01230858  0.55499101  1.0
  C  C176  1  0.93565340  0.38277958  0.44883582  1.0
  C  C177  1  0.57724934  0.59163318  0.05223059  1.0
  C  C178  1  0.44457217  0.05988235  0.45106883  1.0
  C  C179  1  0.55565011  0.11002902  0.31945073  1.0
  C  C180  1  0.99853082  0.42079223  0.05772099  1.0
  C  C181  1  0.61271412  0.55077630  0.45521066  1.0
  C  C182  1  0.41923989  0.97926636  0.05647082  1.0
  C  C183  1  0.42909906  0.42340327  0.88574919  1.0
  C  C184  1  0.14848974  0.65868476  0.58759557  1.0
  C  C185  1  0.58659337  0.01810068  0.88822327  1.0
  C  C186  1  0.33279000  0.46103248  0.59612814  1.0
  C  C187  1  0.98066126  0.56741482  0.88999300  1.0
  C  C188  1  0.51674442  0.86228760  0.59280469  1.0
  C  C189  1  0.00532950  0.58797394  0.38574445  1.0
  C  C190  1  0.86534473  0.45189865  0.17958617  1.0
  C  C191  1  0.48120670  0.35214768  0.08971264  1.0
  C  C192  1  0.57354534  0.98251715  0.38836657  1.0
  C  C193  1  0.87182748  0.53595635  0.09525200  1.0
  C  C194  1  0.40871315  0.41972542  0.39145827  1.0
  C  C195  1  0.65930491  0.11820678  0.09427260  1.0
  C  C196  1  0.45219744  0.40469822  0.93514524  1.0
  C  C197  1  0.12441807  0.64142045  0.53639491  1.0
  C  C198  1  0.60584860  0.05311456  0.93844328  1.0
  C  C199  1  0.35134562  0.45390177  0.54503970  1.0
  C  C200  1  0.94625535  0.55293740  0.94026291  1.0
  C  C201  1  0.54979839  0.44500494  0.32099459  1.0
  C  C202  1  0.52225072  0.88333948  0.54145234  1.0
  C  C203  1  0.05037616  0.60579838  0.43463643  1.0
  C  C204  1  0.47577902  0.36890468  0.03840850  1.0
  C  C205  1  0.55122477  0.94342425  0.43819936  1.0
  C  C206  1  0.89509507  0.54029310  0.04406702  1.0
  C  C207  1  0.38952567  0.43628778  0.44163125  1.0
  C  C208  1  0.64265580  0.09815397  0.04281346  1.0
  C  C209  1  0.42306101  0.26841913  0.00438833  1.0
  C  C210  1  0.13309980  0.72453052  0.45363880  1.0
  C  C211  1  0.74298580  0.14745612  0.00862204  1.0
  N  N212  1  0.68627537  0.81712446  0.06302366  1.0
  N  N213  1  0.15771517  0.31816599  0.96749196  1.0
  N  N214  1  0.79373818  0.69651067  0.57072863  1.0
  N  N215  1  0.16260636  0.83456352  0.96646215  1.0
  N  N216  1  0.83888895  0.16214854  0.46106061  1.0
  N  N217  1  0.19426389  0.86082046  0.06814944  1.0
  N  N218  1  0.83316381  0.67371040  0.46826766  1.0
  N  N219  1  0.10297674  0.30897514  0.07228474  1.0
  N  N220  1  0.33011363  0.16923925  0.46470225  1.0
  N  N221  1  0.91016620  0.20016280  0.56269886  1.0
  N  N222  1  0.68353028  0.84794155  0.96213407  1.0
  N  N223  1  0.33256335  0.14051720  0.56465507  1.0
  O  O224  1  0.11823976  0.64240024  0.79986649  1.0
  O  O225  1  0.47363573  0.32513177  0.19188259  1.0
  O  O226  1  0.65505171  0.13109686  0.29762386  1.0
  O  O227  1  0.83503065  0.52598028  0.19839843  1.0
  O  O228  1  0.33350672  0.85710143  0.80472897  1.0
  O  O229  1  0.49320253  0.63982555  0.70248053  1.0
  O  O230  1  0.12606034  0.46765617  0.80049138  1.0
  O  O231  1  0.36442356  0.88089869  0.70177938  1.0
  O  O232  1  0.51347985  0.67101670  0.79939270  1.0
  O  O233  1  0.12020353  0.49078230  0.70034473  1.0
  O  O234  1  0.48004835  0.13774506  0.30234471  1.0
  O  O235  1  0.52681728  0.85231194  0.69668463  1.0
  O  O236  1  0.85610736  0.35933195  0.20238262  1.0
  O  O237  1  0.65199581  0.52518694  0.30106178  1.0
  O  O238  1  0.48958151  0.12318747  0.19913042  1.0
  O  O239  1  0.84620549  0.33892108  0.29978921  1.0
  O  O240  1  0.63228247  0.51590669  0.20102696  1.0
  O  O241  1  0.31687289  0.67617945  0.75001774  1.0
  O  O242  1  0.64333551  0.32483025  0.24949068  1.0
  O  O243  1  0.33737331  0.49028877  0.79828256  1.0
  O  O244  1  0.15169877  0.68131558  0.69094341  1.0
  O  O245  1  0.51900992  0.87356986  0.79640996  1.0
  O  O246  1  0.30767988  0.47047048  0.69970600  1.0
  O  O247  1  0.47273386  0.34703692  0.30063233  1.0
  O  O248  1  0.67872748  0.14601288  0.19855218  1.0
  O  O249  1  0.84845339  0.51840737  0.29725685  1.0
  O  O250  1  0.15346583  0.84684340  0.74855549  1.0
  O  O251  1  0.30990791  0.14377304  0.24938123  1.0
