# generated using pymatgen
data_AlH6C24(ClO)6
_symmetry_space_group_name_H-M   'P 1'
_cell_length_a   3.99312925
_cell_length_b   29.02185999
_cell_length_c   29.01911138
_cell_angle_alpha   59.99639097
_cell_angle_beta   89.99934894
_cell_angle_gamma   89.99994634
_symmetry_Int_Tables_number   1
_chemical_formula_structural   AlH6C24(ClO)6
_chemical_formula_sum   'Al2 H12 C48 Cl12 O12'
_cell_volume   2912.30969725
_cell_formula_units_Z   2
loop_
 _symmetry_equiv_pos_site_id
 _symmetry_equiv_pos_as_xyz
  1  'x, y, z'
loop_
 _atom_site_type_symbol
 _atom_site_label
 _atom_site_symmetry_multiplicity
 _atom_site_fract_x
 _atom_site_fract_y
 _atom_site_fract_z
 _atom_site_occupancy
  Al  Al0  1  0.99977051  0.50000595  0.99998052  1.0
  Al  Al1  1  0.00008065  0.16666191  0.66668981  1.0
  H  H2  1  0.77649463  0.30380148  0.52002601  1.0
  H  H3  1  0.22359142  0.17620590  0.52002874  1.0
  H  H4  1  0.22362299  0.49047542  0.14665246  1.0
  H  H5  1  0.77632136  0.36288681  0.14661872  1.0
  H  H6  1  0.77639750  0.17613847  0.80387608  1.0
  H  H7  1  0.22350235  0.30372770  0.67624986  1.0
  H  H8  1  0.22355930  0.36287395  0.99045560  1.0
  H  H9  1  0.77637091  0.49049952  0.86283272  1.0
  H  H10  1  0.77649808  0.02004542  0.67619260  1.0
  H  H11  1  0.22371752  0.01996630  0.80384750  1.0
  H  H12  1  0.22367721  0.64671991  0.86279429  1.0
  H  H13  1  0.77640556  0.64660391  0.99046527  1.0
  C  C14  1  0.49975762  0.58170946  0.95912615  1.0
  C  C15  1  0.49975575  0.45914390  0.08168809  1.0
  C  C16  1  0.49976408  0.45916715  0.95911758  1.0
  C  C17  1  0.50002029  0.20752905  0.58497826  1.0
  C  C18  1  0.49991429  0.20747565  0.70757184  1.0
  C  C19  1  0.50000339  0.08496051  0.70753582  1.0
  C  C20  1  0.50008536  0.23711747  0.52579012  1.0
  C  C21  1  0.65420080  0.28704635  0.49821122  1.0
  C  C22  1  0.64661757  0.31511549  0.44295060  1.0
  C  C23  1  0.50033796  0.29321001  0.41358725  1.0
  C  C24  1  0.35394571  0.24194879  0.44294805  1.0
  C  C25  1  0.34606738  0.21476490  0.49820510  1.0
  C  C26  1  0.50046050  0.32120587  0.35758490  1.0
  C  C27  1  0.50047504  0.34546985  0.30907866  1.0
  C  C28  1  0.50032210  0.37346383  0.25307869  1.0
  C  C29  1  0.35395147  0.42472862  0.22372931  1.0
  C  C30  1  0.34605771  0.45191539  0.16847269  1.0
  C  C31  1  0.49997867  0.42956640  0.14087781  1.0
  C  C32  1  0.65410019  0.37963776  0.16844528  1.0
  C  C33  1  0.64650485  0.35155867  0.22370511  1.0
  C  C34  1  0.49991754  0.23705449  0.73717326  1.0
  C  C35  1  0.65416785  0.21471775  0.78709929  1.0
  C  C36  1  0.64655813  0.24191965  0.81514763  1.0
  C  C37  1  0.50036745  0.29319583  0.79322152  1.0
  C  C38  1  0.35392308  0.31509471  0.74195662  1.0
  C  C39  1  0.34593849  0.28698883  0.71481278  1.0
  C  C40  1  0.50055111  0.32120176  0.82121096  1.0
  C  C41  1  0.50060226  0.34545406  0.84546031  1.0
  C  C42  1  0.50046286  0.37345099  0.87345811  1.0
  C  C43  1  0.35403667  0.35153726  0.92472646  1.0
  C  C44  1  0.34602629  0.37962170  0.95189181  1.0
  C  C45  1  0.49994364  0.42956399  0.92953725  1.0
  C  C46  1  0.65414812  0.45192050  0.87960511  1.0
  C  C47  1  0.64666442  0.42472612  0.85154724  1.0
  C  C48  1  0.50017548  0.02577799  0.73713170  1.0
  C  C49  1  0.65429725  0.99821143  0.71477406  1.0
  C  C50  1  0.64658837  0.94296090  0.74193224  1.0
  C  C51  1  0.50045277  0.91358164  0.79322013  1.0
  C  C52  1  0.35406994  0.94292722  0.81513699  1.0
  C  C53  1  0.34614701  0.99817496  0.78707474  1.0
  C  C54  1  0.50061238  0.85758241  0.82122032  1.0
  C  C55  1  0.50070446  0.80909177  0.84545213  1.0
  C  C56  1  0.50058108  0.75308798  0.87344077  1.0
  C  C57  1  0.35422107  0.72375659  0.85150788  1.0
  C  C58  1  0.34620161  0.66850582  0.87956378  1.0
  C  C59  1  0.50007137  0.64089022  0.92951794  1.0
  C  C60  1  0.65419221  0.66844659  0.95188735  1.0
  C  C61  1  0.64665740  0.72369624  0.92472680  1.0
  Cl  Cl62  1  0.17887193  0.21313805  0.40921515  1.0
  Cl  Cl63  1  0.82167663  0.37765523  0.40921495  1.0
  Cl  Cl64  1  0.82157721  0.28901573  0.25742930  1.0
  Cl  Cl65  1  0.17893891  0.45352915  0.25747567  1.0
  Cl  Cl66  1  0.17898322  0.37764430  0.71312849  1.0
  Cl  Cl67  1  0.82166878  0.21311936  0.87769647  1.0
  Cl  Cl68  1  0.82174028  0.45354400  0.78899568  1.0
  Cl  Cl69  1  0.17902543  0.28899241  0.95354021  1.0
  Cl  Cl70  1  0.17894657  0.90916903  0.87768697  1.0
  Cl  Cl71  1  0.82167839  0.90925919  0.71309947  1.0
  Cl  Cl72  1  0.82174388  0.75738308  0.95357834  1.0
  Cl  Cl73  1  0.17916044  0.75752412  0.78895982  1.0
  O  O74  1  0.26479901  0.44895626  0.99273327  1.0
  O  O75  1  0.26479980  0.55830730  0.94892450  1.0
  O  O76  1  0.26479788  0.49275355  0.05828346  1.0
  O  O77  1  0.73455747  0.49279410  0.94891045  1.0
  O  O78  1  0.73451022  0.44893485  0.05826014  1.0
  O  O79  1  0.73455461  0.55828183  0.99276772  1.0
  O  O80  1  0.26511166  0.10836532  0.71774586  1.0
  O  O81  1  0.26511108  0.17391299  0.60839009  1.0
  O  O82  1  0.26508240  0.21770423  0.67393034  1.0
  O  O83  1  0.73486313  0.10838048  0.67390415  1.0
  O  O84  1  0.73481519  0.17386700  0.71776659  1.0
  O  O85  1  0.73486495  0.21772603  0.60840217  1.0
