# generated using pymatgen
data_Zn4H11C24S4N4ClO13
_symmetry_space_group_name_H-M   'P 1'
_cell_length_a   19.66644638
_cell_length_b   19.67256653
_cell_length_c   33.37933166
_cell_angle_alpha   79.19848662
_cell_angle_beta   79.22657791
_cell_angle_gamma   63.93502821
_symmetry_Int_Tables_number   1
_chemical_formula_structural   Zn4H11C24S4N4ClO13
_chemical_formula_sum   'Zn16 H44 C96 S16 N16 Cl4 O52'
_cell_volume   11314.84382575
_cell_formula_units_Z   4
loop_
 _symmetry_equiv_pos_site_id
 _symmetry_equiv_pos_as_xyz
  1  'x, y, z'
loop_
 _atom_site_type_symbol
 _atom_site_label
 _atom_site_symmetry_multiplicity
 _atom_site_fract_x
 _atom_site_fract_y
 _atom_site_fract_z
 _atom_site_occupancy
  Zn  Zn0  1  0.59978193  0.94510952  0.52193638  1.0
  Zn  Zn1  1  0.51667452  0.01565299  0.43937526  1.0
  Zn  Zn2  1  0.44042428  0.94068423  0.51797826  1.0
  Zn  Zn3  1  0.44347298  0.09849610  0.52024539  1.0
  Zn  Zn4  1  0.65090735  0.30662877  0.72822004  1.0
  Zn  Zn5  1  0.81082462  0.31042878  0.73348768  1.0
  Zn  Zn6  1  0.73242995  0.23160644  0.80922767  1.0
  Zn  Zn7  1  0.80551061  0.15174126  0.72807396  1.0
  Zn  Zn8  1  0.23327220  0.73297205  0.30953539  1.0
  Zn  Zn9  1  0.30445219  0.65113520  0.22782127  1.0
  Zn  Zn10  1  0.15113133  0.80784567  0.22899149  1.0
  Zn  Zn11  1  0.31089758  0.80985235  0.23253546  1.0
  Zn  Zn12  1  0.94013233  0.44027766  0.01686877  1.0
  Zn  Zn13  1  0.94501531  0.59804561  0.02127732  1.0
  Zn  Zn14  1  0.09983355  0.44377613  0.02134228  1.0
  Zn  Zn15  1  0.01726093  0.51723791  0.93960033  1.0
  H  H16  1  0.75079153  0.04454956  0.64815806  1.0
  H  H17  1  0.54697044  0.25307547  0.65038933  1.0
  H  H18  1  0.69830118  0.00144024  0.59985528  1.0
  H  H19  1  0.40355264  0.90350692  0.30007321  1.0
  H  H20  1  0.29926810  0.79763195  0.40106789  1.0
  H  H21  1  0.44934531  0.94947817  0.35034717  1.0
  H  H22  1  0.94981024  0.44986932  0.84614462  1.0
  H  H23  1  0.84792758  0.35000251  0.95135992  1.0
  H  H24  1  0.89999109  0.39901631  0.80036154  1.0
  H  H25  1  0.20517326  0.49861588  0.10197112  1.0
  H  H26  1  0.99662727  0.70248587  0.10006782  1.0
  H  H27  1  0.24866785  0.55107879  0.15008873  1.0
  H  H28  1  0.44533184  0.68483261  0.60447498  1.0
  H  H29  1  0.44790744  0.76638220  0.57387071  1.0
  H  H30  1  0.79723399  0.57464081  0.65511312  1.0
  H  H31  1  0.80057673  0.48603769  0.67828469  1.0
  H  H32  1  0.47672637  0.23479248  0.31439613  1.0
  H  H33  1  0.48307222  0.16514501  0.35624862  1.0
  H  H34  1  0.29666165  0.51561092  0.43539220  1.0
  H  H35  1  0.27267505  0.58481525  0.39303003  1.0
  H  H36  1  0.73425330  0.95317501  0.31431210  1.0
  H  H37  1  0.66526516  0.97726539  0.35668644  1.0
  H  H38  1  0.01518992  0.77438977  0.43542674  1.0
  H  H39  1  0.08510264  0.76695656  0.39351489  1.0
  H  H40  1  0.19620947  0.25626373  0.61519367  1.0
  H  H41  1  0.27471548  0.20427833  0.58209920  1.0
  H  H42  1  0.06528193  0.98486357  0.64501489  1.0
  H  H43  1  0.97821166  0.04407605  0.66977252  1.0
  H  H44  1  0.51546567  0.27613679  0.93518694  1.0
  H  H45  1  0.58551109  0.26699456  0.89304072  1.0
  H  H46  1  0.23391014  0.45595598  0.81403066  1.0
  H  H47  1  0.16469810  0.47892913  0.85662237  1.0
  H  H48  1  0.91354328  0.85433459  0.77389713  1.0
  H  H49  1  0.88208865  0.95245517  0.76072515  1.0
  H  H50  1  0.81536511  0.89573556  0.97498746  1.0
  H  H51  1  0.86321807  0.79766127  0.98897371  1.0
  H  H52  1  0.56496497  0.48411494  0.14473665  1.0
  H  H53  1  0.47837460  0.54307143  0.17010412  1.0
  H  H54  1  0.69665815  0.75479597  0.11598751  1.0
  H  H55  1  0.77472704  0.70329238  0.08270268  1.0
  H  H56  1  0.29710465  0.07557970  0.15494237  1.0
  H  H57  1  0.30090295  0.98678543  0.17797631  1.0
  H  H58  1  0.94491481  0.18431030  0.10476306  1.0
  H  H59  1  0.94712168  0.26605168  0.07423511  1.0
  C  C60  1  0.68438484  0.93979402  0.43754538  1.0
  C  C61  1  0.43034381  0.93092933  0.43089684  1.0
  C  C62  1  0.56156752  0.81511747  0.56143681  1.0
  C  C63  1  0.31492768  0.06276081  0.56168294  1.0
  C  C64  1  0.56768227  0.07021688  0.56919707  1.0
  C  C65  1  0.43765491  0.18395721  0.43693264  1.0
  C  C66  1  0.68968644  0.43497902  0.68801935  1.0
  C  C67  1  0.81989366  0.31782520  0.81927466  1.0
  C  C68  1  0.56550000  0.31161771  0.81192777  1.0
  C  C69  1  0.81213403  0.06381330  0.81062811  1.0
  C  C70  1  0.68131263  0.17929030  0.68109771  1.0
  C  C71  1  0.93504698  0.18761500  0.68810540  1.0
  C  C72  1  0.31053156  0.56570556  0.31202779  1.0
  C  C73  1  0.17992677  0.68153140  0.18099009  1.0
  C  C74  1  0.06593840  0.81284022  0.31260742  1.0
  C  C75  1  0.19007804  0.93560524  0.18820658  1.0
  C  C76  1  0.32043003  0.81897474  0.31863222  1.0
  C  C77  1  0.43504604  0.68690730  0.18808763  1.0
  C  C78  1  0.81497039  0.56289093  0.06134974  1.0
  C  C79  1  0.06958249  0.56823237  0.06953832  1.0
  C  C80  1  0.06067976  0.31486523  0.06114447  1.0
  C  C81  1  0.18478458  0.43938307  0.93758224  1.0
  C  C82  1  0.93093190  0.43201177  0.92998161  1.0
  C  C83  1  0.93848144  0.68575354  0.93892158  1.0
  C  C84  1  0.59356490  0.10183086  0.59797189  1.0
  C  C85  1  0.65166915  0.15145387  0.65237411  1.0
  C  C86  1  0.55089103  0.17365611  0.61255062  1.0
  C  C87  1  0.69485736  0.08019890  0.63813011  1.0
  C  C88  1  0.58014779  0.19763592  0.63943842  1.0
  C  C89  1  0.66569783  0.05648788  0.61140193  1.0
  C  C90  1  0.40043129  0.90023173  0.40369816  1.0
  C  C91  1  0.34854744  0.84767456  0.34767239  1.0
  C  C92  1  0.35751882  0.85677096  0.41789447  1.0
  C  C93  1  0.39094947  0.89071913  0.33305654  1.0
  C  C94  1  0.33219934  0.83106110  0.38989503  1.0
  C  C95  1  0.41617446  0.91607527  0.36092325  1.0
  C  C96  1  0.54596602  0.69587668  0.59828791  1.0
  C  C97  1  0.70589477  0.55347069  0.65040601  1.0
  C  C98  1  0.58682926  0.74121609  0.58553369  1.0
  C  C99  1  0.66512610  0.50811365  0.66310907  1.0
  C  C100  1  0.66141181  0.62233642  0.62690822  1.0
  C  C101  1  0.59005263  0.62750524  0.62228853  1.0
  C  C102  1  0.42322783  0.27344914  0.36978361  1.0
  C  C103  1  0.32478404  0.47634884  0.37920023  1.0
  C  C104  1  0.41266319  0.25789407  0.41277576  1.0
  C  C105  1  0.33492132  0.49181804  0.33617161  1.0
  C  C106  1  0.35802082  0.39612768  0.39115958  1.0
  C  C107  1  0.39141420  0.35369492  0.35789334  1.0
  C  C108  1  0.77375097  0.92554520  0.37038902  1.0
  C  C109  1  0.97668899  0.82685727  0.37978184  1.0
  C  C110  1  0.75834057  0.91545183  0.41340598  1.0
  C  C111  1  0.99212128  0.83766430  0.33677183  1.0
  C  C112  1  0.89642921  0.85877309  0.39168805  1.0
  C  C113  1  0.85394067  0.89232015  0.35842182  1.0
  C  C114  1  0.19939163  0.15704896  0.60205047  1.0
  C  C115  1  0.05002781  0.09433569  0.64685352  1.0
  C  C116  1  0.24113186  0.08720240  0.58578350  1.0
  C  C117  1  0.00812149  0.16408726  0.66319246  1.0
  C  C118  1  0.12039555  0.09209271  0.62497975  1.0
  C  C119  1  0.12983332  0.15854917  0.62480573  1.0
  C  C120  1  0.84649864  0.34581203  0.84951181  1.0
  C  C121  1  0.90196225  0.40271585  0.90164335  1.0
  C  C122  1  0.83187586  0.33224100  0.89271079  1.0
  C  C123  1  0.91684292  0.41687372  0.85890061  1.0
  C  C124  1  0.85955068  0.36068256  0.91817897  1.0
  C  C125  1  0.88921568  0.38868030  0.83364848  1.0
  C  C126  1  0.47675665  0.32655563  0.87927624  1.0
  C  C127  1  0.27358189  0.42556991  0.87031348  1.0
  C  C128  1  0.49183822  0.33703312  0.83620591  1.0
  C  C129  1  0.25851167  0.41524611  0.91337463  1.0
  C  C130  1  0.35376234  0.39230238  0.85819100  1.0
  C  C131  1  0.39651518  0.35875579  0.89134292  1.0
  C  C132  1  0.87747850  0.91851267  0.82175744  1.0
  C  C133  1  0.87542465  0.83119265  0.92788492  1.0
  C  C134  1  0.83772132  0.99072000  0.83553011  1.0
  C  C135  1  0.91505166  0.75889459  0.91410919  1.0
  C  C136  1  0.86130976  0.88917717  0.89370827  1.0
  C  C137  1  0.89027418  0.86047767  0.85586167  1.0
  C  C138  1  0.14819520  0.65566262  0.15226901  1.0
  C  C139  1  0.09787079  0.59755858  0.09819711  1.0
  C  C140  1  0.07625718  0.69850133  0.13777084  1.0
  C  C141  1  0.16942546  0.55438986  0.11215979  1.0
  C  C142  1  0.05201547  0.66913807  0.11107022  1.0
  C  C143  1  0.19338923  0.58359037  0.13875857  1.0
  C  C144  1  0.55020832  0.59340587  0.14694703  1.0
  C  C145  1  0.69908565  0.65671966  0.10191255  1.0
  C  C146  1  0.50829441  0.66312836  0.16329953  1.0
  C  C147  1  0.74105362  0.58708678  0.08548189  1.0
  C  C148  1  0.62965024  0.65803973  0.12466385  1.0
  C  C149  1  0.62038670  0.59147585  0.12483425  1.0
  C  C150  1  0.20594443  0.05406663  0.15032405  1.0
  C  C151  1  0.04540099  0.19574339  0.09842296  1.0
  C  C152  1  0.16535871  0.00858689  0.16323752  1.0
  C  C153  1  0.08599985  0.24122854  0.08544307  1.0
  C  C154  1  0.08977398  0.12759591  0.12245914  1.0
  C  C155  1  0.16112834  0.12277482  0.12685207  1.0
  S  S156  1  0.67726067  0.70009036  0.60222685  1.0
  S  S157  1  0.57495069  0.54891791  0.64614263  1.0
  S  S158  1  0.36411324  0.33990472  0.43777527  1.0
  S  S159  1  0.38328650  0.40979123  0.31119472  1.0
  S  S160  1  0.84038602  0.86696990  0.43837663  1.0
  S  S161  1  0.91002954  0.88648734  0.31179172  1.0
  S  S162  1  0.19555351  0.02574341  0.59770630  1.0
  S  S163  1  0.05372706  0.22555414  0.65127157  1.0
  S  S164  1  0.40949552  0.38603275  0.81143993  1.0
  S  S165  1  0.34084146  0.36670923  0.93814643  1.0
  S  S166  1  0.81770254  0.98724223  0.88900758  1.0
  S  S167  1  0.93538090  0.76245537  0.86061104  1.0
  S  S168  1  0.55358618  0.72487899  0.15124103  1.0
  S  S169  1  0.69560128  0.52549063  0.09733611  1.0
  S  S170  1  0.07503776  0.04894861  0.14652107  1.0
  S  S171  1  0.17657036  0.20059982  0.10192597  1.0
  N  N172  1  0.47576052  0.71323195  0.58832316  1.0
  N  N173  1  0.77810336  0.53369494  0.65824005  1.0
  N  N174  1  0.45655301  0.21978786  0.34319534  1.0
  N  N175  1  0.28654712  0.52985430  0.40566349  1.0
  N  N176  1  0.72009720  0.96396979  0.34392506  1.0
  N  N177  1  0.03031047  0.79323816  0.40635167  1.0
  N  N178  1  0.22092420  0.21547618  0.59604502  1.0
  N  N179  1  0.02624308  0.03791511  0.65018050  1.0
  N  N180  1  0.53051461  0.29280012  0.90567132  1.0
  N  N181  1  0.21983933  0.46374097  0.84406182  1.0
  N  N182  1  0.90237045  0.90578391  0.78173192  1.0
  N  N183  1  0.85545530  0.84424222  0.96792774  1.0
  N  N184  1  0.52644763  0.53697819  0.15055199  1.0
  N  N185  1  0.72031041  0.71553919  0.09591528  1.0
  N  N186  1  0.27824175  0.03445268  0.15796501  1.0
  N  N187  1  0.97517672  0.21284574  0.08856481  1.0
  Cl  Cl188  1  0.46190622  0.23772024  0.59905152  1.0
  Cl  Cl189  1  0.33306400  0.83104567  0.46913000  1.0
  Cl  Cl190  1  0.77998842  0.28170267  0.91788744  1.0
  Cl  Cl191  1  0.01289902  0.78789361  0.15077656  1.0
  O  O192  1  0.50138298  0.99959333  0.49929808  1.0
  O  O193  1  0.68284909  0.92395214  0.47664903  1.0
  O  O194  1  0.47250976  0.96475441  0.41296213  1.0
  O  O195  1  0.49451170  0.84241047  0.54956101  1.0
  O  O196  1  0.62545170  0.97571496  0.41760792  1.0
  O  O197  1  0.60696049  0.84818070  0.55368838  1.0
  O  O198  1  0.41150349  0.92150646  0.46930263  1.0
  O  O199  1  0.34496899  0.99496474  0.55140639  1.0
  O  O200  1  0.50152396  0.10989012  0.55828958  1.0
  O  O201  1  0.34520214  0.11108427  0.55234121  1.0
  O  O202  1  0.61453761  0.00532090  0.55801748  1.0
  O  O203  1  0.47270767  0.12468812  0.41728051  1.0
  O  O204  1  0.42312770  0.18289733  0.47609022  1.0
  O  O205  1  0.75053891  0.25020761  0.74925924  1.0
  O  O206  1  0.64303679  0.40333160  0.69658769  1.0
  O  O207  1  0.83429075  0.33910581  0.78125029  1.0
  O  O208  1  0.62470609  0.27589686  0.83166517  1.0
  O  O209  1  0.75678065  0.40715905  0.69985637  1.0
  O  O210  1  0.56689817  0.32613422  0.77272274  1.0
  O  O211  1  0.78560341  0.27521155  0.83352745  1.0
  O  O212  1  0.77357843  0.12300181  0.82941955  1.0
  O  O213  1  0.74647456  0.13422344  0.69252340  1.0
  O  O214  1  0.82989935  0.06391791  0.77127483  1.0
  O  O215  1  0.63900536  0.24550967  0.69160969  1.0
  O  O216  1  0.90712567  0.25321795  0.70096005  1.0
  O  O217  1  0.90345171  0.14029106  0.69563953  1.0
  O  O218  1  0.25094623  0.74967918  0.24974744  1.0
  O  O219  1  0.27390044  0.62464066  0.33186724  1.0
  O  O220  1  0.24546924  0.63500047  0.19166015  1.0
  O  O221  1  0.06730614  0.82796213  0.27346177  1.0
  O  O222  1  0.32702163  0.56735067  0.27290773  1.0
  O  O223  1  0.12522930  0.77707882  0.33232895  1.0
  O  O224  1  0.13986836  0.74708263  0.19246104  1.0
  O  O225  1  0.14311661  0.90437763  0.19733749  1.0
  O  O226  1  0.33487503  0.83769548  0.28040287  1.0
  O  O227  1  0.25761060  0.90737219  0.19955501  1.0
  O  O228  1  0.28441618  0.77824655  0.33475134  1.0
  O  O229  1  0.40319652  0.63987685  0.19591376  1.0
  O  O230  1  0.40732639  0.75292809  0.20047619  1.0
  O  O231  1  0.00059748  0.49996842  0.99970212  1.0
  O  O232  1  0.84451085  0.49577456  0.05025477  1.0
  O  O233  1  0.00299839  0.61091173  0.05926185  1.0
  O  O234  1  0.10649862  0.34743809  0.05312687  1.0
  O  O235  1  0.84578630  0.61086463  0.05284836  1.0
  O  O236  1  0.99351929  0.34243040  0.04935766  1.0
  O  O237  1  0.11419281  0.50337650  0.05791253  1.0
  O  O238  1  0.18345066  0.42329295  0.97671821  1.0
  O  O239  1  0.97073854  0.46872005  0.91330259  1.0
  O  O240  1  0.12563112  0.47535315  0.91783494  1.0
  O  O241  1  0.91330018  0.41763639  0.96837351  1.0
  O  O242  1  0.92290684  0.68587981  0.97838243  1.0
  O  O243  1  0.97273988  0.62625282  0.92002122  1.0
