# generated using pymatgen
data_ZnH10C29N4(OF)4
_symmetry_space_group_name_H-M   'P 1'
_cell_length_a   17.12021673
_cell_length_b   18.38788652
_cell_length_c   19.60066587
_cell_angle_alpha   91.17215429
_cell_angle_beta   90.23834885
_cell_angle_gamma   94.79394015
_symmetry_Int_Tables_number   1
_chemical_formula_structural   ZnH10C29N4(OF)4
_chemical_formula_sum   'Zn2 H20 C58 N8 O8 F8'
_cell_volume   6147.40064799
_cell_formula_units_Z   2
loop_
 _symmetry_equiv_pos_site_id
 _symmetry_equiv_pos_as_xyz
  1  'x, y, z'
loop_
 _atom_site_type_symbol
 _atom_site_label
 _atom_site_symmetry_multiplicity
 _atom_site_fract_x
 _atom_site_fract_y
 _atom_site_fract_z
 _atom_site_occupancy
  Zn  Zn0  1  0.49972130  0.42253963  0.48965416  1.0
  Zn  Zn1  1  0.50250217  0.57794027  0.49686112  1.0
  H  H2  1  0.26984328  0.59955838  0.56469965  1.0
  H  H3  1  0.73761221  0.40436152  0.54189183  1.0
  H  H4  1  0.60045843  0.43884563  0.93146220  1.0
  H  H5  1  0.39381454  0.56136846  0.05536664  1.0
  H  H6  1  0.56746340  0.31522488  0.57186487  1.0
  H  H7  1  0.43906879  0.68677463  0.41263519  1.0
  H  H8  1  0.57181005  0.17893689  0.57856496  1.0
  H  H9  1  0.43427848  0.82305329  0.40773788  1.0
  H  H10  1  0.55227292  0.93191641  0.39654824  1.0
  H  H11  1  0.44933573  0.06883314  0.59331949  1.0
  H  H12  1  0.01169900  0.58522569  0.57482092  1.0
  H  H13  1  0.99555933  0.41842128  0.59321004  1.0
  H  H14  1  0.87668274  0.40927769  0.57808194  1.0
  H  H15  1  0.13131167  0.59325742  0.60289541  1.0
  H  H16  1  0.50337814  0.60703504  0.70726741  1.0
  H  H17  1  0.49667900  0.38947132  0.27759304  1.0
  H  H18  1  0.49793666  0.37854279  0.83933120  1.0
  H  H19  1  0.49572344  0.62029313  0.14986635  1.0
  H  H20  1  0.50085263  0.37294125  0.71141437  1.0
  H  H21  1  0.49501514  0.62348456  0.27764603  1.0
  C  C22  1  0.49733580  0.50744670  0.36197575  1.0
  C  C23  1  0.50374740  0.48717251  0.62552286  1.0
  C  C24  1  0.50156184  0.55685887  0.73596456  1.0
  C  C25  1  0.49677961  0.44022218  0.24998002  1.0
  C  C26  1  0.49916519  0.55859621  0.80653991  1.0
  C  C27  1  0.49674151  0.43977460  0.17936157  1.0
  C  C28  1  0.49793507  0.49540663  0.84548561  1.0
  C  C29  1  0.49666010  0.50362568  0.14146737  1.0
  C  C30  1  0.49952633  0.42838404  0.80990312  1.0
  C  C31  1  0.49517243  0.56988323  0.17834659  1.0
  C  C32  1  0.50117914  0.42500246  0.73897798  1.0
  C  C33  1  0.49503890  0.57188057  0.24938776  1.0
  C  C34  1  0.50223973  0.48932869  0.70179234  1.0
  C  C35  1  0.49627055  0.50701497  0.28556179  1.0
  C  C36  1  0.55416840  0.46504396  0.95797379  1.0
  C  C37  1  0.44015825  0.53517562  0.02891705  1.0
  C  C38  1  0.55329369  0.46718533  0.02867801  1.0
  C  C39  1  0.44117994  0.53319541  0.95817453  1.0
  C  C40  1  0.49682054  0.50156381  0.06618830  1.0
  C  C41  1  0.49742456  0.49851789  0.92071944  1.0
  C  C42  1  0.53626016  0.27761662  0.53553481  1.0
  C  C43  1  0.46818959  0.72376313  0.45068656  1.0
  C  C44  1  0.35072026  0.49533182  0.51295141  1.0
  C  C45  1  0.65291761  0.51085989  0.50487860  1.0
  C  C46  1  0.53747175  0.20265581  0.53913048  1.0
  C  C47  1  0.46674674  0.79878009  0.44810548  1.0
  C  C48  1  0.49576122  0.15715296  0.49058995  1.0
  C  C49  1  0.50572351  0.84362340  0.49874040  1.0
  C  C50  1  0.45304390  0.19068153  0.44130281  1.0
  C  C51  1  0.54571445  0.80930219  0.54934227  1.0
  C  C52  1  0.45478836  0.26689412  0.44127585  1.0
  C  C53  1  0.54373457  0.73305229  0.54861687  1.0
  C  C54  1  0.52628876  0.03738116  0.43623629  1.0
  C  C55  1  0.47536765  0.96339036  0.55363088  1.0
  C  C56  1  0.52895102  0.96151387  0.43958094  1.0
  C  C57  1  0.47276829  0.03930250  0.55029465  1.0
  C  C58  1  0.50400196  0.92381830  0.49767457  1.0
  C  C59  1  0.49763803  0.07694669  0.49217817  1.0
  C  C60  1  0.26865704  0.48585585  0.54022098  1.0
  C  C61  1  0.73701671  0.51910157  0.52820458  1.0
  C  C62  1  0.23387048  0.54780464  0.56410538  1.0
  C  C63  1  0.77297681  0.45633447  0.54595632  1.0
  C  C64  1  0.15654335  0.54388602  0.58494295  1.0
  C  C65  1  0.85066716  0.45966002  0.56629027  1.0
  C  C66  1  0.10934292  0.47744292  0.58142707  1.0
  C  C67  1  0.89718461  0.52651548  0.56945090  1.0
  C  C68  1  0.14598057  0.41321567  0.56336593  1.0
  C  C69  1  0.86033853  0.59091602  0.55459007  1.0
  C  C70  1  0.22564818  0.41716251  0.54272125  1.0
  C  C71  1  0.78048527  0.58750892  0.53381071  1.0
  C  C72  1  0.02459664  0.47326811  0.58867581  1.0
  C  C73  1  0.98148542  0.53097972  0.58048756  1.0
  C  C74  1  0.55552534  0.07430807  0.37705064  1.0
  C  C75  1  0.44547500  0.92657892  0.61266033  1.0
  C  C76  1  0.74851224  0.65492446  0.51887735  1.0
  C  C77  1  0.25822958  0.35017934  0.52484040  1.0
  C  C78  1  0.10040447  0.34462656  0.56342712  1.0
  C  C79  1  0.90533692  0.65973016  0.55956510  1.0
  N  N80  1  0.49558059  0.30902311  0.48648377  1.0
  N  N81  1  0.50619064  0.69158109  0.50098998  1.0
  N  N82  1  0.58026435  0.10456020  0.32891035  1.0
  N  N83  1  0.42005538  0.89643626  0.66061773  1.0
  N  N84  1  0.72996998  0.71348616  0.50874069  1.0
  N  N85  1  0.27813823  0.29202121  0.51295357  1.0
  N  N86  1  0.06025485  0.29002558  0.56455954  1.0
  N  N87  1  0.94488784  0.71456036  0.56477499  1.0
  O  O88  1  0.50556286  0.44664294  0.38996998  1.0
  O  O89  1  0.50886913  0.54865707  0.59632478  1.0
  O  O90  1  0.49023684  0.56801698  0.39338418  1.0
  O  O91  1  0.49955648  0.42486342  0.59550663  1.0
  O  O92  1  0.38216606  0.43750313  0.49635932  1.0
  O  O93  1  0.62159062  0.56909333  0.49139049  1.0
  O  O94  1  0.38133465  0.56052018  0.50898715  1.0
  O  O95  1  0.62043736  0.44612792  0.50161379  1.0
  F  F96  1  0.61168707  0.43681331  0.06251398  1.0
  F  F97  1  0.38306066  0.56389545  0.92420020  1.0
  F  F98  1  0.40937091  0.15136411  0.39426855  1.0
  F  F99  1  0.58702755  0.84774382  0.59835236  1.0
  F  F100  1  0.41460323  0.29898517  0.39379671  1.0
  F  F101  1  0.58003873  0.70032515  0.59813786  1.0
  F  F102  1  0.50063371  0.62472350  0.83928135  1.0
  F  F103  1  0.49450428  0.37419321  0.14552435  1.0
