# generated using pymatgen
data_Zn4H27C72N20Cl17O12
_symmetry_space_group_name_H-M   'P 1'
_cell_length_a   19.61116995
_cell_length_b   19.76664992
_cell_length_c   21.00100525
_cell_angle_alpha   107.35474729
_cell_angle_beta   108.01467960
_cell_angle_gamma   110.50331924
_symmetry_Int_Tables_number   1
_chemical_formula_structural   Zn4H27C72N20Cl17O12
_chemical_formula_sum   'Zn4 H27 C72 N20 Cl17 O12'
_cell_volume   6451.83429239
_cell_formula_units_Z   1
loop_
 _symmetry_equiv_pos_site_id
 _symmetry_equiv_pos_as_xyz
  1  'x, y, z'
loop_
 _atom_site_type_symbol
 _atom_site_label
 _atom_site_symmetry_multiplicity
 _atom_site_fract_x
 _atom_site_fract_y
 _atom_site_fract_z
 _atom_site_occupancy
  Zn  Zn0  1  0.88595924  0.89534199  0.49719912  1.0
  Zn  Zn1  1  0.10619385  0.10272902  0.51002502  1.0
  Zn  Zn2  1  0.08964382  0.98440460  0.59006834  1.0
  Zn  Zn3  1  0.90284385  0.01589323  0.41133397  1.0
  H  H4  1  0.15167912  0.01214128  0.38712870  1.0
  H  H5  1  0.05887760  0.55478489  0.56521466  1.0
  H  H6  1  0.58861029  0.62126018  0.08324603  1.0
  H  H7  1  0.87879459  0.67659423  0.18470552  1.0
  H  H8  1  0.99097284  0.02047872  0.91633694  1.0
  H  H9  1  0.08022066  0.04944369  0.22971332  1.0
  H  H10  1  0.08876767  0.04795139  0.11275182  1.0
  H  H11  1  0.12610220  0.81640981  0.67051784  1.0
  H  H12  1  0.17996415  0.17158948  0.35322100  1.0
  H  H13  1  0.54412392  0.94878577  0.48563304  1.0
  H  H14  1  0.05124121  0.60901451  0.80846668  1.0
  H  H15  1  0.84065671  0.73233735  0.53014185  1.0
  H  H16  1  0.89853007  0.39603644  0.45146412  1.0
  H  H17  1  0.25190090  0.01726418  0.70809382  1.0
  H  H18  1  0.45706749  0.32753190  0.98125592  1.0
  H  H19  1  0.63780135  0.73872621  0.19244763  1.0
  H  H20  1  0.72525500  0.50651571  0.00517150  1.0
  H  H21  1  0.00329693  0.21804849  0.07144362  1.0
  H  H22  1  0.34590975  0.29676521  0.65100562  1.0
  H  H23  1  0.85547084  0.19430591  0.52776812  1.0
  H  H24  1  0.10423896  0.84112242  0.47916286  1.0
  H  H25  1  0.33037010  0.78354443  0.42570385  1.0
  H  H26  1  0.13812537  0.26220748  0.63837154  1.0
  H  H27  1  0.33081570  0.70484039  0.28809139  1.0
  H  H28  1  0.24536713  0.77590365  0.22223472  1.0
  H  H29  1  0.39753462  0.91178216  0.27023389  1.0
  H  H30  1  0.83924995  0.47140708  0.56476005  1.0
  C  C31  1  0.92098194  0.02087952  0.64476178  1.0
  C  C32  1  0.90631234  0.77275815  0.55638013  1.0
  C  C33  1  0.88897757  0.86906818  0.29770907  1.0
  C  C34  1  0.07268337  0.22159483  0.60237071  1.0
  C  C35  1  0.10937583  0.88895783  0.46250692  1.0
  C  C36  1  0.85212771  0.78634344  0.27894807  1.0
  C  C37  1  0.14269181  0.90885734  0.41580718  1.0
  C  C38  1  0.97126646  0.76267624  0.59663428  1.0
  C  C39  1  0.02643302  0.12838313  0.30724185  1.0
  C  C40  1  0.38230618  0.92610248  0.37991032  1.0
  C  C41  1  0.42841726  0.88594200  0.41737939  1.0
  C  C42  1  0.00680166  0.23784210  0.59469250  1.0
  C  C43  1  0.57523321  0.86423068  0.35777027  1.0
  C  C44  1  0.18665734  0.87808535  0.38590019  1.0
  C  C45  1  0.38171717  0.88265773  0.30420815  1.0
  C  C46  1  0.27591254  0.11339106  0.69521007  1.0
  C  C47  1  0.42996162  0.84344827  0.34044453  1.0
  C  C48  1  0.29821745  0.80737535  0.27793669  1.0
  C  C49  1  0.29653758  0.85027273  0.35393987  1.0
  C  C50  1  0.34499026  0.76805114  0.31447690  1.0
  C  C51  1  0.34513550  0.81115331  0.39041692  1.0
  C  C52  1  0.50427669  0.84836004  0.34238742  1.0
  C  C53  1  0.32587588  0.19415965  0.71169624  1.0
  C  C54  1  0.23229777  0.85913923  0.36587237  1.0
  C  C55  1  0.01834230  0.56735185  0.70239033  1.0
  C  C56  1  0.94253906  0.48061878  0.66772701  1.0
  C  C57  1  0.00443202  0.31051409  0.62110780  1.0
  C  C58  1  0.71631992  0.93957385  0.36817143  1.0
  C  C59  1  0.97093354  0.69753194  0.61061789  1.0
  C  C60  1  0.06389999  0.52695193  0.66803225  1.0
  C  C61  1  0.98813936  0.43912708  0.63450793  1.0
  C  C62  1  0.02543342  0.53265779  0.59411272  1.0
  C  C63  1  0.97955819  0.57351285  0.62755924  1.0
  C  C64  1  0.65754283  0.88451529  0.37910200  1.0
  C  C65  1  0.94916747  0.44692375  0.56043485  1.0
  C  C66  1  0.90324505  0.48647899  0.59395666  1.0
  C  C67  1  0.99452077  0.36999778  0.63368302  1.0
  C  C68  1  0.97500734  0.64124225  0.62119893  1.0
  C  C69  1  0.79474907  0.71683744  0.20390147  1.0
  C  C70  1  0.27551715  0.20297959  0.65314717  1.0
  C  C71  1  0.81573208  0.66550654  0.16259772  1.0
  C  C72  1  0.75651509  0.59882170  0.09221789  1.0
  C  C73  1  0.67355116  0.58314575  0.06454567  1.0
  C  C74  1  0.65292279  0.63585251  0.10644296  1.0
  C  C75  1  0.86146476  0.78812975  0.34841840  1.0
  C  C76  1  0.71226377  0.70211623  0.17468798  1.0
  C  C77  1  0.49251314  0.34864667  0.91175806  1.0
  C  C78  1  0.42082144  0.28033807  0.85041429  1.0
  C  C79  1  0.55321809  0.39752882  0.89849002  1.0
  C  C80  1  0.40566583  0.25802246  0.77508434  1.0
  C  C81  1  0.47003849  0.30561302  0.76418158  1.0
  C  C82  1  0.70507240  0.86014031  0.42291589  1.0
  C  C83  1  0.54259713  0.37374285  0.82460255  1.0
  C  C84  1  0.99157528  0.09881736  0.79079511  1.0
  C  C85  1  0.00744904  0.17651696  0.83686936  1.0
  C  C86  1  0.13341929  0.97640093  0.41523984  1.0
  C  C87  1  0.01712674  0.19818737  0.91060171  1.0
  C  C88  1  0.01229117  0.14144705  0.93918667  1.0
  C  C89  1  0.99539816  0.06359108  0.89344724  1.0
  C  C90  1  0.98513925  0.04299550  0.82082660  1.0
  C  C91  1  0.01783895  0.18417416  0.14736357  1.0
  C  C92  1  0.01350206  0.18445783  0.21336281  1.0
  C  C93  1  0.04409781  0.13242037  0.11051686  1.0
  C  C94  1  0.93703773  0.16249762  0.53877020  1.0
  C  C95  1  0.03510808  0.13558928  0.24274807  1.0
  C  C96  1  0.06537227  0.08846659  0.20734633  1.0
  C  C97  1  0.04183583  0.83349078  0.61586278  1.0
  C  C98  1  0.06925030  0.08654523  0.14252007  1.0
  C  C99  1  0.05525224  0.08571393  0.70184406  1.0
  C  C100  1  0.98800890  0.07543698  0.71616651  1.0
  C  C101  1  0.95638159  0.10114040  0.31825034  1.0
  C  C102  1  0.08624732  0.13316070  0.36947653  1.0
  N  N103  1  0.94647710  0.00013629  0.59293191  1.0
  N  N104  1  0.62466601  0.46836088  0.95882411  1.0
  N  N105  1  0.02212091  0.16317544  0.01285565  1.0
  N  N106  1  0.04371014  0.14399719  0.55482458  1.0
  N  N107  1  0.04298351  0.12046954  0.04204025  1.0
  N  N108  1  0.20340665  0.07858254  0.63425867  1.0
  N  N109  1  0.79063645  0.94715510  0.40240751  1.0
  N  N110  1  0.20363299  0.13526798  0.60750643  1.0
  N  N111  1  0.78350456  0.89770138  0.43708480  1.0
  N  N112  1  0.95943376  0.10683687  0.51557393  1.0
  N  N113  1  0.03061579  0.04007315  0.62870744  1.0
  N  N114  1  0.09879624  0.99500650  0.45902254  1.0
  N  N115  1  0.90026711  0.86476074  0.40331249  1.0
  N  N116  1  0.02096080  0.88062042  0.58948057  1.0
  N  N117  1  0.97274871  0.09025786  0.38012222  1.0
  N  N118  1  0.05546501  0.11252569  0.41342862  1.0
  N  N119  1  0.93596890  0.84237385  0.55193948  1.0
  N  N120  1  0.91672719  0.91607554  0.37161085  1.0
  N  N121  1  0.08392056  0.94155672  0.48805188  1.0
  N  N122  1  0.60795713  0.51629454  0.99963896  1.0
  Cl  Cl123  1  0.81973186  0.98166234  0.62255075  1.0
  Cl  Cl124  1  0.98351742  0.24829980  0.25763146  1.0
  Cl  Cl125  1  0.70109445  0.99232689  0.31963504  1.0
  Cl  Cl126  1  0.96586852  0.94660162  0.76689944  1.0
  Cl  Cl127  1  0.03767551  0.29337607  0.96679064  1.0
  Cl  Cl128  1  0.01623433  0.24551291  0.80170309  1.0
  Cl  Cl129  1  0.67328437  0.79261344  0.45598282  1.0
  Cl  Cl130  1  0.15573852  0.14618554  0.76648683  1.0
  Cl  Cl131  1  0.82541327  0.70623384  0.36456115  1.0
  Cl  Cl132  1  0.85889086  0.07487943  0.26037791  1.0
  Cl  Cl133  1  0.89883165  0.90833965  0.23709984  1.0
  Cl  Cl134  1  0.40607602  0.02708539  0.42172157  1.0
  Cl  Cl135  1  0.89294478  0.45023367  0.71793045  1.0
  Cl  Cl136  1  0.16574529  0.55271030  0.71631047  1.0
  Cl  Cl137  1  0.34872604  0.22757746  0.87322971  1.0
  Cl  Cl138  1  0.45918828  0.27993427  0.67380572  1.0
  Cl  Cl139  1  0.61868971  0.43236075  0.80983784  1.0
  O  O140  1  0.12250748  0.85721998  0.65456505  1.0
  O  O141  1  0.99714903  0.23068141  0.11988498  1.0
  O  O142  1  0.28829883  0.26836053  0.64004370  1.0
  O  O143  1  0.85748599  0.14397311  0.50766036  1.0
  O  O144  1  0.16675741  0.15664130  0.38985826  1.0
  O  O145  1  0.49320362  0.92114489  0.48768985  1.0
  O  O146  1  0.05075985  0.63024568  0.77198571  1.0
  O  O147  1  0.91531781  0.38101602  0.49151102  1.0
  O  O148  1  0.29617477  0.07341453  0.73343029  1.0
  O  O149  1  0.50518705  0.36864902  0.98349267  1.0
  O  O150  1  0.69586556  0.75542265  0.21815943  1.0
  O  O151  1  0.77797708  0.55028065  0.05289071  1.0
