# generated using pymatgen
data_Zn4H15C30NO13
_symmetry_space_group_name_H-M   'P 1'
_cell_length_a   10.82432402
_cell_length_b   10.91626811
_cell_length_c   17.96230691
_cell_angle_alpha   72.53278499
_cell_angle_beta   82.77399446
_cell_angle_gamma   82.29444911
_symmetry_Int_Tables_number   1
_chemical_formula_structural   Zn4H15C30NO13
_chemical_formula_sum   'Zn4 H15 C30 N1 O13'
_cell_volume   1998.06712912
_cell_formula_units_Z   1
loop_
 _symmetry_equiv_pos_site_id
 _symmetry_equiv_pos_as_xyz
  1  'x, y, z'
loop_
 _atom_site_type_symbol
 _atom_site_label
 _atom_site_symmetry_multiplicity
 _atom_site_fract_x
 _atom_site_fract_y
 _atom_site_fract_z
 _atom_site_occupancy
  Zn  Zn0  1  0.58269149  0.56431215  0.56515369  1.0
  Zn  Zn1  1  0.61586442  0.40432030  0.44015471  1.0
  Zn  Zn2  1  0.41148964  0.64585831  0.42398168  1.0
  Zn  Zn3  1  0.37567522  0.38321904  0.56873027  1.0
  H  H4  1  0.42083803  0.16748551  0.07903499  1.0
  H  H5  1  0.37696707  0.19510282  0.81453222  1.0
  H  H6  1  0.47969631  0.30883473  0.14868293  1.0
  H  H7  1  0.62245184  0.63703097  0.85640286  1.0
  H  H8  1  0.65171980  0.00745590  0.62949818  1.0
  H  H9  1  0.56485619  0.87098183  0.64993904  1.0
  H  H10  1  0.69618457  0.88633912  0.58004869  1.0
  H  H11  1  0.67529632  0.84285930  0.04501102  1.0
  H  H12  1  0.41327964  0.03361000  0.45249548  1.0
  H  H13  1  0.01850899  0.58373663  0.39246572  1.0
  H  H14  1  0.99529682  0.41059287  0.56381012  1.0
  H  H15  1  0.52036103  0.42576194  0.20388329  1.0
  H  H16  1  0.63002358  0.79476260  0.19042169  1.0
  H  H17  1  0.68288637  0.77732735  0.92492993  1.0
  H  H18  1  0.37986603  0.12732256  0.96033862  1.0
  C  C19  1  0.51686037  0.15818750  0.52717485  1.0
  C  C20  1  0.60085815  0.61347242  0.91942920  1.0
  C  C21  1  0.63637798  0.69198805  0.95789935  1.0
  C  C22  1  0.48310887  0.83221134  0.49540470  1.0
  C  C23  1  0.61340199  0.66504113  0.04064172  1.0
  C  C24  1  0.56487616  0.54616223  0.08460284  1.0
  C  C25  1  0.63845334  0.75268984  0.07984990  1.0
  C  C26  1  0.61496768  0.72611889  0.16001445  1.0
  C  C27  1  0.55156387  0.51712320  0.16711360  1.0
  C  C28  1  0.47359529  0.96802149  0.49479871  1.0
  C  C29  1  0.53302259  0.01461235  0.54062898  1.0
  C  C30  1  0.40568955  0.25812053  0.84469151  1.0
  C  C31  1  0.04509298  0.52584534  0.45013507  1.0
  C  C32  1  0.96376163  0.46187471  0.50616785  1.0
  C  C33  1  0.82732324  0.46762975  0.50064990  1.0
  C  C34  1  0.17579964  0.52654280  0.46722209  1.0
  C  C35  1  0.55134411  0.57391432  0.29111844  1.0
  C  C36  1  0.44496380  0.41541730  0.71243514  1.0
  C  C37  1  0.43904011  0.38059843  0.80001375  1.0
  C  C38  1  0.57353528  0.60580255  0.20415844  1.0
  C  C39  1  0.40889715  0.22084646  0.92495818  1.0
  C  C40  1  0.61645548  0.94141758  0.60351478  1.0
  C  C41  1  0.47384280  0.46608224  0.83707240  1.0
  C  C42  1  0.47667793  0.59843289  0.79202430  1.0
  C  C43  1  0.48872732  0.42541781  0.91931235  1.0
  C  C44  1  0.45027620  0.30152850  0.96332142  1.0
  C  C45  1  0.53802934  0.50195163  0.96011658  1.0
  C  C46  1  0.52879261  0.46268143  0.04346982  1.0
  C  C47  1  0.48467688  0.34101957  0.08496851  1.0
  C  C48  1  0.45087286  0.26186484  0.04642067  1.0
  N  N49  1  0.46784708  0.70806060  0.75721332  1.0
  O  O50  1  0.49422234  0.49712999  0.49992220  1.0
  O  O51  1  0.57666912  0.45584789  0.33023949  1.0
  O  O52  1  0.37249728  0.36417768  0.68220157  1.0
  O  O53  1  0.50879436  0.66653245  0.31994163  1.0
  O  O54  1  0.52721330  0.49015226  0.67592119  1.0
  O  O55  1  0.76029904  0.49597899  0.55808994  1.0
  O  O56  1  0.21029696  0.44897884  0.53164573  1.0
  O  O57  1  0.60687347  0.21756586  0.48535688  1.0
  O  O58  1  0.41283641  0.80638537  0.45071968  1.0
  O  O59  1  0.41862823  0.20581517  0.55946502  1.0
  O  O60  1  0.56028366  0.75102310  0.53891669  1.0
  O  O61  1  0.78878842  0.44424392  0.44259135  1.0
  O  O62  1  0.24163428  0.60649091  0.41588865  1.0
