# generated using pymatgen
data_Zn2H46C57(NO3)4
_symmetry_space_group_name_H-M   'P 1'
_cell_length_a   9.58608923
_cell_length_b   10.83590416
_cell_length_c   28.13831702
_cell_angle_alpha   90.23225092
_cell_angle_beta   89.91904806
_cell_angle_gamma   89.80708976
_symmetry_Int_Tables_number   1
_chemical_formula_structural   Zn2H46C57(NO3)4
_chemical_formula_sum   'Zn2 H46 C57 N4 O12'
_cell_volume   2922.79441750
_cell_formula_units_Z   1
loop_
 _symmetry_equiv_pos_site_id
 _symmetry_equiv_pos_as_xyz
  1  'x, y, z'
loop_
 _atom_site_type_symbol
 _atom_site_label
 _atom_site_symmetry_multiplicity
 _atom_site_fract_x
 _atom_site_fract_y
 _atom_site_fract_z
 _atom_site_occupancy
  Zn  Zn0  1  0.64712754  0.49971476  0.49996857  1.0
  Zn  Zn1  1  0.35290107  0.50060734  0.49988281  1.0
  H  H2  1  0.72379039  0.49641648  0.34673896  1.0
  H  H3  1  0.72342720  0.49911992  0.25741666  1.0
  H  H4  1  0.27588734  0.50945872  0.65214255  1.0
  H  H5  1  0.27277662  0.50553039  0.74152333  1.0
  H  H6  1  0.48982814  0.79994613  0.87613562  1.0
  H  H7  1  0.48189963  0.80867720  0.96419704  1.0
  H  H8  1  0.42269641  0.80492880  0.03158114  1.0
  H  H9  1  0.27703976  0.50961704  0.34764042  1.0
  H  H10  1  0.27542447  0.51312925  0.25832749  1.0
  H  H11  1  0.57181463  0.20311778  0.12364817  1.0
  H  H12  1  0.49562085  0.18451074  0.96846773  1.0
  H  H13  1  0.72191766  0.48336150  0.65323012  1.0
  H  H14  1  0.71992643  0.47807631  0.74257201  1.0
  H  H15  1  0.56300493  0.19271953  0.03551495  1.0
  H  H16  1  0.70723218  0.89132691  0.46798348  1.0
  H  H17  1  0.32097054  0.89254672  0.54542413  1.0
  H  H18  1  0.70869586  0.89206498  0.53047165  1.0
  H  H19  1  0.48085109  0.89298159  0.57646222  1.0
  H  H20  1  0.70897599  0.10782586  0.53033742  1.0
  H  H21  1  0.48093189  0.10808916  0.57663746  1.0
  H  H22  1  0.70658177  0.10709225  0.46787134  1.0
  H  H23  1  0.32094451  0.10916649  0.54567134  1.0
  H  H24  1  0.47729013  0.89221234  0.42349779  1.0
  H  H25  1  0.31886066  0.89179956  0.45551450  1.0
  H  H26  1  0.47671998  0.10732006  0.42366621  1.0
  H  H27  1  0.31840586  0.10843489  0.45577506  1.0
  H  H28  1  0.12339681  0.62526107  0.44232448  1.0
  H  H29  1  0.87514865  0.62517193  0.44248761  1.0
  H  H30  1  0.12292869  0.69349220  0.49940853  1.0
  H  H31  1  0.87525515  0.69350088  0.49958179  1.0
  H  H32  1  0.12452603  0.40466721  0.43393080  1.0
  H  H33  1  0.87601862  0.40491604  0.43404740  1.0
  H  H34  1  0.12419978  0.40202925  0.56287637  1.0
  H  H35  1  0.87672998  0.40185829  0.56300000  1.0
  H  H36  1  0.12328453  0.56429807  0.56913278  1.0
  H  H37  1  0.87607774  0.56403014  0.56932907  1.0
  H  H38  1  0.12460714  0.30985960  0.48494741  1.0
  H  H39  1  0.87663338  0.30977027  0.48498532  1.0
  H  H40  1  0.68382459  0.14736025  0.83885129  1.0
  H  H41  1  0.69941463  0.07495464  0.89547996  1.0
  H  H42  1  0.62222747  0.99490034  0.84674254  1.0
  H  H43  1  0.44046379  0.07419254  0.90442481  1.0
  H  H44  1  0.42091498  0.13538345  0.84627991  1.0
  H  H45  1  0.38594071  0.91801521  0.09509708  1.0
  H  H46  1  0.31641594  0.84393516  0.14660629  1.0
  H  H47  1  0.49261437  0.88253267  0.14547570  1.0
  C  C48  1  0.49877715  0.73947718  0.50011574  1.0
  C  C49  1  0.50181865  0.50088705  0.40569080  1.0
  C  C50  1  0.49875924  0.26077055  0.50024559  1.0
  C  C51  1  0.50108479  0.49953739  0.59419635  1.0
  C  C52  1  0.47082578  0.61952124  0.17903545  1.0
  C  C53  1  0.52613795  0.39306435  0.17944814  1.0
  C  C54  1  0.37316600  0.50961769  0.27802129  1.0
  C  C55  1  0.37407959  0.50771062  0.32747656  1.0
  C  C56  1  0.62638211  0.50030251  0.32693551  1.0
  C  C57  1  0.62617679  0.50223151  0.27749237  1.0
  C  C58  1  0.49939903  0.50693536  0.25336251  1.0
  C  C59  1  0.49455932  0.50512457  0.10166725  1.0
  C  C60  1  0.46859822  0.61802838  0.12641400  1.0
  C  C61  1  0.44047106  0.72644259  0.10068625  1.0
  C  C62  1  0.52269371  0.39492181  0.12702999  1.0
  C  C63  1  0.50054937  0.50300804  0.35229353  1.0
  C  C64  1  0.49906213  0.49656473  0.64760718  1.0
  C  C65  1  0.48290946  0.61065566  0.97327035  1.0
  C  C66  1  0.50062230  0.38201463  0.97475513  1.0
  C  C67  1  0.49235106  0.49489487  0.94901760  1.0
  C  C68  1  0.48390081  0.71917748  0.94651488  1.0
  C  C69  1  0.48887790  0.71544499  0.89704289  1.0
  C  C70  1  0.49167042  0.60339929  0.87285682  1.0
  C  C71  1  0.49328032  0.49036488  0.89817176  1.0
  C  C72  1  0.49498000  0.37500585  0.87339001  1.0
  C  C73  1  0.49676662  0.37481136  0.82064381  1.0
  C  C74  1  0.49332779  0.60625136  0.82046637  1.0
  C  C75  1  0.37057449  0.49991236  0.72181923  1.0
  C  C76  1  0.37235751  0.50245905  0.67237323  1.0
  C  C77  1  0.62427407  0.48775683  0.67300353  1.0
  C  C78  1  0.62316770  0.48480197  0.72244109  1.0
  C  C79  1  0.49614271  0.49091842  0.74650592  1.0
  C  C80  1  0.47265347  0.61218771  0.02516353  1.0
  C  C81  1  0.49308738  0.50046403  0.05083941  1.0
  C  C82  1  0.51229888  0.38566303  0.02659379  1.0
  C  C83  1  0.44433061  0.71980617  0.05072305  1.0
  C  C84  1  0.54812276  0.28511306  0.10278528  1.0
  C  C85  1  0.49677897  0.27164940  0.94925200  1.0
  C  C86  1  0.49247099  0.26402189  0.89928983  1.0
  C  C87  1  0.54232037  0.28028034  0.05329974  1.0
  C  C88  1  0.65295963  0.92840218  0.49939870  1.0
  C  C89  1  0.42767427  0.92915630  0.54478634  1.0
  C  C90  1  0.65284816  0.07096672  0.49938681  1.0
  C  C91  1  0.42767080  0.07199266  0.54490719  1.0
  C  C92  1  0.42551805  0.92852174  0.45558547  1.0
  C  C93  1  0.50260168  0.87982662  0.49991213  1.0
  C  C94  1  0.50244586  0.12035653  0.50006415  1.0
  C  C95  1  0.42523383  0.07144259  0.45571325  1.0
  C  C96  1  0.08004106  0.61733044  0.47830781  1.0
  C  C97  1  0.91862929  0.61730641  0.47841924  1.0
  C  C98  1  0.08109427  0.39475392  0.46981910  1.0
  C  C99  1  0.91951553  0.39477700  0.46988408  1.0
  C  C100  1  0.08060743  0.48757046  0.54825612  1.0
  C  C101  1  0.91949306  0.48748866  0.54835741  1.0
  C  C102  1  0.48755348  0.13596966  0.87786456  1.0
  C  C103  1  0.63228529  0.08551283  0.86408038  1.0
  C  C104  1  0.40711381  0.84949548  0.12286642  1.0
  N  N105  1  0.49877806  0.50637304  0.20205674  1.0
  N  N106  1  0.49455018  0.49075291  0.79785615  1.0
  N  N107  1  0.13394084  0.49998988  0.49881700  1.0
  N  N108  1  0.86587957  0.49988006  0.49899027  1.0
  O  O109  1  0.61542381  0.68310783  0.50030344  1.0
  O  O110  1  0.37948015  0.68830571  0.50015886  1.0
  O  O111  1  0.62059817  0.49972397  0.42585059  1.0
  O  O112  1  0.38372876  0.50052333  0.42662761  1.0
  O  O113  1  0.61548485  0.31639240  0.50013645  1.0
  O  O114  1  0.37944801  0.31274644  0.50048662  1.0
  O  O115  1  0.62003352  0.49951929  0.57413489  1.0
  O  O116  1  0.38341505  0.50161635  0.57322297  1.0
  O  O117  1  0.45020964  0.71296070  0.20315758  1.0
  O  O118  1  0.49381921  0.70261755  0.79738887  1.0
  O  O119  1  0.55047130  0.29913291  0.20253264  1.0
  O  O120  1  0.50071212  0.28057552  0.79603404  1.0
