# generated using pymatgen
data_ZnH14C15(NO2)2
_symmetry_space_group_name_H-M   'P 1'
_cell_length_a   9.71466968
_cell_length_b   11.02569670
_cell_length_c   13.02303408
_cell_angle_alpha   84.63708619
_cell_angle_beta   77.31300543
_cell_angle_gamma   81.80501384
_symmetry_Int_Tables_number   1
_chemical_formula_structural   ZnH14C15(NO2)2
_chemical_formula_sum   'Zn2 H28 C30 N4 O8'
_cell_volume   1344.16308038
_cell_formula_units_Z   2
loop_
 _symmetry_equiv_pos_site_id
 _symmetry_equiv_pos_as_xyz
  1  'x, y, z'
loop_
 _atom_site_type_symbol
 _atom_site_label
 _atom_site_symmetry_multiplicity
 _atom_site_fract_x
 _atom_site_fract_y
 _atom_site_fract_z
 _atom_site_occupancy
  Zn  Zn0  1  0.64987304  0.48673726  0.48403353  1.0
  Zn  Zn1  1  0.34735589  0.52632959  0.51126016  1.0
  H  H2  1  0.33333333  0.53737650  0.19973738  1.0
  H  H3  1  0.66025533  0.45597522  0.79758041  1.0
  H  H4  1  0.78714915  0.44911955  0.13624948  1.0
  H  H5  1  0.20761873  0.52953777  0.86199646  1.0
  H  H6  1  0.27997033  0.13896024  0.57813912  1.0
  H  H7  1  0.71721681  0.87347091  0.41660650  1.0
  H  H8  1  0.27948645  0.91111897  0.57808787  1.0
  H  H9  1  0.71767798  0.10119734  0.41661952  1.0
  H  H10  1  0.86825744  0.62249516  0.37424624  1.0
  H  H11  1  0.13029967  0.38897081  0.61943786  1.0
  H  H12  1  0.09066098  0.57000106  0.02963898  1.0
  H  H13  1  0.02021245  0.47189597  0.20086940  1.0
  H  H14  1  0.19878161  0.40270298  0.19313055  1.0
  H  H15  1  0.09701532  0.35929981  0.10729983  1.0
  H  H16  1  0.80729597  0.37691979  0.87003558  1.0
  H  H17  1  0.01077761  0.48553389  0.84729919  1.0
  H  H18  1  0.92199752  0.56559740  0.96109525  1.0
  H  H19  1  0.85368005  0.59188473  0.84415620  1.0
  H  H20  1  0.98005773  0.84662601  0.43015666  1.0
  H  H21  1  0.13738809  0.81316011  0.48288443  1.0
  H  H22  1  0.14514341  0.88979647  0.35622330  1.0
  H  H23  1  0.24795071  0.66922911  0.34107324  1.0
  H  H24  1  0.09469150  0.70122074  0.28530858  1.0
  H  H25  1  0.86007561  0.20080900  0.50492885  1.0
  H  H26  1  0.01872537  0.16368228  0.55585176  1.0
  H  H27  1  0.85399359  0.11938345  0.62943234  1.0
  H  H28  1  0.91009368  0.30298965  0.70400603  1.0
  H  H29  1  0.75278694  0.33895030  0.65212327  1.0
  C  C30  1  0.49959277  0.26895949  0.49887699  1.0
  C  C31  1  0.49751801  0.74338067  0.49663136  1.0
  C  C32  1  0.49821626  0.87915130  0.49711089  1.0
  C  C33  1  0.49904190  0.13321965  0.49794531  1.0
  C  C34  1  0.06554616  0.59435350  0.43057431  1.0
  C  C35  1  0.93375784  0.41612039  0.56216920  1.0
  C  C36  1  0.92865984  0.56993809  0.42850324  1.0
  C  C37  1  0.07000066  0.44110197  0.56492256  1.0
  C  C38  1  0.44062248  0.49653516  0.70435440  1.0
  C  C39  1  0.55683445  0.50923024  0.29168668  1.0
  C  C40  1  0.55909269  0.49711351  0.17781809  1.0
  C  C41  1  0.43580405  0.49359905  0.82013673  1.0
  C  C42  1  0.29879544  0.51400838  0.00001512  1.0
  C  C43  1  0.69149656  0.45059267  0.00211680  1.0
  C  C44  1  0.30475316  0.51387934  0.89267270  1.0
  C  C45  1  0.68899385  0.46500041  0.10688703  1.0
  C  C46  1  0.56147740  0.46994474  0.85597521  1.0
  C  C47  1  0.43169828  0.51168552  0.14379859  1.0
  C  C48  1  0.56144473  0.46969323  0.96434322  1.0
  C  C49  1  0.42898665  0.49656873  0.03803231  1.0
  C  C50  1  0.37509807  0.07990517  0.54278142  1.0
  C  C51  1  0.62208507  0.93247599  0.45206411  1.0
  C  C52  1  0.37469890  0.95384941  0.54257503  1.0
  C  C53  1  0.62247499  0.05854789  0.45231473  1.0
  C  C54  1  0.11846728  0.43716143  0.14660275  1.0
  C  C55  1  0.90634013  0.52063581  0.89347988  1.0
  C  C56  1  0.13214440  0.69447157  0.35972758  1.0
  C  C57  1  0.09551506  0.81858489  0.41071190  1.0
  C  C58  1  0.86853871  0.31384322  0.63103688  1.0
  C  C59  1  0.90343382  0.19194830  0.57660873  1.0
  N  N60  1  0.86392698  0.48329920  0.49271807  1.0
  N  N61  1  0.13458830  0.52798426  0.50081755  1.0
  N  N62  1  0.16724524  0.53780561  0.07114800  1.0
  N  N63  1  0.82335730  0.41853693  0.93230050  1.0
  O  O64  1  0.62089739  0.30747819  0.48209632  1.0
  O  O65  1  0.37609481  0.70502434  0.51464518  1.0
  O  O66  1  0.37949558  0.33527456  0.51642630  1.0
  O  O67  1  0.61760308  0.67699055  0.47838218  1.0
  O  O68  1  0.56405817  0.48506247  0.64400666  1.0
  O  O69  1  0.43412157  0.52742344  0.35229498  1.0
  O  O70  1  0.32314519  0.51046206  0.67360540  1.0
  O  O71  1  0.67492036  0.49869633  0.32131057  1.0
