# generated using pymatgen
data_Cu3H18C33N7
_symmetry_space_group_name_H-M   'P 1'
_cell_length_a   36.36828231
_cell_length_b   36.78656824
_cell_length_c   36.77981548
_cell_angle_alpha   90.00263911
_cell_angle_beta   90.01401920
_cell_angle_gamma   89.99976467
_symmetry_Int_Tables_number   1
_chemical_formula_structural   Cu3H18C33N7
_chemical_formula_sum   'Cu12 H72 C132 N28'
_cell_volume   49206.40052776
_cell_formula_units_Z   4
loop_
 _symmetry_equiv_pos_site_id
 _symmetry_equiv_pos_as_xyz
  1  'x, y, z'
loop_
 _atom_site_type_symbol
 _atom_site_label
 _atom_site_symmetry_multiplicity
 _atom_site_fract_x
 _atom_site_fract_y
 _atom_site_fract_z
 _atom_site_occupancy
  Cu  Cu0  1  0.12417925  0.90942262  0.15751355  1.0
  Cu  Cu1  1  0.16077570  0.87383368  0.08787668  1.0
  Cu  Cu2  1  0.08908196  0.83837492  0.12333224  1.0
  Cu  Cu3  1  0.87440161  0.59232180  0.65933125  1.0
  Cu  Cu4  1  0.83928729  0.62651663  0.58828172  1.0
  Cu  Cu5  1  0.91079760  0.66215744  0.62402468  1.0
  Cu  Cu6  1  0.62422441  0.09048967  0.34239146  1.0
  Cu  Cu7  1  0.66075323  0.12595040  0.41211698  1.0
  Cu  Cu8  1  0.58921088  0.16160028  0.37648749  1.0
  Cu  Cu9  1  0.37501895  0.40827226  0.84118203  1.0
  Cu  Cu10  1  0.33947112  0.37362957  0.91179868  1.0
  Cu  Cu11  1  0.41097499  0.33796454  0.87607489  1.0
  H  H12  1  0.17748408  0.97652624  0.17034833  1.0
  H  H13  1  0.22852050  0.92770048  0.07573567  1.0
  H  H14  1  0.02213063  0.82537193  0.17797851  1.0
  H  H15  1  0.07027193  0.92280923  0.22405444  1.0
  H  H16  1  0.17392484  0.81977684  0.02183163  1.0
  H  H17  1  0.07650029  0.77179483  0.06982227  1.0
  H  H18  1  0.82042851  0.52582620  0.67270720  1.0
  H  H19  1  0.77228833  0.57194341  0.57527183  1.0
  H  H20  1  0.97838673  0.67445542  0.67803404  1.0
  H  H21  1  0.92790776  0.57922475  0.72625697  1.0
  H  H22  1  0.82695371  0.67985794  0.52153478  1.0
  H  H23  1  0.92375558  0.72839893  0.57016577  1.0
  H  H24  1  0.67749818  0.02336859  0.32956173  1.0
  H  H25  1  0.72852623  0.07213512  0.42424046  1.0
  H  H26  1  0.52222435  0.17459140  0.32187132  1.0
  H  H27  1  0.57032516  0.07713523  0.27581263  1.0
  H  H28  1  0.67367846  0.17977210  0.47840064  1.0
  H  H29  1  0.57689449  0.22838042  0.42980477  1.0
  H  H30  1  0.32118162  0.47484543  0.82786330  1.0
  H  H31  1  0.27227319  0.42801776  0.92458792  1.0
  H  H32  1  0.47833449  0.32546012  0.82184586  1.0
  H  H33  1  0.42860942  0.42143855  0.77436154  1.0
  H  H34  1  0.32693193  0.32004739  0.97833307  1.0
  H  H35  1  0.42371192  0.27150586  0.92970768  1.0
  H  H36  1  0.33771783  0.00582624  0.13790790  1.0
  H  H37  1  0.38565276  0.05394362  0.13860722  1.0
  H  H38  1  0.30376531  0.13408963  0.11148111  1.0
  H  H39  1  0.25578474  0.08601140  0.11103410  1.0
  H  H40  1  0.74445627  0.41456342  0.61131822  1.0
  H  H41  1  0.69670284  0.36626581  0.61158115  1.0
  H  H42  1  0.61435846  0.44599410  0.63853813  1.0
  H  H43  1  0.66206377  0.49434226  0.63802804  1.0
  H  H44  1  0.83769557  0.99404799  0.36202319  1.0
  H  H45  1  0.88564007  0.94592751  0.36126789  1.0
  H  H46  1  0.80377576  0.86576401  0.38838394  1.0
  H  H47  1  0.75578973  0.91384615  0.38886979  1.0
  H  H48  1  0.19796778  0.54077167  0.93342006  1.0
  H  H49  1  0.15027100  0.58907046  0.93300548  1.0
  H  H50  1  0.16090919  0.59846205  0.81675199  1.0
  H  H51  1  0.20881935  0.55036822  0.81712639  1.0
  H  H52  1  0.99438019  0.86150213  0.33536211  1.0
  H  H53  1  0.94665611  0.86171629  0.38368811  1.0
  H  H54  1  0.86423647  0.88864364  0.30398720  1.0
  H  H55  1  0.91191903  0.88817993  0.25561387  1.0
  H  H56  1  0.50588787  0.36119140  0.66393971  1.0
  H  H57  1  0.55380335  0.36160111  0.61580246  1.0
  H  H58  1  0.63580543  0.38874187  0.69586242  1.0
  H  H59  1  0.58792983  0.38805489  0.74404262  1.0
  H  H60  1  0.05242424  0.68350281  0.79129055  1.0
  H  H61  1  0.10025374  0.68288015  0.83948733  1.0
  H  H62  1  0.08932844  0.56663991  0.84864192  1.0
  H  H63  1  0.04130400  0.56724382  0.80062128  1.0
  H  H64  1  0.49439747  0.13843457  0.16448544  1.0
  H  H65  1  0.44664633  0.13817946  0.11615813  1.0
  H  H66  1  0.36427401  0.11126346  0.19587351  1.0
  H  H67  1  0.41198447  0.11176403  0.24424432  1.0
  H  H68  1  0.18423821  0.70663667  0.94848955  1.0
  H  H69  1  0.18417672  0.65883087  0.90081421  1.0
  H  H70  1  0.06633537  0.65052684  0.90921698  1.0
  H  H71  1  0.06637735  0.69814344  0.95707556  1.0
  H  H72  1  0.61305049  0.25691419  0.58770465  1.0
  H  H73  1  0.61283070  0.30471918  0.63545062  1.0
  H  H74  1  0.63777035  0.38567431  0.55452107  1.0
  H  H75  1  0.63774405  0.33791635  0.50673807  1.0
  H  H76  1  0.36300830  0.16210419  0.00677017  1.0
  H  H77  1  0.36276595  0.11435229  0.05455803  1.0
  H  H78  1  0.38778885  0.19524486  0.13555182  1.0
  H  H79  1  0.38777246  0.24304732  0.08780496  1.0
  H  H80  1  0.88779167  0.75681883  0.41201044  1.0
  H  H81  1  0.88777362  0.80462265  0.36427120  1.0
  H  H82  1  0.86278893  0.88549071  0.44528518  1.0
  H  H83  1  0.86305500  0.83773038  0.49307152  1.0
  C  C84  1  0.18525505  0.95999081  0.14718175  1.0
  C  C85  1  0.21513437  0.96421521  0.12318934  1.0
  C  C86  1  0.21143190  0.93491667  0.09878812  1.0
  C  C87  1  0.03848640  0.84914117  0.18449471  1.0
  C  C88  1  0.03416460  0.87413318  0.21320481  1.0
  C  C89  1  0.06318387  0.89898454  0.20816309  1.0
  C  C90  1  0.15019074  0.81266968  0.03819526  1.0
  C  C91  1  0.12526730  0.78365035  0.03380562  1.0
  C  C92  1  0.10021445  0.78817499  0.06269016  1.0
  C  C93  1  0.81335440  0.54171868  0.64887937  1.0
  C  C94  1  0.78431708  0.53670507  0.62402884  1.0
  C  C95  1  0.78864239  0.56542128  0.59904738  1.0
  C  C96  1  0.96138489  0.65132048  0.68517903  1.0
  C  C97  1  0.96531476  0.62668088  0.71428399  1.0
  C  C98  1  0.93561334  0.60247482  0.70981711  1.0
  C  C99  1  0.85060043  0.68703272  0.53800979  1.0
  C  C100  1  0.87541007  0.71613083  0.53375935  1.0
  C  C101  1  0.90008888  0.71196757  0.56298570  1.0
  C  C102  1  0.68525997  0.03987977  0.35275260  1.0
  C  C103  1  0.71513134  0.03562530  0.37676063  1.0
  C  C104  1  0.71144138  0.06492019  0.40117357  1.0
  C  C105  1  0.53857098  0.15081576  0.31536218  1.0
  C  C106  1  0.53423743  0.12583182  0.28664505  1.0
  C  C107  1  0.56325748  0.10097299  0.29168923  1.0
  C  C108  1  0.65001274  0.18694223  0.46195283  1.0
  C  C109  1  0.62534763  0.21617029  0.46610203  1.0
  C  C110  1  0.60053478  0.21191254  0.43699577  1.0
  C  C111  1  0.31385141  0.45872898  0.85145718  1.0
  C  C112  1  0.28462696  0.46360490  0.87614069  1.0
  C  C113  1  0.28889761  0.43481240  0.90107943  1.0
  C  C114  1  0.46158606  0.34886027  0.81496685  1.0
  C  C115  1  0.46556198  0.37355325  0.78594679  1.0
  C  C116  1  0.43607199  0.39794487  0.79057410  1.0
  C  C117  1  0.35057807  0.31287868  0.96186771  1.0
  C  C118  1  0.37535036  0.28374065  0.96608345  1.0
  C  C119  1  0.40005854  0.28794881  0.93689848  1.0
  C  C120  1  0.29332915  0.04248612  0.12440515  1.0
  C  C121  1  0.33033728  0.03399942  0.13233426  1.0
  C  C122  1  0.35714683  0.06086382  0.13265052  1.0
  C  C123  1  0.34787407  0.09718021  0.12506863  1.0
  C  C124  1  0.31110598  0.10593957  0.11717981  1.0
  C  C125  1  0.28432118  0.07905423  0.11684752  1.0
  C  C126  1  0.26594876  0.01506609  0.12400201  1.0
  C  C127  1  0.24236765  0.99143925  0.12358156  1.0
  C  C128  1  0.70666565  0.45790593  0.62461337  1.0
  C  C129  1  0.71587229  0.42139263  0.61704889  1.0
  C  C130  1  0.68921756  0.39437763  0.61728378  1.0
  C  C131  1  0.65238500  0.40295278  0.62507991  1.0
  C  C132  1  0.64291549  0.43921843  0.63266417  1.0
  C  C133  1  0.66959387  0.46620816  0.63245457  1.0
  C  C134  1  0.73388682  0.48548771  0.62435715  1.0
  C  C135  1  0.75728344  0.50929183  0.62418125  1.0
  C  C136  1  0.79332889  0.95737204  0.37551658  1.0
  C  C137  1  0.83032507  0.96586833  0.36756890  1.0
  C  C138  1  0.85713450  0.93900715  0.36721745  1.0
  C  C139  1  0.84786665  0.90268788  0.37479344  1.0
  C  C140  1  0.81110528  0.89391920  0.38269384  1.0
  C  C141  1  0.78432198  0.92080186  0.38305047  1.0
  C  C142  1  0.76594727  0.98478833  0.37595031  1.0
  C  C143  1  0.74234963  0.00839794  0.37635813  1.0
  C  C144  1  0.20685614  0.54208980  0.87531299  1.0
  C  C145  1  0.18995099  0.55362066  0.90791926  1.0
  C  C146  1  0.16322624  0.58054654  0.90769134  1.0
  C  C147  1  0.15241183  0.59695118  0.87485126  1.0
  C  C148  1  0.16906594  0.58568510  0.84224304  1.0
  C  C149  1  0.19578629  0.55874427  0.84246172  1.0
  C  C150  1  0.23408791  0.51463328  0.87558477  1.0
  C  C151  1  0.25755851  0.49088336  0.87587900  1.0
  C  C152  1  0.95654712  0.87479309  0.29203479  1.0
  C  C153  1  0.96578459  0.86720422  0.32854455  1.0
  C  C154  1  0.93914699  0.86741210  0.35557483  1.0
  C  C155  1  0.90230628  0.87519935  0.34701739  1.0
  C  C156  1  0.89280678  0.88281460  0.31075472  1.0
  C  C157  1  0.91947105  0.88262684  0.28375218  1.0
  C  C158  1  0.98374536  0.87452676  0.26443257  1.0
  C  C159  1  0.00713959  0.87430736  0.24062951  1.0
  C  C160  1  0.54349291  0.37456452  0.70742682  1.0
  C  C161  1  0.53443309  0.36699731  0.67086620  1.0
  C  C162  1  0.56118426  0.36731164  0.64394771  1.0
  C  C163  1  0.59796558  0.37520810  0.65266073  1.0
  C  C164  1  0.60728551  0.38280575  0.68897318  1.0
  C  C165  1  0.58050850  0.38249740  0.71587073  1.0
  C  C166  1  0.51617891  0.37417519  0.73490990  1.0
  C  C167  1  0.49269588  0.37384800  0.75863034  1.0
  C  C168  1  0.04339947  0.62542909  0.79250246  1.0
  C  C169  1  0.06042177  0.65796378  0.80406784  1.0
  C  C170  1  0.08721286  0.65761272  0.83093889  1.0
  C  C171  1  0.09796000  0.62471255  0.84725891  1.0
  C  C172  1  0.08119508  0.59217541  0.83595378  1.0
  C  C173  1  0.05441554  0.59251859  0.80905691  1.0
  C  C174  1  0.01606971  0.62584948  0.76513483  1.0
  C  C175  1  0.99249769  0.62626675  0.74147432  1.0
  C  C176  1  0.45658935  0.12513677  0.20781248  1.0
  C  C177  1  0.46580918  0.13271274  0.17129909  1.0
  C  C178  1  0.43915639  0.13248941  0.14427416  1.0
  C  C179  1  0.40232026  0.12469690  0.15283664  1.0
  C  C180  1  0.39283756  0.11710842  0.18910201  1.0
  C  C181  1  0.41952060  0.11730131  0.21610383  1.0
  C  C182  1  0.48380447  0.12542805  0.23540931  1.0
  C  C183  1  0.50720270  0.12566639  0.25922036  1.0
  C  C184  1  0.12531481  0.70582027  0.95622887  1.0
  C  C185  1  0.15846861  0.69412118  0.93998290  1.0
  C  C186  1  0.15843444  0.66746807  0.91327262  1.0
  C  C187  1  0.12525494  0.65149819  0.90185314  1.0
  C  C188  1  0.09210690  0.66292436  0.91787289  1.0
  C  C189  1  0.09213063  0.68960573  0.94455706  1.0
  C  C190  1  0.12534130  0.73303908  0.98339894  1.0
  C  C191  1  0.12533320  0.75655034  0.00685201  1.0
  C  C192  1  0.62542173  0.29401958  0.54382494  1.0
  C  C193  1  0.61825395  0.28519066  0.58050729  1.0
  C  C194  1  0.61821250  0.31187448  0.60719988  1.0
  C  C195  1  0.62529131  0.34833459  0.59812614  1.0
  C  C196  1  0.63242803  0.35741959  0.56167734  1.0
  C  C197  1  0.63251017  0.33071347  0.53501167  1.0
  C  C198  1  0.62546150  0.26677875  0.51657006  1.0
  C  C199  1  0.62542637  0.24329041  0.49311985  1.0
  C  C200  1  0.37540602  0.20597154  0.04389250  1.0
  C  C201  1  0.36821757  0.16929602  0.03505503  1.0
  C  C202  1  0.36816310  0.14259514  0.06172620  1.0
  C  C203  1  0.37527042  0.15166049  0.09819212  1.0
  C  C204  1  0.38244651  0.18809979  0.10728624  1.0
  C  C205  1  0.38252407  0.21478000  0.08059278  1.0
  C  C206  1  0.37543931  0.23322017  0.01664903  1.0
  C  C207  1  0.37541001  0.25668176  0.99317007  1.0
  C  C208  1  0.87545718  0.79388154  0.45593687  1.0
  C  C209  1  0.88254190  0.78508256  0.41923178  1.0
  C  C210  1  0.88243798  0.81176142  0.39253719  1.0
  C  C211  1  0.87527492  0.84819558  0.40164072  1.0
  C  C212  1  0.86819763  0.85725307  0.43811309  1.0
  C  C213  1  0.86826580  0.83055274  0.46478728  1.0
  C  C214  1  0.87551051  0.76662339  0.48317166  1.0
  C  C215  1  0.87548268  0.74316471  0.50664964  1.0
  N  N216  1  0.62522322  0.37549224  0.62529427  1.0
  N  N217  1  0.37517169  0.12450592  0.12535673  1.0
  N  N218  1  0.12521525  0.62437997  0.87464474  1.0
  N  N219  1  0.87516468  0.87536511  0.37448938  1.0
  N  N220  1  0.18170122  0.91500655  0.10767955  1.0
  N  N221  1  0.16550851  0.93054183  0.13767900  1.0
  N  N222  1  0.08304143  0.88939810  0.17881557  1.0
  N  N223  1  0.06776263  0.85850444  0.16414947  1.0
  N  N224  1  0.10962039  0.81749269  0.08251237  1.0
  N  N225  1  0.14057909  0.83269369  0.06730968  1.0
  N  N226  1  0.81792812  0.58575042  0.60842649  1.0
  N  N227  1  0.83321399  0.57107103  0.63931463  1.0
  N  N228  1  0.91577731  0.61208834  0.68046532  1.0
  N  N229  1  0.93174958  0.64233807  0.66517598  1.0
  N  N230  1  0.89058887  0.68273141  0.58289287  1.0
  N  N231  1  0.85989386  0.66729100  0.56742498  1.0
  N  N232  1  0.68172410  0.08484461  0.39226795  1.0
  N  N233  1  0.66553008  0.06933719  0.36225010  1.0
  N  N234  1  0.58311227  0.11054364  0.32105321  1.0
  N  N235  1  0.56784275  0.14143767  0.33571651  1.0
  N  N236  1  0.60981710  0.18249143  0.41726323  1.0
  N  N237  1  0.64050773  0.16703062  0.43271521  1.0
  N  N238  1  0.31828278  0.41458559  0.89182228  1.0
  N  N239  1  0.33374954  0.42943397  0.86109549  1.0
  N  N240  1  0.41629219  0.38839335  0.81998667  1.0
  N  N241  1  0.43207395  0.35796516  0.83509471  1.0
  N  N242  1  0.39061375  0.31724463  0.91705003  1.0
  N  N243  1  0.35992093  0.33268416  0.93251338  1.0
