# generated using pymatgen
data_Zn4H32C81S2(N7O19)2
_symmetry_space_group_name_H-M   'P 1'
_cell_length_a   16.51293178
_cell_length_b   17.87011931
_cell_length_c   30.59408849
_cell_angle_alpha   90.33061047
_cell_angle_beta   89.97324015
_cell_angle_gamma   89.87249153
_symmetry_Int_Tables_number   1
_chemical_formula_structural   Zn4H32C81S2(N7O19)2
_chemical_formula_sum   'Zn4 H32 C81 S2 N14 O38'
_cell_volume   9027.77656207
_cell_formula_units_Z   1
loop_
 _symmetry_equiv_pos_site_id
 _symmetry_equiv_pos_as_xyz
  1  'x, y, z'
loop_
 _atom_site_type_symbol
 _atom_site_label
 _atom_site_symmetry_multiplicity
 _atom_site_fract_x
 _atom_site_fract_y
 _atom_site_fract_z
 _atom_site_occupancy
  Zn  Zn0  1  0.58418101  0.50237356  0.50095887  1.0
  Zn  Zn1  1  0.41528526  0.49899157  0.50135052  1.0
  Zn  Zn2  1  0.41643290  0.50353550  0.91797634  1.0
  Zn  Zn3  1  0.58471581  0.49927467  0.91618161  1.0
  H  H4  1  0.28275433  0.56441922  0.55598595  1.0
  H  H5  1  0.13039484  0.56483361  0.55641317  1.0
  H  H6  1  0.28974320  0.42108519  0.44875135  1.0
  H  H7  1  0.71012368  0.59104068  0.54811182  1.0
  H  H8  1  0.71731088  0.41866505  0.45669440  1.0
  H  H9  1  0.86991361  0.41559855  0.45793836  1.0
  H  H10  1  0.62483992  0.74363870  0.50365620  1.0
  H  H11  1  0.61827071  0.88359346  0.50411550  1.0
  H  H12  1  0.36508782  0.73450478  0.49576950  1.0
  H  H13  1  0.63898180  0.26363202  0.49945084  1.0
  H  H14  1  0.37930335  0.26134512  0.50878700  1.0
  H  H15  1  0.38141291  0.12119366  0.50701584  1.0
  H  H16  1  0.62740836  0.49672549  0.76682632  1.0
  H  H17  1  0.37632884  0.50818019  0.05903111  1.0
  H  H18  1  0.38187179  0.50917900  0.14088135  1.0
  H  H19  1  0.63638737  0.49803654  0.05435288  1.0
  H  H20  1  0.36360618  0.49173889  0.36359634  1.0
  H  H21  1  0.62343555  0.50579488  0.36064095  1.0
  H  H22  1  0.61957564  0.50890286  0.27876674  1.0
  H  H23  1  0.71859059  0.57942407  0.87069046  1.0
  H  H24  1  0.87121029  0.58135701  0.87232615  1.0
  H  H25  1  0.70965670  0.41853563  0.96786719  1.0
  H  H26  1  0.28983345  0.58894717  0.87035507  1.0
  H  H27  1  0.28394048  0.42036381  0.96303177  1.0
  H  H28  1  0.13128488  0.41980719  0.96364009  1.0
  H  H29  1  0.37442086  0.74474038  0.91501180  1.0
  H  H30  1  0.38045661  0.88481246  0.91574473  1.0
  H  H31  1  0.63449549  0.73544699  0.91878179  1.0
  H  H32  1  0.36337554  0.26697656  0.91948842  1.0
  H  H33  1  0.62344054  0.25899689  0.91564246  1.0
  H  H34  1  0.61833618  0.11882626  0.91658959  1.0
  H  H35  1  0.33194734  0.58983908  0.68355001  1.0
  C  C36  1  0.49848616  0.64628875  0.49925196  1.0
  C  C37  1  0.49716740  0.50395437  0.58589743  1.0
  C  C38  1  0.50789801  0.35524586  0.50373456  1.0
  C  C39  1  0.49588277  0.49593877  0.41616734  1.0
  C  C40  1  0.50111678  0.64760499  0.91672660  1.0
  C  C41  1  0.50187164  0.50096669  0.83156685  1.0
  C  C42  1  0.49638325  0.35539386  0.91723917  1.0
  C  C43  1  0.50315310  0.50134937  0.00257029  1.0
  C  C44  1  0.24798148  0.53255179  0.53205654  1.0
  C  C45  1  0.16403341  0.53203608  0.53239351  1.0
  C  C46  1  0.12151243  0.48851876  0.50140722  1.0
  C  C47  1  0.16886311  0.44704236  0.47134793  1.0
  C  C48  1  0.25285385  0.45160366  0.47244029  1.0
  C  C49  1  0.03620552  0.49048447  0.50197272  1.0
  C  C50  1  0.96379662  0.50062691  0.50710057  1.0
  C  C51  1  0.87858695  0.50334740  0.50679972  1.0
  C  C52  1  0.83107135  0.55294919  0.53221192  1.0
  C  C53  1  0.74709933  0.55248445  0.52885259  1.0
  C  C54  1  0.75221504  0.45641180  0.47750261  1.0
  C  C55  1  0.83609411  0.45454942  0.47852669  1.0
  C  C56  1  0.49545289  0.73015509  0.49978118  1.0
  C  C57  1  0.56677466  0.77259657  0.50226043  1.0
  C  C58  1  0.56324809  0.85011843  0.50273038  1.0
  C  C59  1  0.48819433  0.88863791  0.50171214  1.0
  C  C60  1  0.41714790  0.84439982  0.49957459  1.0
  C  C61  1  0.42074383  0.76669686  0.49805908  1.0
  C  C62  1  0.49042385  0.96744348  0.50229984  1.0
  C  C63  1  0.50700255  0.03403769  0.50280868  1.0
  C  C64  1  0.51122004  0.11274862  0.50356622  1.0
  C  C65  1  0.58358188  0.15517213  0.50157449  1.0
  C  C66  1  0.58233934  0.23294670  0.50142504  1.0
  C  C67  1  0.50882773  0.27136593  0.50405247  1.0
  C  C68  1  0.43629905  0.23076969  0.50649384  1.0
  C  C69  1  0.43744235  0.15319159  0.50580259  1.0
  C  C70  1  0.42873371  0.49960970  0.66208942  1.0
  C  C71  1  0.56522350  0.49771201  0.75521667  1.0
  C  C72  1  0.49513649  0.49877701  0.63410142  1.0
  C  C73  1  0.49985890  0.49934607  0.78335625  1.0
  C  C74  1  0.53956082  0.49754311  0.71120825  1.0
  C  C75  1  0.45456971  0.49930551  0.70643333  1.0
  C  C76  1  0.50582256  0.50280485  0.05149737  1.0
  C  C77  1  0.43415270  0.50632506  0.07612949  1.0
  C  C78  1  0.43711456  0.50735064  0.12140112  1.0
  C  C79  1  0.51197133  0.50634145  0.14400039  1.0
  C  C80  1  0.58337181  0.50354303  0.11832920  1.0
  C  C81  1  0.58035409  0.50097397  0.07295800  1.0
  C  C82  1  0.50941079  0.50662988  0.18997939  1.0
  C  C83  1  0.49290002  0.50614698  0.22889267  1.0
  C  C84  1  0.48958232  0.50461555  0.27485158  1.0
  C  C85  1  0.41773220  0.50019030  0.30003731  1.0
  C  C86  1  0.41991384  0.49605027  0.34535857  1.0
  C  C87  1  0.49400851  0.49827572  0.36725102  1.0
  C  C88  1  0.56605342  0.50359930  0.34313005  1.0
  C  C89  1  0.56397357  0.50585292  0.29786598  1.0
  C  C90  1  0.75308945  0.54354427  0.89263252  1.0
  C  C91  1  0.83698661  0.54426539  0.89353140  1.0
  C  C92  1  0.87899423  0.49591062  0.92204950  1.0
  C  C93  1  0.83107903  0.45017358  0.94918351  1.0
  C  C94  1  0.74704735  0.45323343  0.94678432  1.0
  C  C95  1  0.96428630  0.49691821  0.92157535  1.0
  C  C96  1  0.03666407  0.50565069  0.91572122  1.0
  C  C97  1  0.12191983  0.50640011  0.91466944  1.0
  C  C98  1  0.16901626  0.55405700  0.88824568  1.0
  C  C99  1  0.25308718  0.55196156  0.89040576  1.0
  C  C100  1  0.24875266  0.45790676  0.94239466  1.0
  C  C101  1  0.16481243  0.45751883  0.94247279  1.0
  C  C102  1  0.50400605  0.73134834  0.91673360  1.0
  C  C103  1  0.43236368  0.77374303  0.91582704  1.0
  C  C104  1  0.43558855  0.85121170  0.91610547  1.0
  C  C105  1  0.51057267  0.88954344  0.91675791  1.0
  C  C106  1  0.58194306  0.84539202  0.91741017  1.0
  C  C107  1  0.57865540  0.76771439  0.91776006  1.0
  C  C108  1  0.50800464  0.96823749  0.91719361  1.0
  C  C109  1  0.49109828  0.03478969  0.91745647  1.0
  C  C110  1  0.48825093  0.11347269  0.91743573  1.0
  C  C111  1  0.41664092  0.15728730  0.91836009  1.0
  C  C112  1  0.41941731  0.23497957  0.91863885  1.0
  C  C113  1  0.49385949  0.27167350  0.91745717  1.0
  C  C114  1  0.56573923  0.22963434  0.91655116  1.0
  C  C115  1  0.56301261  0.15215831  0.91688946  1.0
  C  C116  1  0.34175083  0.49980578  0.64841102  1.0
  S  S117  1  0.58722622  0.49624289  0.66119140  1.0
  S  S118  1  0.40677259  0.49951100  0.75668243  1.0
  N  N119  1  0.29133648  0.49366171  0.50225553  1.0
  N  N120  1  0.70869197  0.50458005  0.50223824  1.0
  N  N121  1  0.70915478  0.49849286  0.91863656  1.0
  N  N122  1  0.29186281  0.50441602  0.91684948  1.0
  N  N123  1  0.13209453  0.39787407  0.43791559  1.0
  N  N124  1  0.86788469  0.60661256  0.56304242  1.0
  N  N125  1  0.33609997  0.87927392  0.49903008  1.0
  N  N126  1  0.66350705  0.11834695  0.49924139  1.0
  N  N127  1  0.66420947  0.50328335  0.13884897  1.0
  N  N128  1  0.33731253  0.49983569  0.27902548  1.0
  N  N129  1  0.86739504  0.39757112  0.98067809  1.0
  N  N130  1  0.13174499  0.60739779  0.85764237  1.0
  N  N131  1  0.66286989  0.88021650  0.91770181  1.0
  N  N132  1  0.33599899  0.12201875  0.91923580  1.0
  O  O133  1  0.56692381  0.61585198  0.50701957  1.0
  O  O134  1  0.43261763  0.61208610  0.49124379  1.0
  O  O135  1  0.43144544  0.52081408  0.56672924  1.0
  O  O136  1  0.56571073  0.49182862  0.56789752  1.0
  O  O137  1  0.44035494  0.38721815  0.51130934  1.0
  O  O138  1  0.57474318  0.38796220  0.49571104  1.0
  O  O139  1  0.56359959  0.50916069  0.43453605  1.0
  O  O140  1  0.42943022  0.48137576  0.43547756  1.0
  O  O141  1  0.43157750  0.61738995  0.91332125  1.0
  O  O142  1  0.56841787  0.61324045  0.92021517  1.0
  O  O143  1  0.57128699  0.50653146  0.84948873  1.0
  O  O144  1  0.43366574  0.49665595  0.85106280  1.0
  O  O145  1  0.56540024  0.38567709  0.91203298  1.0
  O  O146  1  0.42921626  0.38960310  0.92228242  1.0
  O  O147  1  0.43425392  0.51042948  0.98459725  1.0
  O  O148  1  0.57019162  0.49133360  0.98274768  1.0
  O  O149  1  0.05851151  0.38545751  0.44094568  1.0
  O  O150  1  0.17759044  0.37213371  0.40940734  1.0
  O  O151  1  0.93774014  0.59345330  0.57556077  1.0
  O  O152  1  0.82579960  0.66080761  0.57439222  1.0
  O  O153  1  0.33127059  0.94729517  0.50689410  1.0
  O  O154  1  0.27731242  0.83822114  0.49097184  1.0
  O  O155  1  0.66704845  0.05026557  0.50663961  1.0
  O  O156  1  0.72280766  0.15795523  0.49006686  1.0
  O  O157  1  0.66854561  0.51828521  0.17840583  1.0
  O  O158  1  0.72320518  0.48840286  0.11513663  1.0
  O  O159  1  0.33347222  0.51662148  0.23978393  1.0
  O  O160  1  0.27818936  0.48314542  0.30202049  1.0
  O  O161  1  0.94074444  0.38428889  0.97694653  1.0
  O  O162  1  0.82168253  0.37037058  0.00835713  1.0
  O  O163  1  0.06077225  0.59565917  0.84652005  1.0
  O  O164  1  0.17452690  0.65988014  0.84509184  1.0
  O  O165  1  0.66706046  0.94886673  0.91251131  1.0
  O  O166  1  0.72229246  0.83847545  0.92295622  1.0
  O  O167  1  0.33178257  0.05384285  0.91185075  1.0
  O  O168  1  0.27688382  0.16296003  0.92729710  1.0
  O  O169  1  0.29677831  0.55693240  0.66639011  1.0
  O  O170  1  0.30942331  0.45392652  0.62494632  1.0
