# generated using pymatgen
data_AlH9C14N2O7
_symmetry_space_group_name_H-M   'P 1'
_cell_length_a   6.78415063
_cell_length_b   17.01354682
_cell_length_c   17.01356865
_cell_angle_alpha   86.48886872
_cell_angle_beta   81.74236299
_cell_angle_gamma   81.74247339
_symmetry_Int_Tables_number   1
_chemical_formula_structural   AlH9C14N2O7
_chemical_formula_sum   'Al2 H18 C28 N4 O14'
_cell_volume   1921.58587184
_cell_formula_units_Z   2
loop_
 _symmetry_equiv_pos_site_id
 _symmetry_equiv_pos_as_xyz
  1  'x, y, z'
loop_
 _atom_site_type_symbol
 _atom_site_label
 _atom_site_symmetry_multiplicity
 _atom_site_fract_x
 _atom_site_fract_y
 _atom_site_fract_z
 _atom_site_occupancy
  Al  Al0  1  0.49999383  0.49999985  0.49999936  1.0
  Al  Al1  1  0.99999265  0.49999931  0.50000030  1.0
  H  H2  1  0.74999896  0.42330313  0.57669559  1.0
  H  H3  1  0.25000162  0.57669358  0.42330492  1.0
  H  H4  1  0.34763342  0.74091710  0.50176078  1.0
  H  H5  1  0.29013872  0.88898873  0.49915419  1.0
  H  H6  1  0.92431312  0.89191883  0.49862727  1.0
  H  H7  1  0.07569154  0.10807910  0.50137001  1.0
  H  H8  1  0.70986236  0.11101100  0.50084203  1.0
  H  H9  1  0.65236359  0.25908142  0.49823748  1.0
  H  H10  1  0.84763531  0.50176098  0.74091801  1.0
  H  H11  1  0.79013912  0.49915513  0.88898858  1.0
  H  H12  1  0.42430905  0.49862987  0.89191826  1.0
  H  H13  1  0.57569181  0.50137043  0.10808030  1.0
  H  H14  1  0.20986146  0.50084159  0.11101134  1.0
  H  H15  1  0.15236296  0.49823812  0.25908133  1.0
  H  H16  1  0.01275243  0.68027967  0.50458932  1.0
  H  H17  1  0.98724964  0.31971705  0.49541052  1.0
  H  H18  1  0.51275215  0.50458940  0.68028065  1.0
  H  H19  1  0.48725040  0.49541031  0.31971783  1.0
  C  C20  1  0.19531945  0.50293579  0.64468121  1.0
  C  C21  1  0.30468221  0.35531747  0.49706257  1.0
  C  C22  1  0.80468182  0.49706333  0.35531679  1.0
  C  C23  1  0.69531649  0.64468045  0.50293622  1.0
  C  C24  1  0.66744434  0.73190972  0.50203610  1.0
  C  C25  1  0.47296250  0.77427180  0.50112324  1.0
  C  C26  1  0.43973978  0.85615174  0.49967140  1.0
  C  C27  1  0.60453178  0.89840330  0.49906017  1.0
  C  C28  1  0.79902510  0.85826477  0.49925754  1.0
  C  C29  1  0.83264229  0.77501646  0.50098360  1.0
  C  C30  1  0.20097321  0.14173437  0.50073886  1.0
  C  C31  1  0.39546486  0.10159645  0.50093453  1.0
  C  C32  1  0.56026021  0.14384679  0.50032553  1.0
  C  C33  1  0.52703918  0.22572613  0.49887480  1.0
  C  C34  1  0.33255585  0.26808820  0.49796202  1.0
  C  C35  1  0.16735662  0.22498088  0.49901403  1.0
  C  C36  1  0.16744490  0.50203647  0.73190985  1.0
  C  C37  1  0.97296305  0.50112312  0.77427204  1.0
  C  C38  1  0.93974033  0.49967119  0.85615171  1.0
  C  C39  1  0.10453276  0.49906259  0.89840282  1.0
  C  C40  1  0.29902594  0.49925902  0.85826478  1.0
  C  C41  1  0.33264147  0.50098493  0.77501667  1.0
  C  C42  1  0.70097275  0.50073890  0.14173460  1.0
  C  C43  1  0.89546423  0.50093591  0.10159721  1.0
  C  C44  1  0.06026005  0.50032613  0.14384760  1.0
  C  C45  1  0.02704010  0.49887479  0.22572709  1.0
  C  C46  1  0.83255616  0.49796323  0.26808872  1.0
  C  C47  1  0.66735851  0.49901359  0.22498202  1.0
  N  N48  1  0.58910849  0.98226553  0.49846996  1.0
  N  N49  1  0.41089219  0.01773539  0.50152563  1.0
  N  N50  1  0.08910773  0.49847363  0.98226470  1.0
  N  N51  1  0.91089311  0.50152666  0.01773503  1.0
  O  O52  1  0.37752782  0.50406124  0.60866655  1.0
  O  O53  1  0.12247507  0.39133354  0.49593746  1.0
  O  O54  1  0.95560748  0.49830414  0.39154541  1.0
  O  O55  1  0.54438980  0.60845207  0.50169292  1.0
  O  O56  1  0.62247512  0.49593726  0.39133316  1.0
  O  O57  1  0.87752490  0.60866496  0.50406182  1.0
  O  O58  1  0.04439379  0.50169497  0.60845259  1.0
  O  O59  1  0.45560871  0.39154646  0.49830409  1.0
  O  O60  1  0.74999747  0.46488346  0.53511884  1.0
  O  O61  1  0.24999908  0.53511620  0.46488350  1.0
  O  O62  1  0.02283115  0.73859936  0.50157663  1.0
  O  O63  1  0.97716775  0.26139797  0.49842217  1.0
  O  O64  1  0.52283259  0.50157679  0.73859928  1.0
  O  O65  1  0.47716930  0.49842054  0.26139878  1.0
