# generated using pymatgen
data_ZnH24C28(NO4)2
_symmetry_space_group_name_H-M   'P 1'
_cell_length_a   14.01672509
_cell_length_b   15.19614232
_cell_length_c   15.47777265
_cell_angle_alpha   87.26412033
_cell_angle_beta   64.82576542
_cell_angle_gamma   87.41326321
_symmetry_Int_Tables_number   1
_chemical_formula_structural   ZnH24C28(NO4)2
_chemical_formula_sum   'Zn2 H48 C56 N4 O16'
_cell_volume   2979.11065431
_cell_formula_units_Z   2
loop_
 _symmetry_equiv_pos_site_id
 _symmetry_equiv_pos_as_xyz
  1  'x, y, z'
loop_
 _atom_site_type_symbol
 _atom_site_label
 _atom_site_symmetry_multiplicity
 _atom_site_fract_x
 _atom_site_fract_y
 _atom_site_fract_z
 _atom_site_occupancy
  Zn  Zn0  1  0.08649189  0.49479833  0.52420195  1.0
  Zn  Zn1  1  0.90737775  0.50806318  0.48960497  1.0
  H  H2  1  0.64284057  0.60271854  0.12611303  1.0
  H  H3  1  0.32985260  0.52575755  0.86873744  1.0
  H  H4  1  0.30823824  0.53344079  0.23592290  1.0
  H  H5  1  0.67426995  0.51860611  0.76867840  1.0
  H  H6  1  0.03984177  0.50417840  0.17718284  1.0
  H  H7  1  0.94063590  0.56255844  0.82558769  1.0
  H  H8  1  0.82120179  0.59418625  0.99573809  1.0
  H  H9  1  0.15479491  0.51142972  0.00177961  1.0
  H  H10  1  0.45205231  0.58294300  0.18638194  1.0
  H  H11  1  0.52148262  0.53842971  0.80935261  1.0
  H  H12  1  0.10610705  0.21064818  0.56127181  1.0
  H  H13  1  0.85157318  0.78482626  0.54087328  1.0
  H  H14  1  0.91968632  0.23769365  0.39978863  1.0
  H  H15  1  0.19127396  0.77157555  0.41316492  1.0
  H  H16  1  0.52702750  0.41792056  0.62512216  1.0
  H  H17  1  0.45004350  0.61368263  0.42740097  1.0
  H  H18  1  0.71139129  0.43380663  0.60857213  1.0
  H  H19  1  0.26300743  0.60397895  0.44896033  1.0
  H  H20  1  0.62068199  0.56558363  0.35596137  1.0
  H  H21  1  0.41268256  0.35833704  0.57467457  1.0
  H  H22  1  0.12720724  0.95545167  0.65650668  1.0
  H  H23  1  0.01070561  0.95608499  0.63745832  1.0
  H  H24  1  0.07688622  0.10827573  0.72233168  1.0
  H  H25  1  0.95825748  0.10464598  0.70910225  1.0
  H  H26  1  0.90608793  0.96869876  0.82120556  1.0
  H  H27  1  0.92488736  0.06133979  0.87739580  1.0
  H  H28  1  0.02343601  0.97623280  0.83698867  1.0
  H  H29  1  0.72955443  0.03876985  0.62553569  1.0
  H  H30  1  0.85444931  0.03382565  0.62958547  1.0
  H  H31  1  0.69917052  0.88179123  0.69328585  1.0
  H  H32  1  0.81818529  0.88313216  0.70636331  1.0
  H  H33  1  0.74500397  0.01473620  0.81531941  1.0
  H  H34  1  0.66660881  0.92031932  0.86123120  1.0
  H  H35  1  0.62466216  0.00790204  0.80437828  1.0
  H  H36  1  0.03051019  0.97020594  0.29528055  1.0
  H  H37  1  0.05901263  0.07539472  0.23419873  1.0
  H  H38  1  0.86981435  0.96175401  0.26801727  1.0
  H  H39  1  0.89058314  0.06839246  0.21309695  1.0
  H  H40  1  0.06274819  0.01445409  0.08235645  1.0
  H  H41  1  0.95585486  0.95190364  0.08867046  1.0
  H  H42  1  0.04232023  0.90722067  0.13720223  1.0
  H  H43  1  0.20170927  0.02746823  0.27990049  1.0
  H  H44  1  0.23032933  0.91539036  0.24433525  1.0
  H  H45  1  0.38039581  0.03700008  0.27656216  1.0
  H  H46  1  0.40872539  0.92565283  0.24348712  1.0
  H  H47  1  0.39042353  0.96301053  0.08996782  1.0
  H  H48  1  0.48796079  0.02745081  0.09903520  1.0
  H  H49  1  0.36161099  0.07492808  0.12291673  1.0
  C  C50  1  0.99864839  0.33160768  0.49831718  1.0
  C  C51  1  0.01672933  0.67043600  0.49574274  1.0
  C  C52  1  0.88200110  0.51548197  0.68774838  1.0
  C  C53  1  0.10286909  0.50836810  0.32052293  1.0
  C  C54  1  0.81214064  0.53795453  0.78872767  1.0
  C  C55  1  0.16975488  0.51791419  0.21544600  1.0
  C  C56  1  0.78888404  0.57788746  0.94573117  1.0
  C  C57  1  0.18825877  0.51783545  0.05319148  1.0
  C  C58  1  0.85522035  0.56044520  0.85210899  1.0
  C  C59  1  0.12448879  0.51302896  0.14988069  1.0
  C  C60  1  0.70365607  0.53617091  0.82005455  1.0
  C  C61  1  0.27684534  0.53140077  0.18274947  1.0
  C  C62  1  0.63375259  0.55358193  0.91514531  1.0
  C  C63  1  0.34349333  0.53964910  0.08443060  1.0
  C  C64  1  0.67793416  0.57321495  0.97977073  1.0
  C  C65  1  0.29816727  0.52997028  0.01836158  1.0
  C  C66  1  0.52052991  0.54857179  0.94955760  1.0
  C  C67  1  0.45546995  0.55401280  0.04871674  1.0
  C  C68  1  0.50249968  0.57441439  0.11083807  1.0
  C  C69  1  0.47225107  0.53847031  0.88598902  1.0
  C  C70  1  0.60883714  0.58553540  0.07761641  1.0
  C  C71  1  0.36540022  0.53146161  0.91873021  1.0
  C  C72  1  0.07472681  0.09093401  0.51104742  1.0
  C  C73  1  0.92898371  0.90921489  0.50119447  1.0
  C  C74  1  0.06800118  0.18182932  0.52150566  1.0
  C  C75  1  0.92676281  0.81762717  0.50979494  1.0
  C  C76  1  0.00990975  0.23456693  0.48358477  1.0
  C  C77  1  0.02087620  0.76800746  0.48072071  1.0
  C  C78  1  0.96306285  0.19658349  0.43122261  1.0
  C  C79  1  0.11750038  0.80990223  0.43795122  1.0
  C  C80  1  0.97309281  0.10599263  0.41738920  1.0
  C  C81  1  0.12027269  0.90129449  0.42522801  1.0
  C  C82  1  0.02652711  0.05062862  0.45967050  1.0
  C  C83  1  0.02594387  0.95333775  0.45954535  1.0
  C  C84  1  0.58426613  0.45340813  0.56328676  1.0
  C  C85  1  0.40466002  0.55596217  0.46340378  1.0
  C  C86  1  0.68562213  0.46273314  0.55596162  1.0
  C  C87  1  0.30064312  0.55233462  0.47605244  1.0
  C  C88  1  0.73148806  0.54543693  0.41732062  1.0
  C  C89  1  0.28036712  0.42066817  0.55929919  1.0
  C  C90  1  0.63415118  0.53722859  0.41584426  1.0
  C  C91  1  0.38421808  0.41610695  0.54737587  1.0
  C  C92  1  0.55646321  0.49174552  0.49260121  1.0
  C  C93  1  0.44832134  0.48728915  0.50013188  1.0
  C  C94  1  0.06973214  0.99866419  0.64282588  1.0
  C  C95  1  0.01714499  0.06327193  0.72298190  1.0
  C  C96  1  0.96500585  0.01482507  0.81990676  1.0
  C  C97  1  0.79374931  0.99356375  0.62402917  1.0
  C  C98  1  0.75234863  0.92531444  0.70596996  1.0
  C  C99  1  0.69408027  0.96940720  0.80198731  1.0
  C  C100  1  0.99476354  0.03059277  0.27785915  1.0
  C  C101  1  0.93123826  0.00805126  0.22379445  1.0
  C  C102  1  0.00194901  0.96819522  0.12774740  1.0
  C  C103  1  0.24802236  0.96746211  0.28249666  1.0
  C  C104  1  0.36511917  0.98568174  0.23658125  1.0
  C  C105  1  0.40323607  0.01436026  0.13140473  1.0
  N  N106  1  0.75842998  0.51051202  0.48453678  1.0
  N  N107  1  0.23758375  0.48596695  0.52588953  1.0
  N  N108  1  0.80988429  0.60072245  0.33975717  1.0
  N  N109  1  0.21005045  0.34931587  0.61845332  1.0
  O  O110  1  0.05929444  0.36492064  0.52989641  1.0
  O  O111  1  0.93015445  0.63490842  0.51129382  1.0
  O  O112  1  0.92957923  0.37404805  0.47853422  1.0
  O  O113  1  0.09941682  0.62937264  0.49300329  1.0
  O  O114  1  0.98100674  0.52208866  0.65981529  1.0
  O  O115  1  0.00360330  0.52108243  0.34826516  1.0
  O  O116  1  0.83705508  0.49154839  0.63647357  1.0
  O  O117  1  0.14937346  0.48881822  0.37407443  1.0
  O  O118  1  0.84442363  0.66276465  0.36478901  1.0
  O  O119  1  0.82896101  0.58080565  0.25725673  1.0
  O  O120  1  0.12506796  0.37274975  0.68201598  1.0
  O  O121  1  0.24607255  0.27309032  0.60045948  1.0
  O  O122  1  0.13084854  0.04071717  0.55127567  1.0
  O  O123  1  0.83412003  0.95571504  0.53105817  1.0
  O  O124  1  0.92575480  0.07413678  0.36380976  1.0
  O  O125  1  0.21823054  0.93856460  0.38046739  1.0
