# generated using pymatgen
data_Zn3H17(C7O3)4
_symmetry_space_group_name_H-M   'P 1'
_cell_length_a   18.57578012
_cell_length_b   18.80430026
_cell_length_c   18.82553767
_cell_angle_alpha   109.54828597
_cell_angle_beta   109.14227354
_cell_angle_gamma   109.06150931
_symmetry_Int_Tables_number   1
_chemical_formula_structural   Zn3H17(C7O3)4
_chemical_formula_sum   'Zn6 H34 C56 O24'
_cell_volume   5102.92206111
_cell_formula_units_Z   2
loop_
 _symmetry_equiv_pos_site_id
 _symmetry_equiv_pos_as_xyz
  1  'x, y, z'
loop_
 _atom_site_type_symbol
 _atom_site_label
 _atom_site_symmetry_multiplicity
 _atom_site_fract_x
 _atom_site_fract_y
 _atom_site_fract_z
 _atom_site_occupancy
  Zn  Zn0  1  0.56417861  0.99844464  0.06216286  1.0
  Zn  Zn1  1  0.44747123  0.00658364  0.93911755  1.0
  Zn  Zn2  1  0.00120705  0.44180195  0.93780229  1.0
  Zn  Zn3  1  0.99646284  0.56103989  0.06190530  1.0
  Zn  Zn4  1  0.56045769  0.56179369  0.49550458  1.0
  Zn  Zn5  1  0.43776134  0.44074212  0.50020267  1.0
  H  H6  1  0.77055432  0.18040756  0.85929362  1.0
  H  H7  1  0.51771538  0.79463948  0.61234594  1.0
  H  H8  1  0.45721845  0.58264614  0.74355749  1.0
  H  H9  1  0.82927589  0.31550243  0.04362672  1.0
  H  H10  1  0.57332931  0.64712441  0.80857358  1.0
  H  H11  1  0.44115534  0.68789043  0.85351851  1.0
  H  H12  1  0.55716575  0.75309430  0.91765516  1.0
  H  H13  1  0.72642521  0.52830894  0.90203467  1.0
  H  H14  1  0.60351540  0.50478640  0.77569367  1.0
  H  H15  1  0.74772230  0.42515113  0.57884555  1.0
  H  H16  1  0.80344140  0.54005181  0.62503527  1.0
  H  H17  1  0.48280294  0.09124681  0.26611449  1.0
  H  H18  1  0.86613408  0.43694623  0.70326061  1.0
  H  H19  1  0.92291788  0.55157199  0.74836375  1.0
  H  H20  1  0.10401857  0.50620137  0.27988258  1.0
  H  H21  1  0.64332906  0.10903278  0.88279828  1.0
  H  H22  1  0.20174230  0.47869624  0.38032105  1.0
  H  H23  1  0.42265370  0.54904624  0.25726224  1.0
  H  H24  1  0.35905276  0.43424748  0.18951938  1.0
  H  H25  1  0.31797192  0.56611223  0.14802248  1.0
  H  H26  1  0.25333728  0.45136853  0.08131779  1.0
  H  H27  1  0.79405390  0.18365800  0.06523344  1.0
  H  H28  1  0.26507387  0.73467960  0.86648218  1.0
  H  H29  1  0.46725424  0.26623491  0.09355961  1.0
  H  H30  1  0.48697541  0.38799996  0.21747014  1.0
  H  H31  1  0.60405961  0.27163257  0.42863011  1.0
  H  H32  1  0.48941983  0.20848394  0.38708329  1.0
  H  H33  1  0.59661902  0.15565341  0.30599558  1.0
  H  H34  1  0.14926358  0.61195461  0.85531728  1.0
  H  H35  1  0.25689774  0.80253611  0.19172846  1.0
  H  H36  1  0.31721153  0.74598606  0.19921043  1.0
  H  H37  1  0.38118043  0.92148901  0.20419150  1.0
  H  H38  1  0.44107231  0.86431087  0.20999650  1.0
  H  H39  1  0.49075586  0.89228928  0.71385906  1.0
  C  C40  1  0.48890668  0.12620365  0.09197312  1.0
  C  C41  1  0.33396118  0.80813800  0.00611272  1.0
  C  C42  1  0.26577812  0.73632528  0.92518161  1.0
  C  C43  1  0.65597369  0.10029937  0.02240710  1.0
  C  C44  1  0.19987366  0.66750017  0.91876304  1.0
  C  C45  1  0.19513015  0.66892501  0.99245877  1.0
  C  C46  1  0.26235089  0.74062954  0.07198964  1.0
  C  C47  1  0.29826077  0.78266761  0.16918577  1.0
  C  C48  1  0.37635753  0.85744205  0.17657061  1.0
  C  C49  1  0.50197672  0.76213075  0.79937224  1.0
  C  C50  1  0.49325507  0.83054618  0.79204779  1.0
  C  C51  1  0.49503245  0.19844381  0.16222827  1.0
  C  C52  1  0.49782911  0.83982759  0.72211288  1.0
  C  C53  1  0.51239457  0.78433110  0.66447365  1.0
  C  C54  1  0.51795832  0.71352012  0.67086356  1.0
  C  C55  1  0.48426141  0.89180704  0.85799761  1.0
  C  C56  1  0.51134185  0.70398320  0.73913453  1.0
  C  C57  1  0.51216893  0.64914315  0.78260605  1.0
  C  C58  1  0.50196712  0.71552466  0.85138046  1.0
  C  C59  1  0.87671327  0.52198610  0.91043091  1.0
  C  C60  1  0.89085096  0.35476476  0.97410922  1.0
  C  C61  1  0.10897219  0.51881190  0.13953666  1.0
  C  C62  1  0.48335241  0.26660275  0.15486469  1.0
  C  C63  1  0.12084274  0.59946849  0.98535860  1.0
  C  C64  1  0.35293633  0.47584981  0.38786502  1.0
  C  C65  1  0.51723291  0.40579565  0.37768023  1.0
  C  C66  1  0.59441240  0.48657994  0.62069231  1.0
  C  C67  1  0.40372754  0.88194886  0.01311069  1.0
  C  C68  1  0.52387664  0.64696417  0.60667488  1.0
  C  C69  1  0.80547706  0.50306931  0.76306737  1.0
  C  C70  1  0.80433423  0.51592911  0.83994979  1.0
  C  C71  1  0.73032177  0.51828183  0.84321896  1.0
  C  C72  1  0.66115488  0.50559146  0.77202008  1.0
  C  C73  1  0.49374019  0.33498407  0.22470030  1.0
  C  C74  1  0.66447956  0.49514806  0.69556134  1.0
  C  C75  1  0.73916413  0.49576796  0.69422761  1.0
  C  C76  1  0.78344125  0.48715201  0.63938855  1.0
  C  C77  1  0.85837678  0.49468715  0.71732568  1.0
  C  C78  1  0.24037231  0.50201215  0.19835089  1.0
  C  C79  1  0.77439251  0.20541186  0.92265880  1.0
  C  C80  1  0.16994039  0.50872742  0.20465046  1.0
  C  C81  1  0.15831445  0.50117020  0.27264849  1.0
  C  C82  1  0.21372213  0.48608152  0.32958782  1.0
  C  C83  1  0.28655540  0.48255892  0.32434758  1.0
  C  C84  1  0.51133845  0.33658013  0.30422174  1.0
  C  C85  1  0.29825711  0.49189834  0.25791025  1.0
  C  C86  1  0.35581769  0.49405957  0.21639316  1.0
  C  C87  1  0.28969516  0.50493477  0.14819141  1.0
  C  C88  1  0.83131695  0.28892455  0.98361437  1.0
  C  C89  1  0.71056955  0.15083574  0.93652892  1.0
  C  C90  1  0.72758094  0.15002619  0.01155725  1.0
  C  C91  1  0.51549961  0.20259692  0.24219676  1.0
  C  C92  1  0.52070998  0.26795708  0.31001076  1.0
  C  C93  1  0.53995918  0.23063055  0.36947744  1.0
  C  C94  1  0.53515406  0.15707430  0.29280637  1.0
  C  C95  1  0.33109929  0.80678361  0.07861689  1.0
  O  O96  1  0.53232739  0.09071270  0.11622093  1.0
  O  O97  1  0.32957577  0.42798023  0.42052124  1.0
  O  O98  1  0.56735545  0.48498564  0.40150627  1.0
  O  O99  1  0.44049305  0.10286051  0.01233206  1.0
  O  O100  1  0.47259023  0.38095705  0.41183351  1.0
  O  O101  1  0.61952003  0.52945063  0.58554600  1.0
  O  O102  1  0.51432193  0.43637821  0.59637233  1.0
  O  O103  1  0.57283719  0.66948586  0.57418810  1.0
  O  O104  1  0.47902518  0.56963838  0.58836792  1.0
  O  O105  1  0.67532883  0.07474494  0.07851964  1.0
  O  O106  1  0.57971331  0.08559766  0.97639098  1.0
  O  O107  1  0.90046798  0.57047908  0.99011079  1.0
  O  O108  1  0.52470827  0.90676887  0.93487415  1.0
  O  O109  1  0.43718148  0.92561373  0.83417324  1.0
  O  O110  1  0.48260585  0.91082429  0.07102990  1.0
  O  O111  1  0.38118335  0.91122250  0.96289470  1.0
  O  O112  1  0.91167717  0.47787462  0.88575350  1.0
  O  O113  1  0.91706497  0.33280572  0.91874675  1.0
  O  O114  1  0.91256520  0.43226261  0.02387469  1.0
  O  O115  1  0.09200273  0.47674331  0.06203506  1.0
  O  O116  1  0.07793806  0.56837262  0.16485003  1.0
  O  O117  1  0.09047448  0.52088779  0.92752134  1.0
  O  O118  1  0.09284697  0.62310845  0.03732204  1.0
  O  O119  1  0.43122139  0.51912915  0.40567532  1.0
