# generated using pymatgen
data_TbH10C16NO8
_symmetry_space_group_name_H-M   'P 1'
_cell_length_a   14.55060987
_cell_length_b   23.38120722
_cell_length_c   26.19384824
_cell_angle_alpha   85.03791593
_cell_angle_beta   73.86412719
_cell_angle_gamma   71.86537460
_symmetry_Int_Tables_number   1
_chemical_formula_structural   TbH10C16NO8
_chemical_formula_sum   'Tb8 H80 C128 N8 O64'
_cell_volume   8135.15568057
_cell_formula_units_Z   8
loop_
 _symmetry_equiv_pos_site_id
 _symmetry_equiv_pos_as_xyz
  1  'x, y, z'
loop_
 _atom_site_type_symbol
 _atom_site_label
 _atom_site_symmetry_multiplicity
 _atom_site_fract_x
 _atom_site_fract_y
 _atom_site_fract_z
 _atom_site_occupancy
  Tb  Tb0  1  0.08067945  0.74998427  0.83869270  1.0
  Tb  Tb1  1  0.66948263  0.74996458  0.66129322  1.0
  Tb  Tb2  1  0.91931881  0.25001760  0.16130820  1.0
  Tb  Tb3  1  0.33051836  0.25003324  0.33870834  1.0
  Tb  Tb4  1  0.41908295  0.66194928  0.75001432  1.0
  Tb  Tb5  1  0.83102374  0.83807801  0.74997167  1.0
  Tb  Tb6  1  0.58092122  0.33805079  0.24998581  1.0
  Tb  Tb7  1  0.16897829  0.16192206  0.25002917  1.0
  H  H8  1  0.45936480  0.78193969  0.77416263  1.0
  H  H9  1  0.76641230  0.71814713  0.77414605  1.0
  H  H10  1  0.25892032  0.78181932  0.72573136  1.0
  H  H11  1  0.01553327  0.71815266  0.72574101  1.0
  H  H12  1  0.54063744  0.21805992  0.22583669  1.0
  H  H13  1  0.23358592  0.28185339  0.22585573  1.0
  H  H14  1  0.74108147  0.21818119  0.27426796  1.0
  H  H15  1  0.98446826  0.28184696  0.27425918  1.0
  H  H16  1  0.51254629  0.90773890  0.86477011  1.0
  H  H17  1  0.62277992  0.59223859  0.86470463  1.0
  H  H18  1  0.07983042  0.90781793  0.63528695  1.0
  H  H19  1  0.28512948  0.59221703  0.63519457  1.0
  H  H20  1  0.48745574  0.09226117  0.13522997  1.0
  H  H21  1  0.37721969  0.40776058  0.13529589  1.0
  H  H22  1  0.92016874  0.09218213  0.36471319  1.0
  H  H23  1  0.71487277  0.40778259  0.36480513  1.0
  H  H24  1  0.22782543  0.86953766  0.90924009  1.0
  H  H25  1  0.86291030  0.63054942  0.90918943  1.0
  H  H26  1  0.40279294  0.86955588  0.59074125  1.0
  H  H27  1  0.00666484  0.63050316  0.59073028  1.0
  H  H28  1  0.77217589  0.13046241  0.09075933  1.0
  H  H29  1  0.13709025  0.36944930  0.09081098  1.0
  H  H30  1  0.59720671  0.13044464  0.40925725  1.0
  H  H31  1  0.99333647  0.36949691  0.40927029  1.0
  H  H32  1  0.42949927  0.99225347  0.03630024  1.0
  H  H33  1  0.53422327  0.50775226  0.03628633  1.0
  H  H34  1  0.07821485  0.99227819  0.46366082  1.0
  H  H35  1  0.45826123  0.50759251  0.46363020  1.0
  H  H36  1  0.57050185  0.00774839  0.96369870  1.0
  H  H37  1  0.46577518  0.49224781  0.96371354  1.0
  H  H38  1  0.92178690  0.00772098  0.53633899  1.0
  H  H39  1  0.54173886  0.49240711  0.53636983  1.0
  H  H40  1  0.32749520  0.05905465  0.11341927  1.0
  H  H41  1  0.55894683  0.44093729  0.11339932  1.0
  H  H42  1  0.11346164  0.05905866  0.38654100  1.0
  H  H43  1  0.50007087  0.44087170  0.38648244  1.0
  H  H44  1  0.67250516  0.94094587  0.88658027  1.0
  H  H45  1  0.44105184  0.55906233  0.88660055  1.0
  H  H46  1  0.88654012  0.94094051  0.61345881  1.0
  H  H47  1  0.49992829  0.55912837  0.61351770  1.0
  H  H48  1  0.07017066  0.10137138  0.05104355  1.0
  H  H49  1  0.87870421  0.39859953  0.05111799  1.0
  H  H50  1  0.32839693  0.10138756  0.44894801  1.0
  H  H51  1  0.22253665  0.39870424  0.44885724  1.0
  H  H52  1  0.92982894  0.89862779  0.94895659  1.0
  H  H53  1  0.12129473  0.60140099  0.94888253  1.0
  H  H54  1  0.67160133  0.89861431  0.55105251  1.0
  H  H55  1  0.77746112  0.60129717  0.55114301  1.0
  H  H56  1  0.17018936  0.03262183  0.97448485  1.0
  H  H57  1  0.85540473  0.46738703  0.97458094  1.0
  H  H58  1  0.29711206  0.03266165  0.52550219  1.0
  H  H59  1  0.17731334  0.46740130  0.52542735  1.0
  H  H60  1  0.82981096  0.96737734  0.02551480  1.0
  H  H61  1  0.14459443  0.53261304  0.02541958  1.0
  H  H62  1  0.70288737  0.96733932  0.47449822  1.0
  H  H63  1  0.82268631  0.53259922  0.47457306  1.0
  H  H64  1  0.25341375  0.93880538  0.95464138  1.0
  H  H65  1  0.79206292  0.56122342  0.95457745  1.0
  H  H66  1  0.30777875  0.93887304  0.54533951  1.0
  H  H67  1  0.14692926  0.56114031  0.54535554  1.0
  H  H68  1  0.74658635  0.06119423  0.04535826  1.0
  H  H69  1  0.20793955  0.43877574  0.04542225  1.0
  H  H70  1  0.69222136  0.06112658  0.45465975  1.0
  H  H71  1  0.85307205  0.43885976  0.45464503  1.0
  H  H72  1  0.06766954  0.72097774  0.95883551  1.0
  H  H73  1  0.97365574  0.77915594  0.95884667  1.0
  H  H74  1  0.71120182  0.72105009  0.54112491  1.0
  H  H75  1  0.74698296  0.77922995  0.54115146  1.0
  H  H76  1  0.93232642  0.27901872  0.04116387  1.0
  H  H77  1  0.02634021  0.22084052  0.04115348  1.0
  H  H78  1  0.28876435  0.27896303  0.45887359  1.0
  H  H79  1  0.25297984  0.22078272  0.45885065  1.0
  H  H80  1  0.52332307  0.52792756  0.72091940  1.0
  H  H81  1  0.75558387  0.97210498  0.72088121  1.0
  H  H82  1  0.44846746  0.52791473  0.77905818  1.0
  H  H83  1  0.77226700  0.97206501  0.77902725  1.0
  H  H84  1  0.47667041  0.47207385  0.27907884  1.0
  H  H85  1  0.24441528  0.02789509  0.27911893  1.0
  H  H86  1  0.55152646  0.47208579  0.22094006  1.0
  H  H87  1  0.22773186  0.02793280  0.22097311  1.0
  C  C88  1  0.27198463  0.78688347  0.83367863  1.0
  C  C89  1  0.89426045  0.71320996  0.83366544  1.0
  C  C90  1  0.44130864  0.78683314  0.66625710  1.0
  C  C91  1  0.89261947  0.71315680  0.66625377  1.0
  C  C92  1  0.72801709  0.21311434  0.16632052  1.0
  C  C93  1  0.10573870  0.28679011  0.16633585  1.0
  C  C94  1  0.55869310  0.21316603  0.33373966  1.0
  C  C95  1  0.10738395  0.28684191  0.33374581  1.0
  C  C96  1  0.33789515  0.82114977  0.84194410  1.0
  C  C97  1  0.82010350  0.67893336  0.84192952  1.0
  C  C98  1  0.34111950  0.82111846  0.65799632  1.0
  C  C99  1  0.00108715  0.67893238  0.65796419  1.0
  C  C100  1  0.66210420  0.17884850  0.15805615  1.0
  C  C101  1  0.17989640  0.32106806  0.15807117  1.0
  C  C102  1  0.65888226  0.17888071  0.34200272  1.0
  C  C103  1  0.99891344  0.32106769  0.34203649  1.0
  C  C104  1  0.43345225  0.81262752  0.80754170  1.0
  C  C105  1  0.75897980  0.68745003  0.80752188  1.0
  C  C106  1  0.25410970  0.81255866  0.69238836  1.0
  C  C107  1  0.05369363  0.68745906  0.69236259  1.0
  C  C108  1  0.56654830  0.18737120  0.19245871  1.0
  C  C109  1  0.24102083  0.31255139  0.19247945  1.0
  C  C110  1  0.74589254  0.18744096  0.30761096  1.0
  C  C111  1  0.94630508  0.31254191  0.30763793  1.0
  C  C112  1  0.49546198  0.84414149  0.81559194  1.0
  C  C113  1  0.68898941  0.65588210  0.81556724  1.0
  C  C114  1  0.16056264  0.84411994  0.68438525  1.0
  C  C115  1  0.15526403  0.65590359  0.68433557  1.0
  C  C116  1  0.50453812  0.15585813  0.18440809  1.0
  C  C117  1  0.31100979  0.34411932  0.18443355  1.0
  C  C118  1  0.83943889  0.15587968  0.31561456  1.0
  C  C119  1  0.84473656  0.34409648  0.31566397  1.0
  C  C120  1  0.46321141  0.88425417  0.85813776  1.0
  C  C121  1  0.67872984  0.61573723  0.85809335  1.0
  C  C122  1  0.15266763  0.88428786  0.64188498  1.0
  C  C123  1  0.20567981  0.61574804  0.64181304  1.0
  C  C124  1  0.53678941  0.11574545  0.14186330  1.0
  C  C125  1  0.32127052  0.38426329  0.14190695  1.0
  C  C126  1  0.84733390  0.11571176  0.35811483  1.0
  C  C127  1  0.79432055  0.38425248  0.35818726  1.0
  C  C128  1  0.36587769  0.89412436  0.89185943  1.0
  C  C129  1  0.74231573  0.60588072  0.89181768  1.0
  C  C130  1  0.24009865  0.89416717  0.60814416  1.0
  C  C131  1  0.15195849  0.60587981  0.60808854  1.0
  C  C132  1  0.63412120  0.10587481  0.10814120  1.0
  C  C133  1  0.25768603  0.39411845  0.10818251  1.0
  C  C134  1  0.75990285  0.10583110  0.39185575  1.0
  C  C135  1  0.84804165  0.39412116  0.39191176  1.0
  C  C136  1  0.30369075  0.86250689  0.88347919  1.0
  C  C137  1  0.81280644  0.63755260  0.88344424  1.0
  C  C138  1  0.33394283  0.86252397  0.61648911  1.0
  C  C139  1  0.04977727  0.63753655  0.61645517  1.0
  C  C140  1  0.69631052  0.13749182  0.11652111  1.0
  C  C141  1  0.18719608  0.36244792  0.11655572  1.0
  C  C142  1  0.66605749  0.13747520  0.38351054  1.0
  C  C143  1  0.95022216  0.36246441  0.38354562  1.0
  C  C144  1  0.59732084  0.83390173  0.77744733  1.0
  C  C145  1  0.62528424  0.66608385  0.77743555  1.0
  C  C146  1  0.06894317  0.83388112  0.72251781  1.0
  C  C147  1  0.20870738  0.66606789  0.72252010  1.0
  C  C148  1  0.40268069  0.16609789  0.22255210  1.0
  C  C149  1  0.37471254  0.33391667  0.22256569  1.0
  C  C150  1  0.93105720  0.16611939  0.27748211  1.0
  C  C151  1  0.79129227  0.33393262  0.27748107  1.0
  C  C152  1  0.37261513  0.96653103  0.95507031  1.0
  C  C153  1  0.67240949  0.53346763  0.95506818  1.0
  C  C154  1  0.16084202  0.96656686  0.54494385  1.0
  C  C155  1  0.29430575  0.53341678  0.54487778  1.0
  C  C156  1  0.62738545  0.03346904  0.04492885  1.0
  C  C157  1  0.32759132  0.46653199  0.04493136  1.0
  C  C158  1  0.83915718  0.03343456  0.45505580  1.0
  C  C159  1  0.70569461  0.46658373  0.45512214  1.0
  C  C160  1  0.30628529  0.00625963  0.00119533  1.0
  C  C161  1  0.69256071  0.49375377  0.00121810  1.0
  C  C162  1  0.18740284  0.00628527  0.49880456  1.0
  C  C163  1  0.31381769  0.49369293  0.49875223  1.0
  C  C164  1  0.69371628  0.99374134  0.99880284  1.0
  C  C165  1  0.30743822  0.50624675  0.99878090  1.0
  C  C166  1  0.81259731  0.99371569  0.50119459  1.0
  C  C167  1  0.68618362  0.50630714  0.50124834  1.0
  C  C168  1  0.35012111  0.01459660  0.04022861  1.0
  C  C169  1  0.60965196  0.48539900  0.04022989  1.0
  C  C170  1  0.13525403  0.01460326  0.45975669  1.0
  C  C171  1  0.40505976  0.48532343  0.45971144  1.0
  C  C172  1  0.64988023  0.98540482  0.95976956  1.0
  C  C173  1  0.39034697  0.51460152  0.95976910  1.0
  C  C174  1  0.86474584  0.98539681  0.54024220  1.0
  C  C175  1  0.59494083  0.51467664  0.54028848  1.0
  C  C176  1  0.29311303  0.05230322  0.08330524  1.0
  C  C177  1  0.62349646  0.44767371  0.08330427  1.0
  C  C178  1  0.15455813  0.05230907  0.41668058  1.0
  C  C179  1  0.42879110  0.44764935  0.41661560  1.0
  C  C180  1  0.70688760  0.94769820  0.91669342  1.0
  C  C181  1  0.37650153  0.55232726  0.91669522  1.0
  C  C182  1  0.84544269  0.94769054  0.58332010  1.0
  C  C183  1  0.57120878  0.55235072  0.58338443  1.0
  C  C184  1  0.19223405  0.08381461  0.08723179  1.0
  C  C185  1  0.72044368  0.41614838  0.08723527  1.0
  C  C186  1  0.22391279  0.08382116  0.41276459  1.0
  C  C187  1  0.36328658  0.41619709  0.41269073  1.0
  C  C188  1  0.80776703  0.91618591  0.91276763  1.0
  C  C189  1  0.27955642  0.58385123  0.91276361  1.0
  C  C190  1  0.77608615  0.91617935  0.58723555  1.0
  C  C191  1  0.63671258  0.58380298  0.58730979  1.0
  C  C192  1  0.14854499  0.07621706  0.04782748  1.0
  C  C193  1  0.80357926  0.42376193  0.04786621  1.0
  C  C194  1  0.27518126  0.07623497  0.45217440  1.0
  C  C195  1  0.27256518  0.42382445  0.45208982  1.0
  C  C196  1  0.85145395  0.92378346  0.95217228  1.0
  C  C197  1  0.19642065  0.57623949  0.95213333  1.0
  C  C198  1  0.72481794  0.92376645  0.54782639  1.0
  C  C199  1  0.72743402  0.57617697  0.54791097  1.0
  C  C200  1  0.20472070  0.03711623  0.00543826  1.0
  C  C201  1  0.78986324  0.46288999  0.00549022  1.0
  C  C202  1  0.25809986  0.03714027  0.49455719  1.0
  C  C203  1  0.24730125  0.46289642  0.49448783  1.0
  C  C204  1  0.79528037  0.96288429  0.99456041  1.0
  C  C205  1  0.21013591  0.53711008  0.99450954  1.0
  C  C206  1  0.74190050  0.96286025  0.50544311  1.0
  C  C207  1  0.75269911  0.53710410  0.50551247  1.0
  C  C208  1  0.13255937  0.12701270  0.13233710  1.0
  C  C209  1  0.73501491  0.37290553  0.13230514  1.0
  C  C210  1  0.24030836  0.12706531  0.36768735  1.0
  C  C211  1  0.39194910  0.37295676  0.36762358  1.0
  C  C212  1  0.86743835  0.87298737  0.86766212  1.0
  C  C213  1  0.26498214  0.62709589  0.86769560  1.0
  C  C214  1  0.75969079  0.87293476  0.63231127  1.0
  C  C215  1  0.60804765  0.62704241  0.63237814  1.0
  N  N216  1  0.32549902  0.93505232  0.93443366  1.0
  N  N217  1  0.74019196  0.56493093  0.93438135  1.0
  N  N218  1  0.23947161  0.93511389  0.56558017  1.0
  N  N219  1  0.19506007  0.56489911  0.56554693  1.0
  N  N220  1  0.67450063  0.06494820  0.06556637  1.0
  N  N221  1  0.25981002  0.43506779  0.06561846  1.0
  N  N222  1  0.76052848  0.06488573  0.43441910  1.0
  N  N223  1  0.80494079  0.43510186  0.43445326  1.0
  O  O224  1  0.17976797  0.80297994  0.85904731  1.0
  O  O225  1  0.96113547  0.69708977  0.85899335  1.0
  O  O226  1  0.51741385  0.80295476  0.64093051  1.0
  O  O227  1  0.84191414  0.69696394  0.64094549  1.0
  O  O228  1  0.82023074  0.19702102  0.14095360  1.0
  O  O229  1  0.03886391  0.30290984  0.14100832  1.0
  O  O230  1  0.48259020  0.19704125  0.35906575  1.0
  O  O231  1  0.15808830  0.30303388  0.35905813  1.0
  O  O232  1  0.31049782  0.74286861  0.80097114  1.0
  O  O233  1  0.88846054  0.75724581  0.80097680  1.0
  O  O234  1  0.44682584  0.74279325  0.69893969  1.0
  O  O235  1  0.85432512  0.75720901  0.69892918  1.0
  O  O236  1  0.68950067  0.25713281  0.19902709  1.0
  O  O237  1  0.11154005  0.24275426  0.19902503  1.0
  O  O238  1  0.55317811  0.25720727  0.30105738  1.0
  O  O239  1  0.14567762  0.24279105  0.30106888  1.0
  O  O240  1  0.61062795  0.81199521  0.73236327  1.0
  O  O241  1  0.65710116  0.68793388  0.73232540  1.0
  O  O242  1  0.07754580  0.81195469  0.76759602  1.0
  O  O243  1  0.15498432  0.68790771  0.76762787  1.0
  O  O244  1  0.38937313  0.18800531  0.26763615  1.0
  O  O245  1  0.34289939  0.31206484  0.26767501  1.0
  O  O246  1  0.92245358  0.18804493  0.23240259  1.0
  O  O247  1  0.84501676  0.31209281  0.23237194  1.0
  O  O248  1  0.66494412  0.84713789  0.79196328  1.0
  O  O249  1  0.54310673  0.65289142  0.79200062  1.0
  O  O250  1  0.98808377  0.84712899  0.70800453  1.0
  O  O251  1  0.30409741  0.65285037  0.70800384  1.0
  O  O252  1  0.33505696  0.15286263  0.20803805  1.0
  O  O253  1  0.45688845  0.34711090  0.20800149  1.0
  O  O254  1  0.01191588  0.15287153  0.29199550  1.0
  O  O255  1  0.69590385  0.34714835  0.29199608  1.0
  O  O256  1  0.46254904  0.96260456  0.93777527  1.0
  O  O257  1  0.59976095  0.53739491  0.93779671  1.0
  O  O258  1  0.07485747  0.96261297  0.56224975  1.0
  O  O259  1  0.36302364  0.53735681  0.56214680  1.0
  O  O260  1  0.53745178  0.03739506  0.06222350  1.0
  O  O261  1  0.40023920  0.46260606  0.06220282  1.0
  O  O262  1  0.92514150  0.03738890  0.43775143  1.0
  O  O263  1  0.63697723  0.46264416  0.43785300  1.0
  O  O264  1  0.16290353  0.11890957  0.17423378  1.0
  O  O265  1  0.66283048  0.38100168  0.17422970  1.0
  O  O266  1  0.21793344  0.11901349  0.32582050  1.0
  O  O267  1  0.45608170  0.38105202  0.32571234  1.0
  O  O268  1  0.83709393  0.88108960  0.82576593  1.0
  O  O269  1  0.33716466  0.61899929  0.82576984  1.0
  O  O270  1  0.78206850  0.88098388  0.67417751  1.0
  O  O271  1  0.54391671  0.61894670  0.67428802  1.0
  O  O272  1  0.05698523  0.16842258  0.12473077  1.0
  O  O273  1  0.81817188  0.33147401  0.12466575  1.0
  O  O274  1  0.27453512  0.16844371  0.37528536  1.0
  O  O275  1  0.35024718  0.33152349  0.37527164  1.0
  O  O276  1  0.94301273  0.83157704  0.87526920  1.0
  O  O277  1  0.18182563  0.66852651  0.87533575  1.0
  O  O278  1  0.72545884  0.83155816  0.62471468  1.0
  O  O279  1  0.64975032  0.66847702  0.62472948  1.0
  O  O280  1  0.03118335  0.74984007  0.93707196  1.0
  O  O281  1  0.71916953  0.74975729  0.56290591  1.0
  O  O282  1  0.96881728  0.25016135  0.06292823  1.0
  O  O283  1  0.28089277  0.25021668  0.43709298  1.0
  O  O284  1  0.47432890  0.55237813  0.75019653  1.0
  O  O285  1  0.77602910  0.94762305  0.74997257  1.0
  O  O286  1  0.52567863  0.44762239  0.24980724  1.0
  O  O287  1  0.22397480  0.05237612  0.25002614  1.0
