# generated using pymatgen
data_Zn2H33C33N2ClO8
_symmetry_space_group_name_H-M   'P 1'
_cell_length_a   10.03689021
_cell_length_b   10.98162683
_cell_length_c   26.08603378
_cell_angle_alpha   89.85349956
_cell_angle_beta   89.42914959
_cell_angle_gamma   89.84022590
_symmetry_Int_Tables_number   1
_chemical_formula_structural   Zn2H33C33N2ClO8
_chemical_formula_sum   'Zn4 H66 C66 N4 Cl2 O16'
_cell_volume   2875.07563547
_cell_formula_units_Z   2
loop_
 _symmetry_equiv_pos_site_id
 _symmetry_equiv_pos_as_xyz
  1  'x, y, z'
loop_
 _atom_site_type_symbol
 _atom_site_label
 _atom_site_symmetry_multiplicity
 _atom_site_fract_x
 _atom_site_fract_y
 _atom_site_fract_z
 _atom_site_occupancy
  Zn  Zn0  1  0.33571490  0.51274888  0.49878862  1.0
  Zn  Zn1  1  0.63301344  0.51336617  0.49688762  1.0
  Zn  Zn2  1  0.66427219  0.51161582  0.08330119  1.0
  Zn  Zn3  1  0.36713336  0.51288653  0.08337333  1.0
  H  H4  1  0.28431902  0.45843519  0.66741402  1.0
  H  H5  1  0.71423220  0.45409075  0.91414898  1.0
  H  H6  1  0.34129867  0.64485232  0.92743036  1.0
  H  H7  1  0.32655128  0.65342119  0.83221370  1.0
  H  H8  1  0.66007537  0.64243964  0.65317545  1.0
  H  H9  1  0.67609607  0.65026336  0.74834536  1.0
  H  H10  1  0.08715128  0.75233495  0.42555085  1.0
  H  H11  1  0.23567909  0.66830819  0.43633810  1.0
  H  H12  1  0.12603985  0.62437776  0.38681989  1.0
  H  H13  1  0.89844573  0.39193940  0.61132438  1.0
  H  H14  1  0.74482036  0.44284409  0.58502772  1.0
  H  H15  1  0.81163564  0.29990942  0.56675456  1.0
  H  H16  1  0.89995181  0.65105183  0.38545240  1.0
  H  H17  1  0.74396711  0.61647444  0.41511294  1.0
  H  H18  1  0.83277960  0.74765266  0.43379493  1.0
  H  H19  1  0.05944299  0.27262151  0.57084242  1.0
  H  H20  1  0.21744576  0.32460981  0.54814834  1.0
  H  H21  1  0.14104858  0.39446983  0.60214034  1.0
  H  H22  1  0.53252134  0.88013618  0.61973638  1.0
  H  H23  1  0.60124479  0.77097965  0.57675834  1.0
  H  H24  1  0.69699152  0.89749124  0.59632789  1.0
  H  H25  1  0.28964521  0.12175629  0.40433118  1.0
  H  H26  1  0.38005254  0.25112892  0.42343699  1.0
  H  H27  1  0.45216876  0.14511174  0.37987941  1.0
  H  H28  1  0.70322978  0.11600172  0.59673875  1.0
  H  H29  1  0.57738126  0.22896786  0.59184718  1.0
  H  H30  1  0.54671109  0.09188880  0.62616623  1.0
  H  H31  1  0.44286362  0.93264409  0.37337010  1.0
  H  H32  1  0.41444179  0.79529054  0.40774623  1.0
  H  H33  1  0.28723182  0.90701943  0.40341154  1.0
  H  H34  1  0.19591405  0.29853364  0.32902846  1.0
  H  H35  1  0.22863495  0.40760500  0.37735975  1.0
  H  H36  1  0.15973786  0.45318541  0.31750508  1.0
  H  H37  1  0.79952207  0.29617031  0.25379428  1.0
  H  H38  1  0.76552679  0.40109358  0.20360612  1.0
  H  H39  1  0.83543088  0.45165713  0.26225409  1.0
  H  H40  1  0.19410329  0.44367119  0.22332360  1.0
  H  H41  1  0.28758921  0.32885984  0.19226778  1.0
  H  H42  1  0.20394491  0.29756081  0.25130308  1.0
  H  H43  1  0.80300743  0.44208378  0.35673212  1.0
  H  H44  1  0.70796983  0.33159243  0.38994053  1.0
  H  H45  1  0.78946761  0.29414290  0.33118192  1.0
  H  H46  1  0.91055901  0.75243147  0.15483799  1.0
  H  H47  1  0.76393329  0.66482197  0.14644927  1.0
  H  H48  1  0.87853984  0.62505854  0.19497646  1.0
  H  H49  1  0.09990420  0.39178201  0.96996036  1.0
  H  H50  1  0.25379202  0.44327510  0.99552920  1.0
  H  H51  1  0.18913926  0.30008041  0.01433420  1.0
  H  H52  1  0.10165410  0.65384430  0.19474000  1.0
  H  H53  1  0.25712743  0.61770927  0.16488111  1.0
  H  H54  1  0.16781976  0.74860698  0.14546779  1.0
  H  H55  1  0.94156321  0.27100238  0.01186725  1.0
  H  H56  1  0.78363953  0.32258551  0.03509189  1.0
  H  H57  1  0.85739865  0.39202126  0.98042181  1.0
  H  H58  1  0.48088671  0.87931825  0.96144972  1.0
  H  H59  1  0.40599866  0.77199596  0.00376239  1.0
  H  H60  1  0.31448122  0.90005316  0.98225734  1.0
  H  H61  1  0.70238826  0.11929371  0.18029623  1.0
  H  H62  1  0.61074413  0.24822771  0.16080335  1.0
  H  H63  1  0.53744797  0.13934287  0.20286041  1.0
  H  H64  1  0.30632451  0.11863140  0.98291103  1.0
  H  H65  1  0.43286323  0.22978153  0.98862237  1.0
  H  H66  1  0.46413005  0.09219899  0.95482854  1.0
  H  H67  1  0.54713620  0.92651934  0.20867871  1.0
  H  H68  1  0.58185078  0.79127669  0.17388018  1.0
  H  H69  1  0.70623126  0.90416697  0.18091823  1.0
  C  C70  1  0.50198405  0.27549120  0.50467626  1.0
  C  C71  1  0.46236492  0.53925130  0.59722120  1.0
  C  C72  1  0.49543242  0.74928928  0.49364963  1.0
  C  C73  1  0.47875357  0.46487277  0.39938834  1.0
  C  C74  1  0.50005869  0.27471020  0.07710197  1.0
  C  C75  1  0.53609980  0.53783589  0.98390905  1.0
  C  C76  1  0.50814182  0.74830563  0.08730472  1.0
  C  C77  1  0.51708326  0.46428583  0.18188324  1.0
  C  C78  1  0.05595896  0.58077433  0.46264404  1.0
  C  C79  1  0.91236217  0.45353744  0.53356070  1.0
  C  C80  1  0.91531552  0.58066898  0.46185571  1.0
  C  C81  1  0.05218555  0.44165545  0.53026262  1.0
  C  C82  1  0.49508079  0.88599413  0.49685442  1.0
  C  C83  1  0.49700165  0.13862103  0.50248484  1.0
  C  C84  1  0.54533481  0.94210160  0.54104283  1.0
  C  C85  1  0.44451137  0.08221516  0.45868001  1.0
  C  C86  1  0.54593205  0.07011269  0.54389674  1.0
  C  C87  1  0.44517495  0.95422654  0.45566738  1.0
  C  C88  1  0.47128656  0.54947909  0.65438328  1.0
  C  C89  1  0.52854205  0.54840889  0.92668903  1.0
  C  C90  1  0.37039121  0.50026305  0.68520600  1.0
  C  C91  1  0.38208564  0.50122815  0.73839651  1.0
  C  C92  1  0.62903552  0.49750941  0.89612738  1.0
  C  C93  1  0.61805814  0.49906784  0.84291019  1.0
  C  C94  1  0.41915959  0.60475050  0.90343942  1.0
  C  C95  1  0.41100151  0.60866645  0.85034322  1.0
  C  C96  1  0.58189184  0.60358678  0.67734884  1.0
  C  C97  1  0.59074354  0.60712172  0.73043596  1.0
  C  C98  1  0.49281891  0.55443670  0.76232770  1.0
  C  C99  1  0.50844270  0.55428986  0.81870562  1.0
  C  C100  1  0.48528662  0.42130621  0.34444303  1.0
  C  C101  1  0.51003771  0.42085808  0.23692640  1.0
  C  C102  1  0.36996720  0.40648534  0.31398184  1.0
  C  C103  1  0.62534415  0.40558584  0.26741739  1.0
  C  C104  1  0.38330076  0.40004677  0.26010406  1.0
  C  C105  1  0.61207709  0.39987581  0.32129797  1.0
  C  C106  1  0.94440945  0.58023536  0.11881099  1.0
  C  C107  1  0.08754359  0.45332441  0.04764178  1.0
  C  C108  1  0.08510244  0.58103108  0.11890045  1.0
  C  C109  1  0.94798898  0.44060567  0.05166168  1.0
  C  C110  1  0.50748588  0.88509789  0.08443831  1.0
  C  C111  1  0.50486366  0.13781751  0.07932701  1.0
  C  C112  1  0.46080098  0.94225492  0.03976200  1.0
  C  C113  1  0.55307293  0.08020555  0.12380483  1.0
  C  C114  1  0.45988220  0.07031623  0.03713005  1.0
  C  C115  1  0.55300459  0.95216250  0.12648272  1.0
  C  C116  1  0.13104186  0.66061105  0.42605201  1.0
  C  C117  1  0.83777750  0.39407730  0.57660435  1.0
  C  C118  1  0.84381136  0.65214403  0.42173066  1.0
  C  C119  1  0.12171056  0.35332920  0.56455608  1.0
  C  C120  1  0.59632058  0.86825246  0.58550401  1.0
  C  C121  1  0.38947538  0.15443818  0.41454747  1.0
  C  C122  1  0.59537820  0.13057639  0.59186981  1.0
  C  C123  1  0.39533085  0.89351187  0.40781401  1.0
  C  C124  1  0.23128451  0.39178982  0.33622357  1.0
  C  C125  1  0.76360366  0.38867161  0.24498720  1.0
  C  C126  1  0.26146749  0.36602096  0.22982270  1.0
  C  C127  1  0.73382507  0.36549892  0.35176286  1.0
  C  C128  1  0.86950365  0.65981177  0.15554750  1.0
  C  C129  1  0.16156892  0.39412187  0.00440545  1.0
  C  C130  1  0.15707719  0.65353506  0.15830522  1.0
  C  C131  1  0.87850254  0.35146540  0.01807462  1.0
  C  C132  1  0.41340037  0.86909060  0.99473972  1.0
  C  C133  1  0.60277282  0.15109168  0.16903732  1.0
  C  C134  1  0.41400974  0.13163832  0.98861941  1.0
  C  C135  1  0.59899987  0.88971549  0.17471536  1.0
  N  N136  1  0.12235713  0.50902277  0.49600282  1.0
  N  N137  1  0.84569046  0.51893188  0.49807588  1.0
  N  N138  1  0.87789549  0.50781818  0.08599848  1.0
  N  N139  1  0.15447024  0.51940003  0.08259087  1.0
  Cl  Cl140  1  0.25802894  0.42939108  0.77416822  1.0
  Cl  Cl141  1  0.74168661  0.42565291  0.80740726  1.0
  O  O142  1  0.39083937  0.33150672  0.50687821  1.0
  O  O143  1  0.61614895  0.32594802  0.50361426  1.0
  O  O144  1  0.57279103  0.54221993  0.57260710  1.0
  O  O145  1  0.34756238  0.52706517  0.57793894  1.0
  O  O146  1  0.60845658  0.69793220  0.48877575  1.0
  O  O147  1  0.38306656  0.69553023  0.49633083  1.0
  O  O148  1  0.36604252  0.48273646  0.42135734  1.0
  O  O149  1  0.58922478  0.48832145  0.42083648  1.0
  O  O150  1  0.61134339  0.33026782  0.07827480  1.0
  O  O151  1  0.38614664  0.32557369  0.07468785  1.0
  O  O152  1  0.42518830  0.54515897  0.00808575  1.0
  O  O153  1  0.64976749  0.52126511  0.00364645  1.0
  O  O154  1  0.39588292  0.69670652  0.09332101  1.0
  O  O155  1  0.62074975  0.69495176  0.08328724  1.0
  O  O156  1  0.62968356  0.49022341  0.16143729  1.0
  O  O157  1  0.40677399  0.47968242  0.15895198  1.0
