# generated using pymatgen
data_ZnH22C32I6(NO5)2
_symmetry_space_group_name_H-M   'P 1'
_cell_length_a   12.37143076
_cell_length_b   12.84784481
_cell_length_c   23.39446951
_cell_angle_alpha   89.07535991
_cell_angle_beta   84.35347745
_cell_angle_gamma   85.93346741
_symmetry_Int_Tables_number   1
_chemical_formula_structural   ZnH22C32I6(NO5)2
_chemical_formula_sum   'Zn2 H44 C64 I12 N4 O20'
_cell_volume   3690.94654554
_cell_formula_units_Z   2
loop_
 _symmetry_equiv_pos_site_id
 _symmetry_equiv_pos_as_xyz
  1  'x, y, z'
loop_
 _atom_site_type_symbol
 _atom_site_label
 _atom_site_symmetry_multiplicity
 _atom_site_fract_x
 _atom_site_fract_y
 _atom_site_fract_z
 _atom_site_occupancy
  Zn  Zn0  1  0.63470959  0.50760310  0.49520566  1.0
  Zn  Zn1  1  0.39191024  0.48677050  0.49798405  1.0
  H  H2  1  0.59712733  0.75593080  0.92966494  1.0
  H  H3  1  0.33404560  0.33263678  0.07437692  1.0
  H  H4  1  0.42987779  0.65084438  0.34076639  1.0
  H  H5  1  0.64876793  0.43477550  0.67289091  1.0
  H  H6  1  0.48559392  0.82779815  0.10932320  1.0
  H  H7  1  0.45919280  0.91099134  0.04915226  1.0
  H  H8  1  0.63641021  0.99369699  0.05904534  1.0
  H  H9  1  0.54518903  0.00853287  0.12264100  1.0
  H  H10  1  0.65631112  0.91176527  0.12012495  1.0
  H  H11  1  0.45639647  0.16568225  0.97847081  1.0
  H  H12  1  0.46641414  0.23200647  0.91014285  1.0
  H  H13  1  0.29685954  0.15903119  0.88552356  1.0
  H  H14  1  0.39267230  0.05564508  0.90260081  1.0
  H  H15  1  0.28120961  0.09432035  0.95370159  1.0
  H  H16  1  0.39761462  0.80150639  0.29053170  1.0
  H  H17  1  0.27902870  0.72960898  0.30372342  1.0
  H  H18  1  0.20482388  0.81228135  0.21574167  1.0
  H  H19  1  0.23272097  0.90925495  0.26493789  1.0
  H  H20  1  0.32404288  0.88273579  0.20248391  1.0
  H  H21  1  0.78229281  0.44394679  0.73121118  1.0
  H  H22  1  0.73618925  0.31565667  0.73192605  1.0
  H  H23  1  0.79790519  0.28465299  0.83091639  1.0
  H  H24  1  0.90766038  0.31820952  0.78061114  1.0
  H  H25  1  0.84384928  0.41314084  0.83000809  1.0
  H  H26  1  0.73757602  0.14332935  0.41576287  1.0
  H  H27  1  0.84036499  0.06643513  0.44906272  1.0
  H  H28  1  0.92903692  0.23410447  0.46804064  1.0
  H  H29  1  0.92084628  0.21355631  0.39388063  1.0
  H  H30  1  0.82624949  0.30558585  0.43186423  1.0
  H  H31  1  0.12714412  0.91008277  0.54947058  1.0
  H  H32  1  0.22468376  0.82183650  0.57960139  1.0
  H  H33  1  0.13781970  0.67123954  0.54107081  1.0
  H  H34  1  0.04472268  0.74682845  0.58983973  1.0
  H  H35  1  0.03482350  0.75905594  0.51467059  1.0
  H  H36  1  0.27491354  0.16662530  0.52898041  1.0
  H  H37  1  0.21090777  0.06450033  0.56882049  1.0
  H  H38  1  0.04301825  0.10326790  0.51566632  1.0
  H  H39  1  0.07569958  0.21402851  0.55371459  1.0
  H  H40  1  0.10948027  0.20637589  0.47791180  1.0
  H  H41  1  0.69636492  0.98059733  0.62690672  1.0
  H  H42  1  0.77353325  0.07507131  0.58649411  1.0
  H  H43  1  0.92360989  0.93660580  0.56164731  1.0
  H  H44  1  0.89525954  0.94712781  0.63760230  1.0
  H  H45  1  0.84610216  0.84246676  0.60074997  1.0
  C  C46  1  0.43351867  0.68976194  0.50350394  1.0
  C  C47  1  0.53955558  0.29828045  0.48801342  1.0
  C  C48  1  0.58321480  0.46599970  0.22551907  1.0
  C  C49  1  0.39749709  0.56653442  0.76294775  1.0
  C  C50  1  0.60502166  0.45467305  0.28332947  1.0
  C  C51  1  0.40359917  0.57074635  0.70250444  1.0
  C  C52  1  0.54861702  0.52266331  0.32394675  1.0
  C  C53  1  0.49541496  0.52112828  0.67089207  1.0
  C  C54  1  0.47347534  0.60146227  0.30752083  1.0
  C  C55  1  0.57893373  0.47016074  0.69929804  1.0
  C  C56  1  0.45242851  0.61346305  0.25022965  1.0
  C  C57  1  0.57258886  0.46600254  0.75907019  1.0
  C  C58  1  0.50660016  0.54375923  0.20936026  1.0
  C  C59  1  0.48099268  0.51462574  0.79076384  1.0
  C  C60  1  0.54545245  0.18040525  0.48580149  1.0
  C  C61  1  0.42692682  0.80689754  0.51030519  1.0
  C  C62  1  0.34067249  0.97752956  0.48718376  1.0
  C  C63  1  0.62536315  0.01503550  0.52288539  1.0
  C  C64  1  0.33511970  0.87049424  0.49394447  1.0
  C  C65  1  0.63433815  0.11903265  0.50617637  1.0
  C  C66  1  0.51262899  0.85764143  0.53013117  1.0
  C  C67  1  0.45700211  0.12830617  0.47148418  1.0
  C  C68  1  0.55613808  0.51139404  0.38771206  1.0
  C  C69  1  0.50873682  0.51318799  0.60628894  1.0
  C  C70  1  0.52755019  0.96465536  0.51670537  1.0
  C  C71  1  0.44166776  0.02410083  0.48952246  1.0
  C  C72  1  0.05536726  0.45915700  0.57728559  1.0
  C  C73  1  0.97249496  0.59782412  0.44689708  1.0
  C  C74  1  0.16575589  0.43386040  0.56206804  1.0
  C  C75  1  0.86094122  0.60914868  0.46344823  1.0
  C  C76  1  0.15163260  0.49238485  0.46772594  1.0
  C  C77  1  0.87263225  0.48328592  0.53513280  1.0
  C  C78  1  0.03901906  0.52794507  0.47966949  1.0
  C  C79  1  0.98866658  0.49197879  0.53344350  1.0
  C  C80  1  0.43272648  0.43716869  0.88477415  1.0
  C  C81  1  0.53074191  0.63286793  0.11747277  1.0
  C  C82  1  0.53325172  0.60100255  0.87262073  1.0
  C  C83  1  0.41400080  0.48064209  0.13170058  1.0
  C  C84  1  0.52398910  0.61006476  0.93568521  1.0
  C  C85  1  0.41727023  0.47330092  0.06850498  1.0
  C  C86  1  0.47354947  0.53375460  0.97162631  1.0
  C  C87  1  0.46891606  0.54815421  0.03215298  1.0
  C  C88  1  0.43087909  0.44535366  0.94796191  1.0
  C  C89  1  0.51377075  0.63534141  0.05584338  1.0
  C  C90  1  0.56187296  0.69725575  0.95855395  1.0
  C  C91  1  0.37351058  0.38911273  0.04559788  1.0
  C  C92  1  0.55410578  0.71369171  0.01830347  1.0
  C  C93  1  0.38205674  0.37178415  0.98589144  1.0
  C  C94  1  0.52328670  0.87305543  0.07357888  1.0
  C  C95  1  0.59495529  0.95140441  0.09502505  1.0
  C  C96  1  0.40991794  0.20058056  0.94414312  1.0
  C  C97  1  0.34062967  0.12281827  0.92013879  1.0
  C  C98  1  0.33271129  0.76637297  0.26989873  1.0
  C  C99  1  0.26976928  0.84714361  0.23607826  1.0
  C  C100  1  0.75091774  0.38112653  0.75946670  1.0
  C  C101  1  0.82939270  0.34739843  0.80301406  1.0
  C  C102  1  0.79613152  0.14400379  0.44829171  1.0
  C  C103  1  0.87237614  0.22998903  0.43514149  1.0
  C  C104  1  0.17046907  0.83215286  0.54492557  1.0
  C  C105  1  0.09205057  0.74699604  0.54751497  1.0
  C  C106  1  0.21366149  0.10872063  0.52791092  1.0
  C  C107  1  0.10383340  0.16094286  0.51810502  1.0
  C  C108  1  0.75843692  0.99187491  0.59061249  1.0
  C  C109  1  0.86202770  0.92546335  0.59791335  1.0
  I  I110  1  0.81061777  0.35147409  0.57701064  1.0
  I  I111  1  0.22207876  0.47681990  0.38289388  1.0
  I  I112  1  0.76083662  0.73436656  0.43745342  1.0
  I  I113  1  0.25611963  0.34593686  0.61961814  1.0
  I  I114  1  0.99437827  0.47184921  0.66364950  1.0
  I  I115  1  0.03995263  0.70332534  0.38638691  1.0
  I  I116  1  0.66460340  0.36924604  0.16092308  1.0
  I  I117  1  0.26578808  0.63755132  0.81552423  1.0
  I  I118  1  0.71260667  0.33408656  0.31049423  1.0
  I  I119  1  0.28286444  0.65971745  0.66220797  1.0
  I  I120  1  0.36648997  0.19875533  0.40672221  1.0
  I  I121  1  0.59390279  0.78060239  0.59623768  1.0
  N  N122  1  0.48085484  0.51807658  0.85187876  1.0
  N  N123  1  0.48190121  0.55333804  0.15098396  1.0
  N  N124  1  0.81175096  0.53836163  0.50065119  1.0
  N  N125  1  0.21164813  0.44997240  0.50760720  1.0
  O  O126  1  0.52927514  0.64636771  0.49781119  1.0
  O  O127  1  0.44303426  0.33700264  0.50273151  1.0
  O  O128  1  0.34722987  0.64192679  0.49979378  1.0
  O  O129  1  0.62447503  0.34828352  0.48075340  1.0
  O  O130  1  0.64639309  0.52201256  0.40783837  1.0
  O  O131  1  0.42308212  0.50830151  0.58179524  1.0
  O  O132  1  0.46631829  0.49428211  0.41588445  1.0
  O  O133  1  0.60601260  0.50770436  0.58175633  1.0
  O  O134  1  0.39416004  0.36725059  0.85967705  1.0
  O  O135  1  0.58809029  0.69177214  0.13995480  1.0
  O  O136  1  0.58055326  0.66206559  0.83959944  1.0
  O  O137  1  0.36178585  0.42473664  0.16556049  1.0
  O  O138  1  0.59141809  0.80467578  0.03369750  1.0
  O  O139  1  0.33692068  0.28473344  0.96972197  1.0
  O  O140  1  0.38136933  0.68750386  0.23021146  1.0
  O  O141  1  0.64977989  0.41935633  0.79032286  1.0
  O  O142  1  0.73450549  0.15992066  0.50453048  1.0
  O  O143  1  0.23712545  0.82858144  0.49021631  1.0
  O  O144  1  0.24529715  0.03599688  0.48118005  1.0
  O  O145  1  0.71597630  0.95820616  0.53856694  1.0
