# generated using pymatgen
data_Zn4H29C37S3N7O22
_symmetry_space_group_name_H-M   'P 1'
_cell_length_a   13.08404072
_cell_length_b   19.13944898
_cell_length_c   19.25963727
_cell_angle_alpha   84.87969839
_cell_angle_beta   84.81771009
_cell_angle_gamma   83.78718079
_symmetry_Int_Tables_number   1
_chemical_formula_structural   Zn4H29C37S3N7O22
_chemical_formula_sum   'Zn4 H29 C37 S3 N7 O22'
_cell_volume   4759.68991299
_cell_formula_units_Z   1
loop_
 _symmetry_equiv_pos_site_id
 _symmetry_equiv_pos_as_xyz
  1  'x, y, z'
loop_
 _atom_site_type_symbol
 _atom_site_label
 _atom_site_symmetry_multiplicity
 _atom_site_fract_x
 _atom_site_fract_y
 _atom_site_fract_z
 _atom_site_occupancy
  Zn  Zn0  1  0.57588346  0.55391484  0.42910675  1.0
  Zn  Zn1  1  0.56224424  0.43740404  0.56187013  1.0
  Zn  Zn2  1  0.38677805  0.45906501  0.45544029  1.0
  Zn  Zn3  1  0.41372695  0.57735791  0.56268283  1.0
  H  H4  1  0.07449041  0.47899652  0.47999606  1.0
  H  H5  1  0.37149429  0.42733035  0.10856296  1.0
  H  H6  1  0.52558755  0.77609114  0.57548804  1.0
  H  H7  1  0.37187648  0.55841951  0.79074937  1.0
  H  H8  1  0.07446027  0.60862940  0.56223147  1.0
  H  H9  1  0.58789051  0.22614846  0.58768134  1.0
  H  H10  1  0.60281646  0.56263024  0.22131231  1.0
  H  H11  1  0.49236972  0.91465536  0.34688267  1.0
  H  H12  1  0.70778576  0.46441602  0.88060345  1.0
  H  H13  1  0.39640042  0.24034937  0.41636183  1.0
  H  H14  1  0.35405139  0.43149853  0.23949150  1.0
  H  H15  1  0.92151162  0.65403563  0.61284223  1.0
  H  H16  1  0.52869046  0.90727193  0.56670976  1.0
  H  H17  1  0.99655975  0.40128139  0.48845613  1.0
  H  H18  1  0.93123856  0.31405972  0.43583548  1.0
  H  H19  1  0.81513861  0.36870101  0.42183494  1.0
  H  H20  1  0.83264622  0.32429320  0.50608521  1.0
  H  H21  1  0.65701977  0.12350616  0.63004170  1.0
  H  H22  1  0.39253310  0.54993725  0.91988088  1.0
  H  H23  1  0.69009681  0.98984048  0.56821487  1.0
  H  H24  1  0.58783088  0.99028002  0.63501178  1.0
  H  H25  1  0.71223103  0.01001306  0.65442015  1.0
  H  H26  1  0.66638083  0.60059971  0.11552334  1.0
  H  H27  1  0.78576672  0.49357485  0.10185433  1.0
  H  H28  1  0.79283955  0.55928848  0.02970745  1.0
  H  H29  1  0.72406040  0.48495946  0.02388280  1.0
  H  H30  1  0.49303978  0.84216340  0.23696803  1.0
  H  H31  1  0.84677382  0.51553991  0.75480052  1.0
  H  H32  1  0.42671313  0.10850886  0.41229267  1.0
  C  C33  1  0.47813475  0.31805230  0.50733108  1.0
  C  C34  1  0.45551699  0.53175324  0.88278708  1.0
  C  C35  1  0.52316599  0.87939031  0.52058705  1.0
  C  C36  1  0.51388167  0.91841575  0.45564337  1.0
  C  C37  1  0.55022827  0.50392110  0.90782796  1.0
  C  C38  1  0.50359935  0.88327836  0.39605363  1.0
  C  C39  1  0.63354742  0.48294806  0.86066669  1.0
  C  C40  1  0.47261821  0.50236168  0.31471153  1.0
  C  C41  1  0.50475203  0.81010233  0.40093647  1.0
  C  C42  1  0.62024993  0.48496115  0.78964290  1.0
  C  C43  1  0.56996874  0.12522485  0.54935175  1.0
  C  C44  1  0.57003693  0.52670218  0.12342761  1.0
  C  C45  1  0.55286385  0.19949247  0.54945165  1.0
  C  C46  1  0.55288391  0.53255839  0.19574681  1.0
  C  C47  1  0.52290457  0.09292952  0.49774342  1.0
  C  C48  1  0.50068996  0.48812351  0.09192201  1.0
  C  C49  1  0.49180827  0.23999112  0.50282486  1.0
  C  C50  1  0.47769224  0.49835246  0.23736274  1.0
  C  C51  1  0.44479240  0.20776567  0.45230040  1.0
  C  C52  1  0.41237695  0.45837244  0.20666422  1.0
  C  C53  1  0.51140994  0.69266620  0.47708921  1.0
  C  C54  1  0.50288089  0.50911183  0.68915130  1.0
  C  C55  1  0.46154054  0.13566612  0.45010791  1.0
  C  C56  1  0.52141174  0.80695958  0.52527562  1.0
  C  C57  1  0.42319186  0.45523105  0.13492480  1.0
  C  C58  1  0.21134520  0.54343687  0.52648646  1.0
  C  C59  1  0.75674675  0.47889126  0.48792921  1.0
  C  C60  1  0.87256080  0.47442508  0.49239060  1.0
  C  C61  1  0.92411136  0.52959640  0.50986057  1.0
  C  C62  1  0.44433723  0.53618263  0.81142685  1.0
  C  C63  1  0.09957864  0.56243215  0.53384454  1.0
  C  C64  1  0.03446880  0.52284140  0.50781588  1.0
  C  C65  1  0.51309318  0.77088892  0.46601721  1.0
  C  C66  1  0.52466646  0.51094233  0.76394032  1.0
  C  C67  1  0.87188506  0.35124521  0.45999256  1.0
  C  C68  1  0.65651514  0.01636952  0.61447062  1.0
  C  C69  1  0.74327490  0.52233388  0.05926013  1.0
  S  S70  1  0.85443209  0.60894524  0.53367729  1.0
  S  S71  1  0.48821420  0.76652109  0.32447169  1.0
  S  S72  1  0.72855182  0.45570135  0.73183622  1.0
  N  N73  1  0.50827670  0.99257553  0.44663365  1.0
  N  N74  1  0.92125116  0.41081147  0.47878343  1.0
  N  N75  1  0.63195772  0.09123639  0.59772051  1.0
  N  N76  1  0.64829543  0.56236561  0.08642345  1.0
  N  N77  1  0.56982898  0.49825000  0.97897938  1.0
  N  N78  1  0.53635500  0.01993405  0.49910200  1.0
  N  N79  1  0.49160510  0.48605507  0.02069048  1.0
  O  O80  1  0.48489660  0.50724272  0.50143034  1.0
  O  O81  1  0.53568157  0.45212180  0.66130422  1.0
  O  O82  1  0.40136622  0.47279896  0.35228113  1.0
  O  O83  1  0.41289141  0.35453862  0.46998990  1.0
  O  O84  1  0.45039810  0.56240938  0.66122092  1.0
  O  O85  1  0.45736829  0.67098571  0.53142178  1.0
  O  O86  1  0.24677422  0.49097461  0.49107904  1.0
  O  O87  1  0.71071933  0.44259603  0.53675147  1.0
  O  O88  1  0.72126201  0.51248506  0.43425996  1.0
  O  O89  1  0.26511291  0.58114657  0.55802832  1.0
  O  O90  1  0.89765274  0.66828500  0.49475931  1.0
  O  O91  1  0.74561163  0.60280801  0.53794293  1.0
  O  O92  1  0.88441737  0.61210154  0.61423960  1.0
  O  O93  1  0.53453453  0.34179498  0.54885109  1.0
  O  O94  1  0.58674590  0.74287745  0.29003936  1.0
  O  O95  1  0.40818850  0.72077783  0.34141030  1.0
  O  O96  1  0.43911701  0.83210969  0.27401027  1.0
  O  O97  1  0.73496277  0.38056806  0.73061182  1.0
  O  O98  1  0.73188455  0.50291127  0.66946496  1.0
  O  O99  1  0.82474009  0.47015030  0.77483481  1.0
  O  O100  1  0.54233713  0.53434737  0.33672843  1.0
  O  O101  1  0.56531571  0.65580866  0.43280815  1.0
