# generated using pymatgen
data_Zn4H48C54N10O31
_symmetry_space_group_name_H-M   'P 1'
_cell_length_a   16.02317590
_cell_length_b   19.14542519
_cell_length_c   19.17858632
_cell_angle_alpha   94.78751756
_cell_angle_beta   94.87298621
_cell_angle_gamma   90.57058054
_symmetry_Int_Tables_number   1
_chemical_formula_structural   Zn4H48C54N10O31
_chemical_formula_sum   'Zn4 H48 C54 N10 O31'
_cell_volume   5840.84509524
_cell_formula_units_Z   1
loop_
 _symmetry_equiv_pos_site_id
 _symmetry_equiv_pos_as_xyz
  1  'x, y, z'
loop_
 _atom_site_type_symbol
 _atom_site_label
 _atom_site_symmetry_multiplicity
 _atom_site_fract_x
 _atom_site_fract_y
 _atom_site_fract_z
 _atom_site_occupancy
  Zn  Zn0  1  0.43655584  0.56140814  0.56055926  1.0
  Zn  Zn1  1  0.58607020  0.44855944  0.55766366  1.0
  Zn  Zn2  1  0.56975269  0.56459033  0.44657768  1.0
  Zn  Zn3  1  0.43274580  0.44209661  0.43592870  1.0
  H  H4  1  0.01521367  0.57282270  0.49905338  1.0
  H  H5  1  0.36229871  0.89870357  0.57077486  1.0
  H  H6  1  0.38080498  0.76813376  0.56703834  1.0
  H  H7  1  0.53665776  0.21767601  0.37612181  1.0
  H  H8  1  0.53099380  0.08701598  0.38398547  1.0
  H  H9  1  0.59400506  0.60329205  0.91750560  1.0
  H  H10  1  0.00545103  0.30335116  0.53830594  1.0
  H  H11  1  0.09834578  0.35615569  0.55509617  1.0
  H  H12  1  0.02508046  0.29083167  0.41050236  1.0
  H  H13  1  0.11493129  0.34659196  0.42444616  1.0
  H  H14  1  0.18877980  0.26094579  0.50012652  1.0
  H  H15  1  0.15672934  0.22016144  0.41552651  1.0
  H  H16  1  0.09903468  0.20444457  0.48784220  1.0
  H  H17  1  0.70417843  0.69976216  0.48947551  1.0
  H  H18  1  0.64941375  0.72720017  0.56384496  1.0
  H  H19  1  0.79793906  0.80649079  0.51467891  1.0
  H  H20  1  0.74214800  0.83432546  0.58730609  1.0
  H  H21  1  0.78584992  0.72533494  0.64667893  1.0
  H  H22  1  0.87433698  0.77406913  0.62708691  1.0
  H  H23  1  0.84162224  0.69667317  0.57364958  1.0
  H  H24  1  0.37126548  0.41510145  0.65844366  1.0
  H  H25  1  0.33324830  0.46871040  0.72976360  1.0
  H  H26  1  0.31955075  0.30841112  0.71011876  1.0
  H  H27  1  0.27392932  0.36280036  0.77546802  1.0
  H  H28  1  0.18356931  0.41795146  0.67896184  1.0
  H  H29  1  0.16569901  0.32616642  0.67630994  1.0
  H  H30  1  0.22913162  0.36093620  0.61528136  1.0
  H  H31  1  0.27695594  0.34339018  0.18864153  1.0
  H  H32  1  0.27235172  0.43446781  0.17634526  1.0
  H  H33  1  0.27543607  0.37237416  0.31921857  1.0
  H  H34  1  0.26775555  0.46214694  0.30565671  1.0
  H  H35  1  0.12928245  0.43811791  0.23239111  1.0
  H  H36  1  0.12577971  0.41097302  0.31825232  1.0
  H  H37  1  0.13648563  0.34781892  0.24649312  1.0
  H  H38  1  0.46285163  0.64334659  0.30857442  1.0
  H  H39  1  0.44913349  0.67935507  0.22508224  1.0
  H  H40  1  0.59068936  0.71602808  0.34116421  1.0
  H  H41  1  0.58511280  0.74715009  0.25636164  1.0
  H  H42  1  0.44728506  0.80444362  0.27820872  1.0
  H  H43  1  0.52717661  0.83520530  0.34384593  1.0
  H  H44  1  0.45178205  0.77249044  0.36284873  1.0
  H  H45  1  0.36052579  0.05463263  0.64724164  1.0
  H  H46  1  0.34100642  0.05937803  0.55511839  1.0
  H  H47  1  0.31887464  0.17985630  0.66855612  1.0
  H  H48  1  0.30133668  0.18671494  0.57695817  1.0
  H  H49  1  0.18732393  0.09375266  0.56820678  1.0
  H  H50  1  0.16561585  0.16515775  0.62869501  1.0
  H  H51  1  0.20431854  0.08602355  0.66000632  1.0
  C  C52  1  0.51337240  0.31807367  0.48138223  1.0
  C  C53  1  0.49944768  0.69230361  0.51443693  1.0
  C  C54  1  0.51623917  0.50479898  0.68712898  1.0
  C  C55  1  0.47870231  0.50845249  0.31613648  1.0
  C  C56  1  0.73125711  0.51691858  0.50590200  1.0
  C  C57  1  0.28335682  0.48537513  0.50247252  1.0
  C  C58  1  0.82019050  0.51997875  0.50491145  1.0
  C  C59  1  0.98290311  0.52295452  0.50210630  1.0
  C  C60  1  0.03077130  0.46381399  0.50410983  1.0
  C  C61  1  0.11870946  0.46998284  0.50386807  1.0
  C  C62  1  0.89615983  0.52133308  0.50270312  1.0
  C  C63  1  0.19439113  0.47705968  0.50409671  1.0
  C  C64  1  0.49871771  0.77047446  0.52234827  1.0
  C  C65  1  0.56243639  0.81312947  0.49994595  1.0
  C  C66  1  0.54903154  0.88555703  0.49967697  1.0
  C  C67  1  0.47670919  0.91653838  0.52435891  1.0
  C  C68  1  0.41729027  0.87378814  0.55084532  1.0
  C  C69  1  0.42799694  0.80206415  0.54905943  1.0
  C  C70  1  0.46915815  0.13910337  0.54641132  1.0
  C  C71  1  0.48104948  0.21146213  0.54269773  1.0
  C  C72  1  0.48916478  0.09420139  0.48700040  1.0
  C  C73  1  0.50366197  0.24023874  0.48209768  1.0
  C  C74  1  0.51888632  0.19549609  0.42330269  1.0
  C  C75  1  0.51432428  0.12356103  0.42706339  1.0
  C  C76  1  0.47011820  0.50581058  0.23755883  1.0
  C  C77  1  0.51293288  0.55634896  0.20307843  1.0
  C  C78  1  0.51652073  0.54797259  0.13042130  1.0
  C  C79  1  0.47679175  0.49092668  0.08924324  1.0
  C  C80  1  0.43155575  0.44352170  0.12413714  1.0
  C  C81  1  0.42556635  0.44996889  0.19693054  1.0
  C  C82  1  0.47255868  0.45765814  0.86909488  1.0
  C  C83  1  0.47265130  0.45565875  0.79588449  1.0
  C  C84  1  0.51581676  0.51072696  0.91386123  1.0
  C  C85  1  0.51850909  0.50719719  0.76609303  1.0
  C  C86  1  0.56187552  0.55926556  0.81115052  1.0
  C  C87  1  0.56089216  0.56174975  0.88356594  1.0
  C  C88  1  0.04634842  0.34019886  0.51562909  1.0
  C  C89  1  0.07860135  0.30726826  0.44833605  1.0
  C  C90  1  0.13379675  0.24472090  0.46388211  1.0
  C  C91  1  0.68692865  0.74556513  0.52325810  1.0
  C  C92  1  0.76311300  0.78750798  0.55662009  1.0
  C  C93  1  0.81927798  0.74334198  0.60353498  1.0
  C  C94  1  0.35520380  0.41617845  0.71307507  1.0
  C  C95  1  0.29063260  0.35961858  0.72085404  1.0
  C  C96  1  0.21296052  0.36663237  0.67006200  1.0
  C  C97  1  0.29234933  0.39620584  0.21384261  1.0
  C  C98  1  0.25065005  0.40924336  0.28182465  1.0
  C  C99  1  0.15539393  0.40094511  0.26886392  1.0
  C  C100  1  0.49583035  0.66606620  0.26737351  1.0
  C  C101  1  0.54719647  0.72998847  0.29720865  1.0
  C  C102  1  0.49009601  0.78883033  0.32189890  1.0
  C  C103  1  0.35862228  0.09032848  0.60519135  1.0
  C  C104  1  0.29868826  0.15017852  0.61821094  1.0
  C  C105  1  0.20908209  0.12217524  0.61881767  1.0
  N  N106  1  0.45851258  0.98826523  0.52685550  1.0
  N  N107  1  0.49620097  0.02138999  0.48399180  1.0
  N  N108  1  0.47594315  0.47659332  0.01635165  1.0
  N  N109  1  0.51671148  0.52120597  0.98688987  1.0
  N  N110  1  0.42203982  0.40193730  0.89483244  1.0
  N  N111  1  0.39209756  0.38150491  0.08233575  1.0
  N  N112  1  0.61036483  0.61426937  0.78180475  1.0
  N  N113  1  0.56332750  0.60373477  0.10059502  1.0
  N  N114  1  0.46110281  0.25954233  0.60277776  1.0
  N  N115  1  0.61839949  0.92763393  0.47757065  1.0
  O  O116  1  0.50683770  0.50343809  0.50154456  1.0
  O  O117  1  0.47418063  0.34581411  0.43031741  1.0
  O  O118  1  0.45876649  0.66136366  0.55772988  1.0
  O  O119  1  0.56846251  0.46533362  0.65819496  1.0
  O  O120  1  0.54863419  0.53150956  0.34644404  1.0
  O  O121  1  0.70134217  0.46850532  0.53920034  1.0
  O  O122  1  0.32009391  0.43563166  0.46939595  1.0
  O  O123  1  0.68993558  0.56299238  0.47315670  1.0
  O  O124  1  0.31636685  0.54164667  0.53392059  1.0
  O  O125  1  0.45728341  0.53945118  0.65873567  1.0
  O  O126  1  0.41739506  0.48620585  0.34688373  1.0
  O  O127  1  0.56067934  0.34831289  0.53161405  1.0
  O  O128  1  0.53666159  0.66288782  0.46382598  1.0
  O  O129  1  0.99341152  0.40026631  0.50472349  1.0
  O  O130  1  0.63590766  0.78953802  0.47846382  1.0
  O  O131  1  0.43146701  0.40166880  0.75710618  1.0
  O  O132  1  0.45836899  0.34776984  0.90833337  1.0
  O  O133  1  0.34646567  0.41343278  0.89641004  1.0
  O  O134  1  0.32039702  0.38820751  0.05483731  1.0
  O  O135  1  0.43394726  0.32781820  0.07990844  1.0
  O  O136  1  0.38406176  0.40033849  0.22760918  1.0
  O  O137  1  0.64466648  0.66086912  0.82324443  1.0
  O  O138  1  0.61349407  0.61007647  0.71707277  1.0
  O  O139  1  0.52333131  0.65610239  0.08577449  1.0
  O  O140  1  0.63892235  0.59509670  0.09691267  1.0
  O  O141  1  0.55171559  0.61434919  0.23711731  1.0
  O  O142  1  0.40605946  0.30335721  0.58985122  1.0
  O  O143  1  0.49817659  0.25271577  0.66050156  1.0
  O  O144  1  0.44494974  0.11550463  0.60614246  1.0
  O  O145  1  0.66333317  0.96078965  0.52495284  1.0
  O  O146  1  0.62903452  0.92340742  0.41440406  1.0
