# generated using pymatgen
data_ZnH11C15NO4
_symmetry_space_group_name_H-M   'P 1'
_cell_length_a   9.00720219
_cell_length_b   13.97627329
_cell_length_c   15.35502965
_cell_angle_alpha   90.43374652
_cell_angle_beta   90.85875937
_cell_angle_gamma   100.42993349
_symmetry_Int_Tables_number   1
_chemical_formula_structural   ZnH11C15NO4
_chemical_formula_sum   'Zn2 H22 C30 N2 O8'
_cell_volume   1900.74406798
_cell_formula_units_Z   2
loop_
 _symmetry_equiv_pos_site_id
 _symmetry_equiv_pos_as_xyz
  1  'x, y, z'
loop_
 _atom_site_type_symbol
 _atom_site_label
 _atom_site_symmetry_multiplicity
 _atom_site_fract_x
 _atom_site_fract_y
 _atom_site_fract_z
 _atom_site_occupancy
  Zn  Zn0  1  0.48538288  0.39936516  0.50105707  1.0
  Zn  Zn1  1  0.51002874  0.60106513  0.49869863  1.0
  H  H2  1  0.02414320  0.61651861  0.50451771  1.0
  H  H3  1  0.38903352  0.05301846  0.37355832  1.0
  H  H4  1  0.71918382  0.78124950  0.56174330  1.0
  H  H5  1  0.38313419  0.23165318  0.37996909  1.0
  H  H6  1  0.30274004  0.72690486  0.43708370  1.0
  H  H7  1  0.59411863  0.26239086  0.62176049  1.0
  H  H8  1  0.28734792  0.90424771  0.43452899  1.0
  H  H9  1  0.61026784  0.08505515  0.62686019  1.0
  H  H10  1  0.72479397  0.66400363  0.72468988  1.0
  H  H11  1  0.56456532  0.71673883  0.74144819  1.0
  H  H12  1  0.70850779  0.72788016  0.82423588  1.0
  H  H13  1  0.97232091  0.39243086  0.49551560  1.0
  H  H14  1  0.57956786  0.29457740  0.25591601  1.0
  H  H15  1  0.72782168  0.32653579  0.18003567  1.0
  H  H16  1  0.72988071  0.38997651  0.28137288  1.0
  H  H17  1  0.38567627  0.34887460  0.93659430  1.0
  H  H18  1  0.37671508  0.61681915  0.06263928  1.0
  H  H19  1  0.39374243  0.35280645  0.77397395  1.0
  H  H20  1  0.38459397  0.61274842  0.22526449  1.0
  H  H21  1  0.61205878  0.64725907  0.94529894  1.0
  H  H22  1  0.62320224  0.38066743  0.05567689  1.0
  H  H23  1  0.72313841  0.96121555  0.56595133  1.0
  C  C24  1  0.50164881  0.49789248  0.67088030  1.0
  C  C25  1  0.56000877  0.11420556  0.57024657  1.0
  C  C26  1  0.50488805  0.94839487  0.50004662  1.0
  C  C27  1  0.50019926  0.05349034  0.50027354  1.0
  C  C28  1  0.79397192  0.53016168  0.50227408  1.0
  C  C29  1  0.20250425  0.47998303  0.49701416  1.0
  C  C30  1  0.96136064  0.54208931  0.50153922  1.0
  C  C31  1  0.03480879  0.46693860  0.49745560  1.0
  C  C32  1  0.43725304  0.41487172  0.90313144  1.0
  C  C33  1  0.43211469  0.56419907  0.09644885  1.0
  C  C34  1  0.44116655  0.41710002  0.81269846  1.0
  C  C35  1  0.49968626  0.49354404  0.32900599  1.0
  C  C36  1  0.43559562  0.56156154  0.18699863  1.0
  C  C37  1  0.50458183  0.50180847  0.76841465  1.0
  C  C38  1  0.50336180  0.49300096  0.23146673  1.0
  C  C39  1  0.56741460  0.58668881  0.81631652  1.0
  C  C40  1  0.57268016  0.42647795  0.18421993  1.0
  C  C41  1  0.56108163  0.58291295  0.90732642  1.0
  C  C42  1  0.56722009  0.43016924  0.09319321  1.0
  C  C43  1  0.49734781  0.49861563  0.95184637  1.0
  C  C44  1  0.49765200  0.49753078  0.04819503  1.0
  C  C45  1  0.64578592  0.67899410  0.77463518  1.0
  C  C46  1  0.62680922  0.91224041  0.53706241  1.0
  C  C47  1  0.65719265  0.35566076  0.22751626  1.0
  C  C48  1  0.43455802  0.09605663  0.43051660  1.0
  C  C49  1  0.62616170  0.81265811  0.53490961  1.0
  C  C50  1  0.43084566  0.19500124  0.43318226  1.0
  C  C51  1  0.39331517  0.78231123  0.46372306  1.0
  C  C52  1  0.55129711  0.21246766  0.56842617  1.0
  C  C53  1  0.38637764  0.88078523  0.46271618  1.0
  N  N54  1  0.51138169  0.74890822  0.49904306  1.0
  N  N55  1  0.48764913  0.25202964  0.50106692  1.0
  O  O56  1  0.50180674  0.41529269  0.63478477  1.0
  O  O57  1  0.51819384  0.57647834  0.36670331  1.0
  O  O58  1  0.49688629  0.57662687  0.63059733  1.0
  O  O59  1  0.47657386  0.41146462  0.36698347  1.0
  O  O60  1  0.71709811  0.44453046  0.49536158  1.0
  O  O61  1  0.27722684  0.56595568  0.48905501  1.0
  O  O62  1  0.74083265  0.60876125  0.50926958  1.0
  O  O63  1  0.25788146  0.40256310  0.50497277  1.0
