# generated using pymatgen
data_Al6H53C87N3O28
_symmetry_space_group_name_H-M   'P 1'
_cell_length_a   13.40202463
_cell_length_b   13.40453085
_cell_length_c   27.57829698
_cell_angle_alpha   88.92466190
_cell_angle_beta   89.44959088
_cell_angle_gamma   60.06017875
_symmetry_Int_Tables_number   1
_chemical_formula_structural   Al6H53C87N3O28
_chemical_formula_sum   'Al6 H53 C87 N3 O28'
_cell_volume   4292.46372116
_cell_formula_units_Z   1
loop_
 _symmetry_equiv_pos_site_id
 _symmetry_equiv_pos_as_xyz
  1  'x, y, z'
loop_
 _atom_site_type_symbol
 _atom_site_label
 _atom_site_symmetry_multiplicity
 _atom_site_fract_x
 _atom_site_fract_y
 _atom_site_fract_z
 _atom_site_occupancy
  Al  Al0  1  0.41752830  0.40206979  0.50553863  1.0
  Al  Al1  1  0.41924778  0.64103333  0.50202562  1.0
  Al  Al2  1  0.64615239  0.42206118  0.50087904  1.0
  Al  Al3  1  0.92231601  0.91255901  0.01349140  1.0
  Al  Al4  1  0.68199591  0.91390366  0.01494602  1.0
  Al  Al5  1  0.89923346  0.68530789  0.01722651  1.0
  H  H6  1  0.49841951  0.84790574  0.78569597  1.0
  H  H7  1  0.65317729  0.82627966  0.71009525  1.0
  H  H8  1  0.78680769  0.50053896  0.21842948  1.0
  H  H9  1  0.81541584  0.53349544  0.13184522  1.0
  H  H10  1  0.46534526  0.79074215  0.28582638  1.0
  H  H11  1  0.53793232  0.86151870  0.23166188  1.0
  H  H12  1  0.56212301  0.89157312  0.14433380  1.0
  H  H13  1  0.82262870  0.52661739  0.29543750  1.0
  H  H14  1  0.79537846  0.49569997  0.38240571  1.0
  H  H15  1  0.75571521  0.30557245  0.36507843  1.0
  H  H16  1  0.49890337  0.18759956  0.22230030  1.0
  H  H17  1  0.47478284  0.28673275  0.78877743  1.0
  H  H18  1  0.52716186  0.12336429  0.13667818  1.0
  H  H19  1  0.48322926  0.66280790  0.74772818  1.0
  H  H20  1  0.77969564  0.24660770  0.27879391  1.0
  H  H21  1  0.85599535  0.09563588  0.22981244  1.0
  H  H22  1  0.88095629  0.03799879  0.14332942  1.0
  H  H23  1  0.53715421  0.12741967  0.30044287  1.0
  H  H24  1  0.50776903  0.19510049  0.38576364  1.0
  H  H25  1  0.27023561  0.45186872  0.37974652  1.0
  H  H26  1  0.20843139  0.77635624  0.21684303  1.0
  H  H27  1  0.14252749  0.80473145  0.13083702  1.0
  H  H28  1  0.74283157  0.96553390  0.77831146  1.0
  H  H29  1  0.20975386  0.47595772  0.29324563  1.0
  H  H30  1  0.05980443  0.55954587  0.24244297  1.0
  H  H31  1  0.67328134  0.50714908  0.80741931  1.0
  H  H32  1  0.00317285  0.58117414  0.15553180  1.0
  H  H33  1  0.14679367  0.82429887  0.29362168  1.0
  H  H34  1  0.21287455  0.79675606  0.37937719  1.0
  H  H35  1  0.82529550  0.48449303  0.73124051  1.0
  H  H36  1  0.84227943  0.66958964  0.76992016  1.0
  H  H37  1  0.79863672  0.22861329  0.79561299  1.0
  H  H38  1  0.86827701  0.05198295  0.72630120  1.0
  H  H39  1  0.98472797  0.73283028  0.71406460  1.0
  H  H40  1  0.55066773  0.07211395  0.68185790  1.0
  H  H41  1  0.40331451  0.05772220  0.72281202  1.0
  H  H42  1  0.40591419  0.14418803  0.77037478  1.0
  H  H43  1  0.51849624  0.99892123  0.76594505  1.0
  H  H44  1  0.08362641  0.49993048  0.81978207  1.0
  H  H45  1  0.02782887  0.40215527  0.76511348  1.0
  H  H46  1  0.16114626  0.38337391  0.74187275  1.0
  H  H47  1  0.02815417  0.49106323  0.71657555  1.0
  H  H48  1  0.58328392  0.44603208  0.76319241  1.0
  H  H49  1  0.46097689  0.54343393  0.70209318  1.0
  H  H50  1  0.30014007  0.46345533  0.73867050  1.0
  H  H51  1  0.45170013  0.41622393  0.69715981  1.0
  H  H52  1  0.54887780  0.43705978  0.65999568  1.0
  H  H53  1  0.33989023  0.59418952  0.80816131  1.0
  H  H54  1  0.24735723  0.78448950  0.74190768  1.0
  H  H55  1  0.02659534  0.86225971  0.78351253  1.0
  H  H56  1  0.44119271  0.76320482  0.37342953  1.0
  H  H57  1  0.27995601  0.34873504  0.48802383  1.0
  H  H58  1  0.98790097  0.03795266  0.03556331  1.0
  C  C59  1  0.29352378  0.60442654  0.57289720  1.0
  C  C60  1  0.63398959  0.63630828  0.66047788  1.0
  C  C61  1  0.78131825  0.10354947  0.74084682  1.0
  C  C62  1  0.59668583  0.59794714  0.57027136  1.0
  C  C63  1  0.74267843  0.20209645  0.77831598  1.0
  C  C64  1  0.68602434  0.10116607  0.89950073  1.0
  C  C65  1  0.66433898  0.21822945  0.61366525  1.0
  C  C66  1  0.71123465  0.05576435  0.76823621  1.0
  C  C67  1  0.67096057  0.15530288  0.80671499  1.0
  C  C68  1  0.60020877  0.13803330  0.73642220  1.0
  C  C69  1  0.67377348  0.18239806  0.70787689  1.0
  C  C70  1  0.62047961  0.62317843  0.61780907  1.0
  C  C71  1  0.56228967  0.23495917  0.77464191  1.0
  C  C72  1  0.63469570  0.28242855  0.74673312  1.0
  C  C73  1  0.67517633  0.13147392  0.85700763  1.0
  C  C74  1  0.62853145  0.27503697  0.56731644  1.0
  C  C75  1  0.67220705  0.19884691  0.65727457  1.0
  C  C76  1  0.06336317  0.70211531  0.73540464  1.0
  C  C77  1  0.11512957  0.59589333  0.77152242  1.0
  C  C78  1  0.09179335  0.67612368  0.90266896  1.0
  C  C79  1  0.24069114  0.63680340  0.61986370  1.0
  C  C80  1  0.08707491  0.77401069  0.77282183  1.0
  C  C81  1  0.76183263  0.66925637  0.76412056  1.0
  C  C82  1  0.13868752  0.66791818  0.80962870  1.0
  C  C83  1  0.20966616  0.73051606  0.75089104  1.0
  C  C84  1  0.18697781  0.65782047  0.71249259  1.0
  C  C85  1  0.26202397  0.62418340  0.78637115  1.0
  C  C86  1  0.29070603  0.60229337  0.43483295  1.0
  C  C87  1  0.23931079  0.55166977  0.74916189  1.0
  C  C88  1  0.11466406  0.67137671  0.85958960  1.0
  C  C89  1  0.21306662  0.64971978  0.66248900  1.0
  C  C90  1  0.61700823  0.62878298  0.38359852  1.0
  C  C91  1  0.52473194  0.71279269  0.35605547  1.0
  C  C92  1  0.67547884  0.68250789  0.80681220  1.0
  C  C93  1  0.53908790  0.72804632  0.30702058  1.0
  C  C94  1  0.64599171  0.66126775  0.28392296  1.0
  C  C95  1  0.73820048  0.57792569  0.31208466  1.0
  C  C96  1  0.72396984  0.56123822  0.36102814  1.0
  C  C97  1  0.73835612  0.58698353  0.20266077  1.0
  C  C98  1  0.59702810  0.60522543  0.43454948  1.0
  C  C99  1  0.75358818  0.60447597  0.15392037  1.0
  C  C100  1  0.60993252  0.80598354  0.16084944  1.0
  C  C101  1  0.59644508  0.78831113  0.20973252  1.0
  C  C102  1  0.66031157  0.67864241  0.23176774  1.0
  C  C103  1  0.75340844  0.56561872  0.74376665  1.0
  C  C104  1  0.68934083  0.71430522  0.13247938  1.0
  C  C105  1  0.63061265  0.25337295  0.38044515  1.0
  C  C106  1  0.70864639  0.26607671  0.35045796  1.0
  C  C107  1  0.72227988  0.23208844  0.30240476  1.0
  C  C108  1  0.66028415  0.18254251  0.28331868  1.0
  C  C109  1  0.58363857  0.16853836  0.31411860  1.0
  C  C110  1  0.60766988  0.29853495  0.43055305  1.0
  C  C111  1  0.56793602  0.20452607  0.36188545  1.0
  C  C112  1  0.58345053  0.15310669  0.20542708  1.0
  C  C113  1  0.59830507  0.11861629  0.15739059  1.0
  C  C114  1  0.64932450  0.65089607  0.71010462  1.0
  C  C115  1  0.79756445  0.07178686  0.16111103  1.0
  C  C116  1  0.78274286  0.10478421  0.20924047  1.0
  C  C117  1  0.67537847  0.14660196  0.23231452  1.0
  C  C118  1  0.70548612  0.07820187  0.13476527  1.0
  C  C119  1  0.24441282  0.62300450  0.38471779  1.0
  C  C120  1  0.24189326  0.53328989  0.36044054  1.0
  C  C121  1  0.20752788  0.54761515  0.31227800  1.0
  C  C122  1  0.65749153  0.75547492  0.73207722  1.0
  C  C123  1  0.17374640  0.65198421  0.28715402  1.0
  C  C124  1  0.17541668  0.74180792  0.31210284  1.0
  C  C125  1  0.66776853  0.57785069  0.78499100  1.0
  C  C126  1  0.21091103  0.72746377  0.36015637  1.0
  C  C127  1  0.16135003  0.73525281  0.20383907  1.0
  C  C128  1  0.12657536  0.75005220  0.15571266  1.0
  C  C129  1  0.04869649  0.62299301  0.16942232  1.0
  C  C130  1  0.08135984  0.61059948  0.21781723  1.0
  C  C131  1  0.13854099  0.66609054  0.23589724  1.0
  C  C132  1  0.07038844  0.69355882  0.13814409  1.0
  C  C133  1  0.71697316  0.04440038  0.94608734  1.0
  C  C134  1  0.57144570  0.76744790  0.77321010  1.0
  C  C135  1  0.72581989  0.73598652  0.94676246  1.0
  C  C136  1  0.56342985  0.66393255  0.75289283  1.0
  C  C137  1  0.04105264  0.70832673  0.94992618  1.0
  C  C138  1  0.72653563  0.03493748  0.08438399  1.0
  C  C139  1  0.71292504  0.73684415  0.08195014  1.0
  C  C140  1  0.02646148  0.71603615  0.08760035  1.0
  C  C141  1  0.70124206  0.71291076  0.89902349  1.0
  C  C142  1  0.45980709  0.07672656  0.74451548  1.0
  C  C143  1  0.07101785  0.44761641  0.75068292  1.0
  C  C144  1  0.51132775  0.45037968  0.69641671  1.0
  C  C145  1  0.68971206  0.69797948  0.85638035  1.0
  N  N146  1  0.51974738  0.11783335  0.71288205  1.0
  N  N147  1  0.06052775  0.53312155  0.78546817  1.0
  N  N148  1  0.60289140  0.39659491  0.73310871  1.0
  O  O149  1  0.52935410  0.29998245  0.55310035  1.0
  O  O150  1  0.82124715  0.66013615  0.96588278  1.0
  O  O151  1  0.02031080  0.63635376  0.97343061  1.0
  O  O152  1  0.32728820  0.50262597  0.56007408  1.0
  O  O153  1  0.01614186  0.80455864  0.06604752  1.0
  O  O154  1  0.82137366  0.01180821  0.06487665  1.0
  O  O155  1  0.64844072  0.01980867  0.06444739  1.0
  O  O156  1  0.64386536  0.83508943  0.06262170  1.0
  O  O157  1  0.80450988  0.65939467  0.06146512  1.0
  O  O158  1  0.99784320  0.64510251  0.06990335  1.0
  O  O159  1  0.83341347  0.83639019  0.01534093  1.0
  O  O160  1  0.50054589  0.67545322  0.45410121  1.0
  O  O161  1  0.30578013  0.68125961  0.54867543  1.0
  O  O162  1  0.50041396  0.67078060  0.55083212  1.0
  O  O163  1  0.67113875  0.50228813  0.55174938  1.0
  O  O164  1  0.69817587  0.30124043  0.54524214  1.0
  O  O165  1  0.51635565  0.31379913  0.45087674  1.0
  O  O166  1  0.31045147  0.51011703  0.45637921  1.0
  O  O167  1  0.31215494  0.67827182  0.45244959  1.0
  O  O168  1  0.67463586  0.51274909  0.45531501  1.0
  O  O169  1  0.68120329  0.32263326  0.44909884  1.0
  O  O170  1  0.49498406  0.48959038  0.50277361  1.0
  O  O171  1  0.01680307  0.80726054  0.96352073  1.0
  O  O172  1  0.81761141  0.01133049  0.96096342  1.0
  O  O173  1  0.64030399  0.02797813  0.96802377  1.0
  O  O174  1  0.65369656  0.83182259  0.96582086  1.0
  O  O175  1  0.34648653  0.32197000  0.50875965  1.0
  O  O176  1  0.00483579  0.98109012  0.01104883  1.0
