# generated using pymatgen
data_Zn2H10C32S3N6Cl8O11
_symmetry_space_group_name_H-M   'P 1'
_cell_length_a   12.68621802
_cell_length_b   16.14932520
_cell_length_c   17.25175841
_cell_angle_alpha   95.61186103
_cell_angle_beta   93.15436730
_cell_angle_gamma   94.66071817
_symmetry_Int_Tables_number   1
_chemical_formula_structural   Zn2H10C32S3N6Cl8O11
_chemical_formula_sum   'Zn2 H10 C32 S3 N6 Cl8 O11'
_cell_volume   3498.79110390
_cell_formula_units_Z   1
loop_
 _symmetry_equiv_pos_site_id
 _symmetry_equiv_pos_as_xyz
  1  'x, y, z'
loop_
 _atom_site_type_symbol
 _atom_site_label
 _atom_site_symmetry_multiplicity
 _atom_site_fract_x
 _atom_site_fract_y
 _atom_site_fract_z
 _atom_site_occupancy
  Zn  Zn0  1  0.49741862  0.40600044  0.49370546  1.0
  Zn  Zn1  1  0.51571279  0.58723172  0.50340935  1.0
  H  H2  1  0.38926790  0.70615276  0.43908794  1.0
  H  H3  1  0.38367626  0.86230899  0.43429856  1.0
  H  H4  1  0.35444265  0.10107637  0.38701700  1.0
  H  H5  1  0.59336324  0.11637445  0.57736116  1.0
  H  H6  1  0.45241328  0.60713469  0.25936344  1.0
  H  H7  1  0.44775764  0.60621591  0.11309027  1.0
  H  H8  1  0.47030797  0.65832950  0.88823186  1.0
  H  H9  1  0.48679267  0.39396738  0.89199145  1.0
  H  H10  1  0.87833712  0.63321168  0.48657727  1.0
  H  H11  1  0.05434812  0.27370094  0.41326839  1.0
  C  C12  1  0.50851540  0.49442897  0.34836833  1.0
  C  C13  1  0.30276360  0.49979829  0.49559100  1.0
  C  C14  1  0.49412691  0.49924237  0.64634593  1.0
  C  C15  1  0.70978616  0.50586705  0.50089977  1.0
  C  C16  1  0.44762847  0.75155251  0.47177445  1.0
  C  C17  1  0.44451988  0.83659396  0.46944857  1.0
  C  C18  1  0.52285634  0.89089909  0.51321398  1.0
  C  C19  1  0.60110220  0.85714317  0.55875318  1.0
  C  C20  1  0.59797701  0.76924264  0.55753537  1.0
  C  C21  1  0.41113494  0.13676961  0.42962848  1.0
  C  C22  1  0.47195569  0.09745834  0.48239690  1.0
  C  C23  1  0.54450509  0.14551398  0.53596347  1.0
  C  C24  1  0.55335262  0.23159129  0.53427639  1.0
  C  C25  1  0.42672745  0.22367169  0.43177788  1.0
  C  C26  1  0.51450568  0.48836782  0.26078207  1.0
  C  C27  1  0.47879853  0.55505332  0.22264105  1.0
  C  C28  1  0.47630285  0.55485574  0.14246173  1.0
  C  C29  1  0.50969829  0.48638858  0.09648461  1.0
  C  C30  1  0.54758987  0.41912592  0.13327131  1.0
  C  C31  1  0.55113067  0.42016718  0.21528732  1.0
  C  C32  1  0.47487287  0.59682067  0.85719773  1.0
  C  C33  1  0.48318687  0.52764567  0.89914998  1.0
  C  C34  1  0.48386176  0.44801727  0.85922731  1.0
  C  C35  1  0.48123184  0.43847200  0.77831215  1.0
  C  C36  1  0.48108694  0.50786602  0.73329853  1.0
  C  C37  1  0.47317602  0.58663534  0.77591368  1.0
  C  C38  1  0.11063334  0.43282763  0.51166237  1.0
  C  C39  1  0.90026066  0.57092552  0.49538711  1.0
  C  C40  1  0.18626556  0.49798039  0.50245453  1.0
  C  C41  1  0.82624062  0.50516878  0.50311299  1.0
  C  C42  1  0.00390260  0.54467981  0.49997764  1.0
  C  C43  1  0.00636273  0.45944431  0.51086196  1.0
  S  S44  1  0.13005629  0.59142711  0.49483827  1.0
  S  S45  1  0.88094108  0.41211700  0.51737405  1.0
  S  S46  1  0.12869117  0.32687393  0.52260672  1.0
  N  N47  1  0.52330825  0.71866691  0.51466840  1.0
  N  N48  1  0.53190197  0.97851271  0.51403775  1.0
  N  N49  1  0.45666446  0.00888958  0.47859401  1.0
  N  N50  1  0.49462517  0.27170727  0.48406370  1.0
  N  N51  1  0.50495169  0.47765991  0.01470662  1.0
  N  N52  1  0.48954445  0.54282225  0.98177416  1.0
  Cl  Cl53  1  0.69101603  0.72613478  0.61159465  1.0
  Cl  Cl54  1  0.69705387  0.91980981  0.61414772  1.0
  Cl  Cl55  1  0.35781912  0.27099462  0.36379585  1.0
  Cl  Cl56  1  0.64596960  0.28856676  0.59759782  1.0
  Cl  Cl57  1  0.60328381  0.33750224  0.25493236  1.0
  Cl  Cl58  1  0.59101839  0.33656791  0.07696797  1.0
  Cl  Cl59  1  0.45492252  0.67632237  0.73092423  1.0
  Cl  Cl60  1  0.47860503  0.33618269  0.73742134  1.0
  O  O61  1  0.52211496  0.42914083  0.38152960  1.0
  O  O62  1  0.48869317  0.56486710  0.38206384  1.0
  O  O63  1  0.35405123  0.57141298  0.51334014  1.0
  O  O64  1  0.33986683  0.43242610  0.47163689  1.0
  O  O65  1  0.53730602  0.56249479  0.61818238  1.0
  O  O66  1  0.46367498  0.42949689  0.60791755  1.0
  O  O67  1  0.65837402  0.43832915  0.51464425  1.0
  O  O68  1  0.67116957  0.57324307  0.48566012  1.0
  O  O69  1  0.12857268  0.28633167  0.43248243  1.0
  O  O70  1  0.23035109  0.31525603  0.55746626  1.0
  O  O71  1  0.03223340  0.29331874  0.55309121  1.0
