# generated using pymatgen
data_Zn2H56C79N4O13
_symmetry_space_group_name_H-M   'P 1'
_cell_length_a   12.59450239
_cell_length_b   13.49465152
_cell_length_c   27.50844111
_cell_angle_alpha   86.11643463
_cell_angle_beta   78.97294692
_cell_angle_gamma   79.33521626
_symmetry_Int_Tables_number   1
_chemical_formula_structural   Zn2H56C79N4O13
_chemical_formula_sum   'Zn2 H56 C79 N4 O13'
_cell_volume   4507.17060252
_cell_formula_units_Z   1
loop_
 _symmetry_equiv_pos_site_id
 _symmetry_equiv_pos_as_xyz
  1  'x, y, z'
loop_
 _atom_site_type_symbol
 _atom_site_label
 _atom_site_symmetry_multiplicity
 _atom_site_fract_x
 _atom_site_fract_y
 _atom_site_fract_z
 _atom_site_occupancy
  Zn  Zn0  1  0.89949165  0.49597342  0.48561987  1.0
  Zn  Zn1  1  0.10279536  0.50881284  0.51119923  1.0
  H  H2  1  0.00543283  0.49040577  0.67447783  1.0
  H  H3  1  0.56008793  0.28900421  0.86269902  1.0
  H  H4  1  0.49193127  0.26822572  0.03112820  1.0
  H  H5  1  0.98689386  0.47544580  0.32684020  1.0
  H  H6  1  0.41717572  0.26890727  0.12150776  1.0
  H  H7  1  0.08644872  0.86696346  0.61639199  1.0
  H  H8  1  0.14492541  0.02941376  0.62299738  1.0
  H  H9  1  0.95263596  0.18059892  0.48796435  1.0
  H  H10  1  0.82193756  0.80243836  0.43151469  1.0
  H  H11  1  0.86393203  0.10019508  0.46115628  1.0
  H  H12  1  0.78143730  0.98984228  0.41696191  1.0
  H  H13  1  0.00876260  0.75699569  0.56998878  1.0
  H  H14  1  0.84151120  0.34246870  0.43583424  1.0
  H  H15  1  0.47244153  0.30884747  0.42556040  1.0
  H  H16  1  0.67573755  0.28444924  0.41655296  1.0
  H  H17  1  0.14775087  0.63138719  0.58157367  1.0
  H  H18  1  0.61506424  0.76824754  0.88070892  1.0
  H  H19  1  0.49588532  0.60053674  0.57576129  1.0
  H  H20  1  0.30595482  0.67283878  0.61520813  1.0
  H  H21  1  0.28796167  0.40050387  0.46183980  1.0
  H  H22  1  0.28845321  0.52252074  0.36387011  1.0
  H  H23  1  0.37014187  0.53356898  0.27301525  1.0
  H  H24  1  0.38263235  0.77698152  0.02474411  1.0
  H  H25  1  0.50636730  0.77221582  0.96622388  1.0
  H  H26  1  0.69465064  0.55143954  0.62754833  1.0
  H  H27  1  0.54264241  0.44235870  0.66906115  1.0
  H  H28  1  0.54508528  0.39899020  0.73111901  1.0
  H  H29  1  0.42516997  0.47819456  0.71580063  1.0
  H  H30  1  0.52886730  0.58064429  0.75582430  1.0
  H  H31  1  0.53052484  0.62107166  0.69358391  1.0
  H  H32  1  0.92530406  0.40289036  0.26564900  1.0
  H  H33  1  0.88318367  0.53596927  0.26511065  1.0
  H  H34  1  0.88815428  0.46788308  0.21147002  1.0
  H  H35  1  0.04987037  0.55340870  0.19902870  1.0
  H  H36  1  0.09195538  0.42167715  0.20067373  1.0
  H  H37  1  0.30764738  0.30070556  0.90474835  1.0
  H  H38  1  0.42205830  0.21160615  0.87758277  1.0
  H  H39  1  0.32465854  0.17320514  0.92715847  1.0
  H  H40  1  0.49215443  0.19332412  0.95896700  1.0
  H  H41  1  0.37452939  0.27666761  0.98610794  1.0
  H  H42  1  0.33377861  0.13450994  0.57856458  1.0
  H  H43  1  0.29871642  0.24390085  0.54088501  1.0
  H  H44  1  0.33454127  0.25638190  0.59945500  1.0
  H  H45  1  0.13111263  0.30174231  0.60490712  1.0
  H  H46  1  0.16495942  0.19265777  0.64237403  1.0
  H  H47  1  0.07936726  0.39543930  0.73775696  1.0
  H  H48  1  0.08385164  0.52592473  0.73927453  1.0
  H  H49  1  0.09201292  0.44779677  0.79344856  1.0
  H  H50  1  0.90428710  0.55073071  0.80018148  1.0
  H  H51  1  0.90017302  0.42122559  0.79960232  1.0
  H  H52  1  0.72496606  0.62501477  0.52839616  1.0
  H  H53  1  0.36582848  0.91064213  0.06925056  1.0
  H  H54  1  0.24094301  0.90047666  0.05024689  1.0
  H  H55  1  0.23838768  0.96946661  0.10310620  1.0
  H  H56  1  0.18335301  0.80664037  0.13217623  1.0
  H  H57  1  0.30515968  0.81473183  0.14998002  1.0
  C  C58  1  0.94631679  0.69730696  0.48963768  1.0
  C  C59  1  0.86415736  0.50455562  0.73422449  1.0
  C  C60  1  0.74854588  0.52280087  0.74426626  1.0
  C  C61  1  0.57396569  0.52468007  0.89357403  1.0
  C  C62  1  0.61032854  0.61326337  0.87163963  1.0
  C  C63  1  0.58600156  0.70100289  0.89833291  1.0
  C  C64  1  0.59419654  0.43596467  0.86616357  1.0
  C  C65  1  0.85510422  0.52126808  0.64651786  1.0
  C  C66  1  0.13320876  0.49722510  0.34999741  1.0
  C  C67  1  0.42316594  0.61634989  0.01971519  1.0
  C  C68  1  0.44786019  0.42942499  0.01973364  1.0
  C  C69  1  0.91209125  0.51818882  0.59346111  1.0
  C  C70  1  0.41072001  0.52234787  0.04485259  1.0
  C  C71  1  0.37659606  0.70515360  0.04458940  1.0
  C  C72  1  0.32121761  0.70762578  0.09415803  1.0
  C  C73  1  0.31760610  0.61468566  0.12080880  1.0
  C  C74  1  0.36363910  0.52239573  0.09644559  1.0
  C  C75  1  0.36517472  0.42830318  0.12298369  1.0
  C  C76  1  0.31945921  0.42241472  0.17637161  1.0
  C  C77  1  0.26553855  0.61073398  0.17383280  1.0
  C  C78  1  0.28606797  0.52074987  0.28534642  1.0
  C  C79  1  0.24123329  0.51421537  0.33555459  1.0
  C  C80  1  0.04447736  0.31051121  0.51994216  1.0
  C  C81  1  0.07083750  0.48793663  0.31403571  1.0
  C  C82  1  0.11396340  0.49473921  0.26347480  1.0
  C  C83  1  0.22295947  0.51078822  0.25018152  1.0
  C  C84  1  0.48838458  0.61570273  0.96964448  1.0
  C  C85  1  0.51597760  0.52371814  0.94346874  1.0
  C  C86  1  0.48427520  0.43188895  0.96591759  1.0
  C  C87  1  0.52480083  0.70214965  0.94637743  1.0
  C  C88  1  0.54870121  0.35319936  0.88635894  1.0
  C  C89  1  0.45339052  0.33929446  0.04832240  1.0
  C  C90  1  0.41313733  0.33905324  0.09924283  1.0
  C  C91  1  0.08269495  0.49103513  0.40382041  1.0
  C  C92  1  0.49042137  0.34984322  0.93540801  1.0
  C  C93  1  0.10434526  0.06238820  0.59241717  1.0
  C  C94  1  0.05163343  0.20335765  0.53880612  1.0
  C  C95  1  0.85312541  0.85262434  0.45256857  1.0
  C  C96  1  0.83218505  0.95741099  0.44407409  1.0
  C  C97  1  0.87821986  0.01910370  0.46916219  1.0
  C  C98  1  0.94219553  0.97906304  0.50520599  1.0
  C  C99  1  0.95669785  0.87315106  0.51674707  1.0
  C  C100  1  0.99477273  0.04227829  0.53035435  1.0
  C  C101  1  0.05083114  0.00053466  0.56940298  1.0
  C  C102  1  0.67308056  0.61380534  0.82040084  1.0
  C  C103  1  0.05031944  0.89699917  0.58417267  1.0
  C  C104  1  0.00702884  0.83584145  0.55861472  1.0
  C  C105  1  0.99544879  0.14428373  0.51699078  1.0
  C  C106  1  0.10829631  0.16248755  0.57773875  1.0
  C  C107  1  0.91643983  0.80998777  0.48745942  1.0
  C  C108  1  0.66661003  0.34853136  0.44007181  1.0
  C  C109  1  0.23254649  0.60063910  0.56558063  1.0
  C  C110  1  0.32119015  0.62417562  0.58371727  1.0
  C  C111  1  0.42679188  0.58458673  0.56112508  1.0
  C  C112  1  0.44426793  0.52266533  0.51997852  1.0
  C  C113  1  0.65846290  0.43235469  0.81522960  1.0
  C  C114  1  0.34992982  0.49512562  0.50676386  1.0
  C  C115  1  0.55165373  0.48023005  0.49285384  1.0
  C  C116  1  0.56074875  0.39840494  0.46119220  1.0
  C  C117  1  0.46362122  0.37008994  0.45077945  1.0
  C  C118  1  0.36188552  0.41946634  0.47107194  1.0
  C  C119  1  0.65003760  0.51561623  0.49505695  1.0
  C  C120  1  0.75804172  0.38058864  0.44967195  1.0
  C  C121  1  0.68489151  0.54051751  0.70696572  1.0
  C  C122  1  0.74059173  0.53903141  0.65788030  1.0
  C  C123  1  0.91622395  0.50442626  0.68467977  1.0
  C  C124  1  0.56085219  0.55748770  0.71748869  1.0
  C  C125  1  0.51552130  0.46379200  0.70792677  1.0
  C  C126  1  0.04850830  0.48568723  0.22381324  1.0
  C  C127  1  0.92976171  0.47239706  0.24267145  1.0
  C  C128  1  0.43241599  0.26062331  0.95118963  1.0
  C  C129  1  0.36867338  0.23522228  0.91276591  1.0
  C  C130  1  0.17020318  0.22190284  0.60376065  1.0
  C  C131  1  0.29168885  0.21357054  0.57916961  1.0
  C  C132  1  0.92774709  0.48480551  0.77632670  1.0
  C  C133  1  0.05261039  0.46224227  0.76071580  1.0
  C  C134  1  0.65376591  0.61971907  0.51120037  1.0
  C  C135  1  0.27031501  0.80846397  0.11676036  1.0
  C  C136  1  0.27994202  0.90174830  0.08266651  1.0
  N  N137  1  0.69258112  0.52265443  0.79536659  1.0
  N  N138  1  0.27257755  0.51489086  0.19827090  1.0
  N  N139  1  0.74933876  0.46444040  0.47565990  1.0
  N  N140  1  0.24633595  0.53667568  0.52914568  1.0
  O  O141  1  0.88504124  0.64776853  0.47263887  1.0
  O  O142  1  0.21667053  0.68537547  0.19741708  1.0
  O  O143  1  0.68130212  0.35585525  0.79059416  1.0
  O  O144  1  0.32042892  0.34234603  0.20080324  1.0
  O  O145  1  0.03251309  0.65804790  0.50652019  1.0
  O  O146  1  0.85118651  0.52401208  0.56094450  1.0
  O  O147  1  0.01642734  0.50908889  0.58452076  1.0
  O  O148  1  0.95465401  0.35019948  0.50605999  1.0
  O  O149  1  0.12621020  0.35468997  0.51865184  1.0
  O  O150  1  0.98497096  0.47292838  0.41465256  1.0
  O  O151  1  0.14128563  0.50544676  0.43486024  1.0
  O  O152  1  0.70721989  0.68871617  0.79987082  1.0
  O  O153  1  0.58609127  0.69329474  0.50295943  1.0
