# generated using pymatgen
data_MgH3C7NO3
_symmetry_space_group_name_H-M   'P 1'
_cell_length_a   6.85815103
_cell_length_b   24.78958616
_cell_length_c   24.79020967
_cell_angle_alpha   119.15039013
_cell_angle_beta   95.29267284
_cell_angle_gamma   95.27644342
_symmetry_Int_Tables_number   1
_chemical_formula_structural   MgH3C7NO3
_chemical_formula_sum   'Mg6 H18 C42 N6 O18'
_cell_volume   3619.40878546
_cell_formula_units_Z   6
loop_
 _symmetry_equiv_pos_site_id
 _symmetry_equiv_pos_as_xyz
  1  'x, y, z'
loop_
 _atom_site_type_symbol
 _atom_site_label
 _atom_site_symmetry_multiplicity
 _atom_site_fract_x
 _atom_site_fract_y
 _atom_site_fract_z
 _atom_site_occupancy
  Mg  Mg0  1  0.64974486  0.62043009  0.29610991  1.0
  Mg  Mg1  1  0.06223464  0.37901897  0.70461824  1.0
  Mg  Mg2  1  0.02933463  0.67571203  0.37954068  1.0
  Mg  Mg3  1  0.68335026  0.32544343  0.62081934  1.0
  Mg  Mg4  1  0.35356242  0.70386292  0.32423783  1.0
  Mg  Mg5  1  0.35774630  0.29523556  0.67439513  1.0
  H  H6  1  0.32443581  0.59860240  0.47873060  1.0
  H  H7  1  0.52779103  0.54329421  0.51932328  1.0
  H  H8  1  0.73041179  0.44782841  0.58852290  1.0
  H  H9  1  0.39115386  0.40682133  0.52557888  1.0
  H  H10  1  0.18789275  0.46321270  0.48645209  1.0
  H  H11  1  0.98331515  0.55536156  0.41523775  1.0
  H  H12  1  0.72569763  0.88029106  0.40187849  1.0
  H  H13  1  0.98446594  0.97610106  0.45721800  1.0
  H  H14  1  0.28267236  0.14055382  0.55202837  1.0
  H  H15  1  0.98422717  0.11864565  0.59332846  1.0
  H  H16  1  0.72463669  0.02313189  0.53697903  1.0
  H  H17  1  0.42786083  0.85978775  0.44466015  1.0
  H  H18  1  0.84526877  0.52158471  0.11970630  1.0
  H  H19  1  0.00827520  0.48108114  0.02386783  1.0
  H  H20  1  0.14131693  0.41148088  0.85928781  1.0
  H  H21  1  0.86493972  0.47438860  0.88115033  1.0
  H  H22  1  0.70076975  0.51355432  0.97665692  1.0
  H  H23  1  0.56784077  0.58493500  0.14010587  1.0
  C  C24  1  0.72468930  0.59462960  0.40405046  1.0
  C  C25  1  0.53503688  0.60681817  0.42312011  1.0
  C  C26  1  0.46865058  0.58810305  0.46476407  1.0
  C  C27  1  0.57976052  0.55772660  0.48744012  1.0
  C  C28  1  0.76667374  0.54572803  0.46868598  1.0
  C  C29  1  0.94781764  0.45906623  0.53605483  1.0
  C  C30  1  0.87634042  0.43901519  0.57527765  1.0
  C  C31  1  0.98937973  0.40833403  0.59898831  1.0
  C  C32  1  0.17946807  0.39672626  0.57999523  1.0
  C  C33  1  0.24647213  0.41679682  0.53941299  1.0
  C  C34  1  0.13538892  0.44777988  0.51754379  1.0
  C  C35  1  0.30983820  0.36375684  0.60027775  1.0
  C  C36  1  0.83777433  0.56463690  0.42857968  1.0
  C  C37  1  0.40425337  0.63892236  0.40175568  1.0
  C  C38  1  0.12981381  0.80941640  0.40545316  1.0
  C  C39  1  0.92799605  0.81639940  0.39338647  1.0
  C  C40  1  0.88037760  0.87678599  0.41225648  1.0
  C  C41  1  0.02192426  0.92976035  0.44262749  1.0
  C  C42  1  0.22083722  0.92290722  0.45444659  1.0
  C  C43  1  0.48890029  0.07689004  0.54096243  1.0
  C  C44  1  0.43740046  0.13614425  0.56089926  1.0
  C  C45  1  0.58104241  0.19050974  0.59156691  1.0
  C  C46  1  0.78263785  0.18309051  0.60322147  1.0
  C  C47  1  0.82964987  0.12244772  0.58325064  1.0
  C  C48  1  0.68763765  0.06962861  0.55230223  1.0
  C  C49  1  0.94590332  0.23633833  0.63612063  1.0
  C  C50  1  0.27301581  0.86387460  0.43544714  1.0
  C  C51  1  0.76516936  0.76293678  0.36121201  1.0
  C  C52  1  0.32028360  0.59606954  0.19050441  1.0
  C  C53  1  0.11150877  0.57703752  0.18357060  1.0
  C  C54  1  0.00346377  0.53550331  0.12320490  1.0
  C  C55  1  0.09200377  0.51288889  0.07019854  1.0
  C  C56  1  0.29772602  0.53158241  0.07697181  1.0
  C  C57  1  0.41118978  0.46396011  0.92294869  1.0
  C  C58  1  0.30045198  0.42469549  0.86370248  1.0
  C  C59  1  0.38980074  0.40090616  0.80931885  1.0
  C  C60  1  0.59884411  0.41991754  0.81668516  1.0
  C  C61  1  0.70647553  0.46055037  0.87731195  1.0
  C  C62  1  0.61724664  0.48243138  0.93013863  1.0
  C  C63  1  0.70903706  0.39963678  0.76344913  1.0
  C  C64  1  0.40891358  0.57161603  0.13599302  1.0
  C  C65  1  0.00215097  0.59830614  0.23705552  1.0
  N  N66  1  0.89555571  0.51491703  0.48812568  1.0
  N  N67  1  0.81869565  0.49006011  0.51691709  1.0
  N  N68  1  0.38055876  0.97311262  0.48522142  1.0
  N  N69  1  0.32876936  0.02678759  0.50998683  1.0
  N  N70  1  0.40710587  0.51211715  0.02672083  1.0
  N  N71  1  0.30132933  0.48317281  0.97309861  1.0
  O  O72  1  0.24265696  0.65270545  0.42287554  1.0
  O  O73  1  0.45674334  0.65210680  0.36010423  1.0
  O  O74  1  0.80031598  0.61006928  0.36443907  1.0
  O  O75  1  0.47156381  0.35042467  0.57907226  1.0
  O  O76  1  0.25663833  0.34917065  0.64093251  1.0
  O  O77  1  0.91319966  0.39171804  0.63773580  1.0
  O  O78  1  0.58978991  0.77027692  0.34743949  1.0
  O  O79  1  0.80446367  0.70804527  0.34782998  1.0
  O  O80  1  0.19009790  0.75435859  0.38990320  1.0
  O  O81  1  0.12104672  0.22848872  0.64939197  1.0
  O  O82  1  0.90743900  0.29161136  0.65073441  1.0
  O  O83  1  0.52148240  0.24586538  0.60813489  1.0
  O  O84  1  0.81944987  0.57717145  0.22971719  1.0
  O  O85  1  0.09640455  0.63983780  0.29190591  1.0
  O  O86  1  0.43556276  0.63555237  0.24557456  1.0
  O  O87  1  0.89200712  0.42079679  0.77133684  1.0
  O  O88  1  0.61536806  0.35896722  0.70819019  1.0
  O  O89  1  0.27508633  0.36207072  0.75395895  1.0
