# generated using pymatgen
data_Zn4H32C44O29
_symmetry_space_group_name_H-M   'P 1'
_cell_length_a   17.78030273
_cell_length_b   18.65565299
_cell_length_c   23.25008315
_cell_angle_alpha   66.40171501
_cell_angle_beta   69.73406294
_cell_angle_gamma   89.98338159
_symmetry_Int_Tables_number   1
_chemical_formula_structural   Zn4H32C44O29
_chemical_formula_sum   'Zn8 H64 C88 O58'
_cell_volume   6543.25259775
_cell_formula_units_Z   2
loop_
 _symmetry_equiv_pos_site_id
 _symmetry_equiv_pos_as_xyz
  1  'x, y, z'
loop_
 _atom_site_type_symbol
 _atom_site_label
 _atom_site_symmetry_multiplicity
 _atom_site_fract_x
 _atom_site_fract_y
 _atom_site_fract_z
 _atom_site_occupancy
  Zn  Zn0  1  0.11936860  0.53531397  0.94352723  1.0
  Zn  Zn1  1  0.97408473  0.56209863  0.05029238  1.0
  Zn  Zn2  1  0.97871861  0.38870362  0.04845323  1.0
  Zn  Zn3  1  0.93494130  0.52605929  0.93864094  1.0
  Zn  Zn4  1  0.38502486  0.98293820  0.04894229  1.0
  Zn  Zn5  1  0.52972404  0.11698147  0.93875852  1.0
  Zn  Zn6  1  0.52333392  0.94389265  0.93996422  1.0
  Zn  Zn7  1  0.57003804  0.96995107  0.05011293  1.0
  H  H8  1  0.19311951  0.30464665  0.91237400  1.0
  H  H9  1  0.12892672  0.23134058  0.99277304  1.0
  H  H10  1  0.22285174  0.14610491  0.97856203  1.0
  H  H11  1  0.29203753  0.22380848  0.90365818  1.0
  H  H12  1  0.21582450  0.13330211  0.09200183  1.0
  H  H13  1  0.29107332  0.18746702  0.09894470  1.0
  H  H14  1  0.13552785  0.23103383  0.10082916  1.0
  H  H15  1  0.21710691  0.29132419  0.09436632  1.0
  H  H16  1  0.30596800  0.39421806  0.90510046  1.0
  H  H17  1  0.31046636  0.39656628  0.97872699  1.0
  H  H18  1  0.39322227  0.29842738  0.99011729  1.0
  H  H19  1  0.40003947  0.30648523  0.91048869  1.0
  H  H20  1  0.89157034  0.79033088  0.91938012  1.0
  H  H21  1  0.87032228  0.77378829  0.00436095  1.0
  H  H22  1  0.79203642  0.87567064  0.98661082  1.0
  H  H23  1  0.79842115  0.87761754  0.90820104  1.0
  H  H24  1  0.69508007  0.76728506  0.09500466  1.0
  H  H25  1  0.61495816  0.71105022  0.09519879  1.0
  H  H26  1  0.76326314  0.65794243  0.10211495  1.0
  H  H27  1  0.69255741  0.61333532  0.08375491  1.0
  H  H28  1  0.79203694  0.71851668  0.89562789  1.0
  H  H29  1  0.71992799  0.63693998  0.96194352  1.0
  H  H30  1  0.62191016  0.71755115  0.98059805  1.0
  H  H31  1  0.68725164  0.79448754  0.90456422  1.0
  H  H32  1  0.15932962  0.80255028  0.93901877  1.0
  H  H33  1  0.24002270  0.76538223  0.89494879  1.0
  H  H34  1  0.33629555  0.85313201  0.89243494  1.0
  H  H35  1  0.25546006  0.89696616  0.92767480  1.0
  H  H36  1  0.39345582  0.74845531  0.96816906  1.0
  H  H37  1  0.34157950  0.70784252  0.05720761  1.0
  H  H38  1  0.30717011  0.66179383  0.95960410  1.0
  H  H39  1  0.26479000  0.61389803  0.04899101  1.0
  H  H40  1  0.09783316  0.73620210  0.06881549  1.0
  H  H41  1  0.14745831  0.66583682  0.11275659  1.0
  H  H42  1  0.22467758  0.77025913  0.10905064  1.0
  H  H43  1  0.18431303  0.84059868  0.05584091  1.0
  H  H44  1  0.89520146  0.25676611  0.93947551  1.0
  H  H45  1  0.85818191  0.33704166  0.89006651  1.0
  H  H46  1  0.76329547  0.24985924  0.89058663  1.0
  H  H47  1  0.80789266  0.17082317  0.93223951  1.0
  H  H48  1  0.63879480  0.28915800  0.95869358  1.0
  H  H49  1  0.60609360  0.24737720  0.04803830  1.0
  H  H50  1  0.73453319  0.38487777  0.94744677  1.0
  H  H51  1  0.69312932  0.34996844  0.03637573  1.0
  H  H52  1  0.83453517  0.20243628  0.06898088  1.0
  H  H53  1  0.74641501  0.23505530  0.10780176  1.0
  H  H54  1  0.66967399  0.13252465  0.10870326  1.0
  H  H55  1  0.75743162  0.10848064  0.06053251  1.0
  H  H56  1  0.55845025  0.81923266  0.26764494  1.0
  H  H57  1  0.19920398  0.91915374  0.24987682  1.0
  H  H58  1  0.15537680  0.86771610  0.40431084  1.0
  H  H59  1  0.43724016  0.71316756  0.42559621  1.0
  H  H60  1  0.35513968  0.77716741  0.58443943  1.0
  H  H61  1  0.07442434  0.64436141  0.56416276  1.0
  H  H62  1  0.95305634  0.59508450  0.71753639  1.0
  H  H63  1  0.31041325  0.67327396  0.74165601  1.0
  H  H64  1  0.68199098  0.95860292  0.73222959  1.0
  H  H65  1  0.58156882  0.30833660  0.72900332  1.0
  H  H66  1  0.63948007  0.35184879  0.56730482  1.0
  H  H67  1  0.78865519  0.07302985  0.57699788  1.0
  H  H68  1  0.71794765  0.15308336  0.41168509  1.0
  H  H69  1  0.86798263  0.43075654  0.41515688  1.0
  H  H70  1  0.91859008  0.54394123  0.25770618  1.0
  H  H71  1  0.82215393  0.19756950  0.25390462  1.0
  C  C72  1  0.14060756  0.64255450  0.00254663  1.0
  C  C73  1  0.91289696  0.41128014  0.17408178  1.0
  C  C74  1  0.14952624  0.37109242  0.99861489  1.0
  C  C75  1  0.85936617  0.36069501  0.99502958  1.0
  C  C76  1  0.08709346  0.59249713  0.81637316  1.0
  C  C77  1  0.85399246  0.63487766  0.99467596  1.0
  C  C78  1  0.36417666  0.14920133  0.99419190  1.0
  C  C79  1  0.58812686  0.09156378  0.81470595  1.0
  C  C80  1  0.35349086  0.87078721  0.99745473  1.0
  C  C81  1  0.63905431  0.85723469  0.99592060  1.0
  C  C82  1  0.42036335  0.91360619  0.17461798  1.0
  C  C83  1  0.64610327  0.13488626  0.99739386  1.0
  C  C84  1  0.38302335  0.87387887  0.25069792  1.0
  C  C85  1  0.43005029  0.87058017  0.28912998  1.0
  C  C86  1  0.39502992  0.83108026  0.36008231  1.0
  C  C87  1  0.31078725  0.80094856  0.39312199  1.0
  C  C88  1  0.26332062  0.80753025  0.35382584  1.0
  C  C89  1  0.30021020  0.84063831  0.28300020  1.0
  C  C90  1  0.27357528  0.76499738  0.46477328  1.0
  C  C91  1  0.24004848  0.73419887  0.52648380  1.0
  C  C92  1  0.20175665  0.69865774  0.59806381  1.0
  C  C93  1  0.24777983  0.66525280  0.63853543  1.0
  C  C94  1  0.20931608  0.62733886  0.70925405  1.0
  C  C95  1  0.12629048  0.62877222  0.74037353  1.0
  C  C96  1  0.08073614  0.66465165  0.70078240  1.0
  C  C97  1  0.11736056  0.69631245  0.62989904  1.0
  C  C98  1  0.62750108  0.12948979  0.73893398  1.0
  C  C99  1  0.62990946  0.08414543  0.70264319  1.0
  C  C100  1  0.66977652  0.11874819  0.63201415  1.0
  C  C101  1  0.70091740  0.20085857  0.59683046  1.0
  C  C102  1  0.69513080  0.24671952  0.63372789  1.0
  C  C103  1  0.66179778  0.21017634  0.70472833  1.0
  C  C104  1  0.73728052  0.23666728  0.52528963  1.0
  C  C105  1  0.76807738  0.26714681  0.46349105  1.0
  C  C106  1  0.80353272  0.30258864  0.39190315  1.0
  C  C107  1  0.83493892  0.25585516  0.35651911  1.0
  C  C108  1  0.87340519  0.29187195  0.28576404  1.0
  C  C109  1  0.87417902  0.37314060  0.24985213  1.0
  C  C110  1  0.83961013  0.41937888  0.28431912  1.0
  C  C111  1  0.80765959  0.38503256  0.35526694  1.0
  C  C112  1  0.19104359  0.26428725  0.96290080  1.0
  C  C113  1  0.25364998  0.20730481  0.95709312  1.0
  C  C114  1  0.30849757  0.21079198  0.99543468  1.0
  C  C115  1  0.25319798  0.19174344  0.06934717  1.0
  C  C116  1  0.19974450  0.25687728  0.07072531  1.0
  C  C117  1  0.20995363  0.31370348  0.99773075  1.0
  C  C118  1  0.29810601  0.35657819  0.95778324  1.0
  C  C119  1  0.35668049  0.29500365  0.96133483  1.0
  C  C120  1  0.84217440  0.77576720  0.96861735  1.0
  C  C121  1  0.78470087  0.83831881  0.96188067  1.0
  C  C122  1  0.69557179  0.79624368  0.99484421  1.0
  C  C123  1  0.67997349  0.73592655  0.06828008  1.0
  C  C124  1  0.73149152  0.66928345  0.06720229  1.0
  C  C125  1  0.79377228  0.69260360  0.99447463  1.0
  C  C126  1  0.74826756  0.69681280  0.94816251  1.0
  C  C127  1  0.68366066  0.75165287  0.95470646  1.0
  C  C128  1  0.21618261  0.77925833  0.93901809  1.0
  C  C129  1  0.27851033  0.84048984  0.93524377  1.0
  C  C130  1  0.29438717  0.80837409  0.00182885  1.0
  C  C131  1  0.33304842  0.73254413  0.00867611  1.0
  C  C132  1  0.27766937  0.67165602  0.00521720  1.0
  C  C133  1  0.19703813  0.70182001  0.00460359  1.0
  C  C134  1  0.15784895  0.72013918  0.06638417  1.0
  C  C135  1  0.21335033  0.78744279  0.06212535  1.0
  C  C136  1  0.83973761  0.28138263  0.93650840  1.0
  C  C137  1  0.77984627  0.22250716  0.93508507  1.0
  C  C138  1  0.70173513  0.19414805  0.00013371  1.0
  C  C139  1  0.66008039  0.26672003  0.00075973  1.0
  C  C140  1  0.72007386  0.33160344  0.99515903  1.0
  C  C141  1  0.79898549  0.29969742  0.99875995  1.0
  C  C142  1  0.77821175  0.22237013  0.06386972  1.0
  C  C143  1  0.72491458  0.15806968  0.06244227  1.0
  C  C144  1  0.51544033  0.91709788  0.25477363  1.0
  C  C145  1  0.25295785  0.83161382  0.24241801  1.0
  C  C146  1  0.17407430  0.77324566  0.38924209  1.0
  C  C147  1  0.44533706  0.82585027  0.40183626  1.0
  C  C148  1  0.33728629  0.66578390  0.60460608  1.0
  C  C149  1  0.06846663  0.73395447  0.58710755  1.0
  C  C150  1  0.99517415  0.67750398  0.73385691  1.0
  C  C151  1  0.25528472  0.57770745  0.75107932  1.0
  C  C152  1  0.58194610  0.00106676  0.73805720  1.0
  C  C153  1  0.67131278  0.25592651  0.74364718  1.0
  C  C154  1  0.73047852  0.33373386  0.59636233  1.0
  C  C155  1  0.67415001  0.07055937  0.59236014  1.0
  C  C156  1  0.83239896  0.16837985  0.39597278  1.0
  C  C157  1  0.77194596  0.43396605  0.39334167  1.0
  C  C158  1  0.82793626  0.50327677  0.24584527  1.0
  C  C159  1  0.92166306  0.24478938  0.24969774  1.0
  O  O160  1  0.00167846  0.50366660  0.99405653  1.0
  O  O161  1  0.17241840  0.60996559  0.96274471  1.0
  O  O162  1  0.94128398  0.48459984  0.14700014  1.0
  O  O163  1  0.07637404  0.34108939  0.04003969  1.0
  O  O164  1  0.06533931  0.63112953  0.03908503  1.0
  O  O165  1  0.17534306  0.44386480  0.95739901  1.0
  O  O166  1  0.91369079  0.36660693  0.14466076  1.0
  O  O167  1  0.90522310  0.33422111  0.02800766  1.0
  O  O168  1  0.01213035  0.56368541  0.84232250  1.0
  O  O169  1  0.86186374  0.43363313  0.95773318  1.0
  O  O170  1  0.13380817  0.59472572  0.84663076  1.0
  O  O171  1  0.88810650  0.62239367  0.03724981  1.0
  O  O172  1  0.86729656  0.60482801  0.95222156  1.0
  O  O173  1  0.50202166  0.00270953  0.99583329  1.0
  O  O174  1  0.33160898  0.07647140  0.03096591  1.0
  O  O175  1  0.55851253  0.13717498  0.84226206  1.0
  O  O176  1  0.42366811  0.88941405  0.94999059  1.0
  O  O177  1  0.43901263  0.17413248  0.95624510  1.0
  O  O178  1  0.32918659  0.90029198  0.04036027  1.0
  O  O179  1  0.58828857  0.01764566  0.84387844  1.0
  O  O180  1  0.59413065  0.86630548  0.96188254  1.0
  O  O181  1  0.49502062  0.91073593  0.14734460  1.0
  O  O182  1  0.64063123  0.89507406  0.03093065  1.0
  O  O183  1  0.37250507  0.94601345  0.14560356  1.0
  O  O184  1  0.61776679  0.16268433  0.95064356  1.0
  O  O185  1  0.63282515  0.06269485  0.04043079  1.0
  O  O186  1  0.57762418  0.87484731  0.25393660  1.0
  O  O187  1  0.52709943  0.98871327  0.23228471  1.0
  O  O188  1  0.19369862  0.87658794  0.23654502  1.0
  O  O189  1  0.26425834  0.78220256  0.22014336  1.0
  O  O190  1  0.12415253  0.81983477  0.41120093  1.0
  O  O191  1  0.14756035  0.70858305  0.39737375  1.0
  O  O192  1  0.46409748  0.75316836  0.43236419  1.0
  O  O193  1  0.46891607  0.88263332  0.40759053  1.0
  O  O194  1  0.38672587  0.73545030  0.57996713  1.0
  O  O195  1  0.36440757  0.60785846  0.59996797  1.0
  O  O196  1  0.04830623  0.69159222  0.55726608  1.0
  O  O197  1  0.04687430  0.79749707  0.58023230  1.0
  O  O198  1  0.93367298  0.63622502  0.73229200  1.0
  O  O199  1  0.98285300  0.72574814  0.75735236  1.0
  O  O200  1  0.31448630  0.61695589  0.75691961  1.0
  O  O201  1  0.24296093  0.50599369  0.77469604  1.0
  O  O202  1  0.62511268  0.94029409  0.74337511  1.0
  O  O203  1  0.50863614  0.99004089  0.75676951  1.0
  O  O204  1  0.62460942  0.31324597  0.74492177  1.0
  O  O205  1  0.72214998  0.24507525  0.76868132  1.0
  O  O206  1  0.68636511  0.38223111  0.56461360  1.0
  O  O207  1  0.79372515  0.35980598  0.59515095  1.0
  O  O208  1  0.74736403  0.04894924  0.56835223  1.0
  O  O209  1  0.61611754  0.05107230  0.58283171  1.0
  O  O210  1  0.75999482  0.12144895  0.42026131  1.0
  O  O211  1  0.89118606  0.14081669  0.40513641  1.0
  O  O212  1  0.81891135  0.45525270  0.42102555  1.0
  O  O213  1  0.70598072  0.45415924  0.39875683  1.0
  O  O214  1  0.87381085  0.56311521  0.24368985  1.0
  O  O215  1  0.77577434  0.51576041  0.22219968  1.0
  O  O216  1  0.87884638  0.18985094  0.24359057  1.0
  O  O217  1  0.99496624  0.25243603  0.23122874  1.0
