# generated using pymatgen
data_Zn4H8C36S6Cl10O31
_symmetry_space_group_name_H-M   'P 1'
_cell_length_a   15.09557068
_cell_length_b   20.04732641
_cell_length_c   22.80429748
_cell_angle_alpha   90.32838726
_cell_angle_beta   90.29804115
_cell_angle_gamma   90.60270969
_symmetry_Int_Tables_number   1
_chemical_formula_structural   Zn4H8C36S6Cl10O31
_chemical_formula_sum   'Zn8 H16 C72 S12 Cl20 O62'
_cell_volume   6900.57879966
_cell_formula_units_Z   2
loop_
 _symmetry_equiv_pos_site_id
 _symmetry_equiv_pos_as_xyz
  1  'x, y, z'
loop_
 _atom_site_type_symbol
 _atom_site_label
 _atom_site_symmetry_multiplicity
 _atom_site_fract_x
 _atom_site_fract_y
 _atom_site_fract_z
 _atom_site_occupancy
  Zn  Zn0  1  0.43321767  0.58431877  0.99312450  1.0
  Zn  Zn1  1  0.42587756  0.08311475  0.49625982  1.0
  Zn  Zn2  1  0.42920638  0.42236590  0.00389323  1.0
  Zn  Zn3  1  0.42441402  0.92111461  0.50301371  1.0
  Zn  Zn4  1  0.57889775  0.50361751  0.07130434  1.0
  Zn  Zn5  1  0.57694648  0.49955466  0.92979894  1.0
  Zn  Zn6  1  0.57247981  0.00390909  0.57176070  1.0
  Zn  Zn7  1  0.57145914  0.00143895  0.42971529  1.0
  H  H8  1  0.37534633  0.29531666  0.12726554  1.0
  H  H9  1  0.91376890  0.07221968  0.37890056  1.0
  H  H10  1  0.72762364  0.69489704  0.94353667  1.0
  H  H11  1  0.77856602  0.75728124  0.15556282  1.0
  H  H12  1  0.72831869  0.20071046  0.44421608  1.0
  H  H13  1  0.77271079  0.24867038  0.65910250  1.0
  H  H14  1  0.89318032  0.27149582  0.06188216  1.0
  H  H15  1  0.88287957  0.77547695  0.56963879  1.0
  H  H16  1  0.32080075  0.32866628  0.84432721  1.0
  H  H17  1  0.46636883  0.74511040  0.59347339  1.0
  H  H18  1  0.32591143  0.82570883  0.34301943  1.0
  H  H19  1  0.07990033  0.63812074  0.15310183  1.0
  H  H20  1  0.07756455  0.14067137  0.65579976  1.0
  H  H21  1  0.73932438  0.39644237  0.92866983  1.0
  H  H22  1  0.73424627  0.89867987  0.43121355  1.0
  H  H23  1  0.91688807  0.57117569  0.87575438  1.0
  C  C24  1  0.47208463  0.38346005  0.88425105  1.0
  C  C25  1  0.52065569  0.27790328  0.74734480  1.0
  C  C26  1  0.54814941  0.77623237  0.75318351  1.0
  C  C27  1  0.52699534  0.77913539  0.24556499  1.0
  C  C28  1  0.56748143  0.31546604  0.20378540  1.0
  C  C29  1  0.53408188  0.31588126  0.80014905  1.0
  C  C30  1  0.53914032  0.83054620  0.71297947  1.0
  C  C31  1  0.53964518  0.81533072  0.29941320  1.0
  C  C32  1  0.42499561  0.28681188  0.16104000  1.0
  C  C33  1  0.37708196  0.31197360  0.81871275  1.0
  C  C34  1  0.48770206  0.75360849  0.63852880  1.0
  C  C35  1  0.51355810  0.37254046  0.11010651  1.0
  C  C36  1  0.38255827  0.80997468  0.31728410  1.0
  C  C37  1  0.40923863  0.23998015  0.20367658  1.0
  C  C38  1  0.36373792  0.26665234  0.77372733  1.0
  C  C39  1  0.48221404  0.70213910  0.67811277  1.0
  C  C40  1  0.36998370  0.76624916  0.27100471  1.0
  C  C41  1  0.17197445  0.50646939  0.02122667  1.0
  C  C42  1  0.16615730  0.00565765  0.52387150  1.0
  C  C43  1  0.83843421  0.47216064  0.00193350  1.0
  C  C44  1  0.83239165  0.97543855  0.50489865  1.0
  C  C45  1  0.96474625  0.39793500  0.01584145  1.0
  C  C46  1  0.47553830  0.88059766  0.38461715  1.0
  C  C47  1  0.95668214  0.89992063  0.52096427  1.0
  C  C48  1  0.87355353  0.40700794  0.01033711  1.0
  C  C49  1  0.86584981  0.91002961  0.51464199  1.0
  C  C50  1  0.89552453  0.52673724  0.00202962  1.0
  C  C51  1  0.89045656  0.02944778  0.50516424  1.0
  C  C52  1  0.50346093  0.62946491  0.10759825  1.0
  C  C53  1  0.52177098  0.62433660  0.88649857  1.0
  C  C54  1  0.49336819  0.12606695  0.61142306  1.0
  C  C55  1  0.50770734  0.12509272  0.38727326  1.0
  C  C56  1  0.98639886  0.51989636  0.01877753  1.0
  C  C57  1  0.51094728  0.87116232  0.60880904  1.0
  C  C58  1  0.98093740  0.02165112  0.52239996  1.0
  C  C59  1  0.02316945  0.45482441  0.01368757  1.0
  C  C60  1  0.01612478  0.95604087  0.51809600  1.0
  C  C61  1  0.11796549  0.45289536  0.00534554  1.0
  C  C62  1  0.11065461  0.95260041  0.50910641  1.0
  C  C63  1  0.13144996  0.56396758  0.04619373  1.0
  C  C64  1  0.12725610  0.06388631  0.54893688  1.0
  C  C65  1  0.04082498  0.57272883  0.04224911  1.0
  C  C66  1  0.03689092  0.07391697  0.54531819  1.0
  C  C67  1  0.27106007  0.50509421  0.01275824  1.0
  C  C68  1  0.51089815  0.71111758  0.73780367  1.0
  C  C69  1  0.26459206  0.00364650  0.51341578  1.0
  C  C70  1  0.73903440  0.48375060  0.99760038  1.0
  C  C71  1  0.73337676  0.98782419  0.49914766  1.0
  C  C72  1  0.50505385  0.32346614  0.15915196  1.0
  C  C73  1  0.46231720  0.33575440  0.83365456  1.0
  C  C74  1  0.51408743  0.81851233  0.65505757  1.0
  C  C75  1  0.46742320  0.83360377  0.33333333  1.0
  C  C76  1  0.53278873  0.67803370  0.84075619  1.0
  C  C77  1  0.51075302  0.68602083  0.15201910  1.0
  C  C78  1  0.51480112  0.18225593  0.34468989  1.0
  C  C79  1  0.44277304  0.74582984  0.23513305  1.0
  C  C80  1  0.50248127  0.18240709  0.65588053  1.0
  C  C81  1  0.59243721  0.78403147  0.80868587  1.0
  C  C82  1  0.59304625  0.77488708  0.20083658  1.0
  C  C83  1  0.59092401  0.28179647  0.31022641  1.0
  C  C84  1  0.58642663  0.27178678  0.70268795  1.0
  C  C85  1  0.57803170  0.73849013  0.85335550  1.0
  C  C86  1  0.58616751  0.72849777  0.15561005  1.0
  C  C87  1  0.57137770  0.23784568  0.35545404  1.0
  C  C88  1  0.57858096  0.22421407  0.65848207  1.0
  C  C89  1  0.50588157  0.66291057  0.78381068  1.0
  C  C90  1  0.47168467  0.23007391  0.25012214  1.0
  C  C91  1  0.44081479  0.69541124  0.19038318  1.0
  C  C92  1  0.46654685  0.17842873  0.29306769  1.0
  C  C93  1  0.43309644  0.19311448  0.69441471  1.0
  C  C94  1  0.43602098  0.24471724  0.73807420  1.0
  C  C95  1  0.54624816  0.27601265  0.25442158  1.0
  S  S96  1  0.98838928  0.64005840  0.08167275  1.0
  S  S97  1  0.66591234  0.21438053  0.60533298  1.0
  S  S98  1  0.01410237  0.31985582  0.04311799  1.0
  S  S99  1  0.00457082  0.82198461  0.54988785  1.0
  S  S100  1  0.98647910  0.14254101  0.58414969  1.0
  S  S101  1  0.79106392  0.34098540  0.99958953  1.0
  S  S102  1  0.78296243  0.84446815  0.50393056  1.0
  S  S103  1  0.86506007  0.59898502  0.95939005  1.0
  S  S104  1  0.86232302  0.10194215  0.46206083  1.0
  S  S105  1  0.61380972  0.75607939  0.92760334  1.0
  S  S106  1  0.67287073  0.72178430  0.10157847  1.0
  S  S107  1  0.60756743  0.25303122  0.43006398  1.0
  Cl  Cl108  1  0.67361709  0.34448546  0.19322462  1.0
  Cl  Cl109  1  0.26080953  0.74446027  0.25656453  1.0
  Cl  Cl110  1  0.30632221  0.20145099  0.20108466  1.0
  Cl  Cl111  1  0.25430149  0.24467565  0.76048947  1.0
  Cl  Cl112  1  0.46598384  0.58245273  0.77326022  1.0
  Cl  Cl113  1  0.35598283  0.63705039  0.18631919  1.0
  Cl  Cl114  1  0.40809911  0.10530662  0.27960312  1.0
  Cl  Cl115  1  0.34756432  0.13527770  0.69156905  1.0
  Cl  Cl116  1  0.16031756  0.38824074  0.96538138  1.0
  Cl  Cl117  1  0.14979349  0.88660967  0.46940561  1.0
  Cl  Cl118  1  0.19826322  0.62050591  0.08295573  1.0
  Cl  Cl119  1  0.63928191  0.32559665  0.82865539  1.0
  Cl  Cl120  1  0.19541527  0.11961349  0.58551527  1.0
  Cl  Cl121  1  0.54247882  0.91125419  0.73898111  1.0
  Cl  Cl122  1  0.64463090  0.82481882  0.32820807  1.0
  Cl  Cl123  1  0.66071829  0.34785866  0.32509457  1.0
  Cl  Cl124  1  0.67042388  0.33082580  0.69873021  1.0
  Cl  Cl125  1  0.67405337  0.84345407  0.81767221  1.0
  Cl  Cl126  1  0.67591552  0.83500611  0.19832769  1.0
  Cl  Cl127  1  0.43808089  0.62897369  0.64912490  1.0
  O  O128  1  0.50506496  0.50258196  0.00027484  1.0
  O  O129  1  0.43791945  0.12091747  0.41763513  1.0
  O  O130  1  0.31018531  0.45245423  0.02869993  1.0
  O  O131  1  0.30376820  0.94984835  0.52574940  1.0
  O  O132  1  0.70449728  0.50613405  0.04330534  1.0
  O  O133  1  0.70064121  0.46943005  0.94848447  1.0
  O  O134  1  0.69794656  0.01035515  0.54447785  1.0
  O  O135  1  0.69631260  0.97388278  0.44954537  1.0
  O  O136  1  0.46713076  0.35982433  0.06423218  1.0
  O  O137  1  0.42088650  0.37469667  0.92789303  1.0
  O  O138  1  0.45675107  0.86053353  0.56641961  1.0
  O  O139  1  0.49942650  0.00222373  0.50028287  1.0
  O  O140  1  0.42257366  0.87175434  0.42736951  1.0
  O  O141  1  0.58758162  0.58520661  0.89088265  1.0
  O  O142  1  0.53930012  0.57537533  0.12299016  1.0
  O  O143  1  0.57180071  0.08414480  0.38552463  1.0
  O  O144  1  0.52635534  0.07074448  0.62631419  1.0
  O  O145  1  0.30568387  0.55715427  0.99073621  1.0
  O  O146  1  0.29882416  0.05682861  0.49323122  1.0
  O  O147  1  0.02596943  0.70314181  0.06554761  1.0
  O  O148  1  0.89487457  0.62687296  0.08134709  1.0
  O  O149  1  0.01820122  0.62284108  0.14779643  1.0
  O  O150  1  0.52884215  0.43009229  0.87775473  1.0
  O  O151  1  0.02568386  0.20487959  0.56746803  1.0
  O  O152  1  0.89262034  0.13084977  0.58390676  1.0
  O  O153  1  0.01570863  0.12578091  0.65047547  1.0
  O  O154  1  0.82824195  0.27512757  0.00235500  1.0
  O  O155  1  0.71579754  0.35738749  0.03497372  1.0
  O  O156  1  0.77050627  0.35188772  0.93245608  1.0
  O  O157  1  0.81947695  0.77855018  0.50839715  1.0
  O  O158  1  0.70655636  0.86181868  0.53782297  1.0
  O  O159  1  0.76467331  0.85412481  0.43629601  1.0
  O  O160  1  0.77520229  0.61777571  0.97071403  1.0
  O  O161  1  0.56119277  0.42424479  0.11903759  1.0
  O  O162  1  0.93724527  0.64600522  0.95766117  1.0
  O  O163  1  0.86055256  0.56265228  0.89567523  1.0
  O  O164  1  0.77315499  0.12283003  0.47299646  1.0
  O  O165  1  0.93608334  0.14756501  0.46020910  1.0
  O  O166  1  0.85681811  0.06529274  0.39851579  1.0
  O  O167  1  0.60496098  0.82596074  0.93807733  1.0
  O  O168  1  0.56929357  0.70824261  0.96432131  1.0
  O  O169  1  0.71660549  0.73967102  0.92642264  1.0
  O  O170  1  0.66213748  0.65905646  0.07216991  1.0
  O  O171  1  0.67912585  0.78338282  0.07016465  1.0
  O  O172  1  0.53263267  0.92714235  0.37935315  1.0
  O  O173  1  0.75906498  0.71286803  0.14195951  1.0
  O  O174  1  0.58904554  0.32095801  0.44428283  1.0
  O  O175  1  0.57161736  0.19971440  0.46506176  1.0
  O  O176  1  0.71209015  0.24455090  0.42707910  1.0
  O  O177  1  0.65322471  0.15115878  0.57710905  1.0
  O  O178  1  0.67563805  0.27487033  0.57266447  1.0
  O  O179  1  0.75047193  0.20445239  0.64695375  1.0
  O  O180  1  0.02531346  0.27359188  0.99564221  1.0
  O  O181  1  0.08575399  0.34099092  0.08053214  1.0
  O  O182  1  0.94023211  0.29373424  0.08660986  1.0
  O  O183  1  0.56365122  0.92048302  0.61447953  1.0
  O  O184  1  0.01496707  0.77416246  0.50354373  1.0
  O  O185  1  0.07654003  0.84346559  0.58685012  1.0
  O  O186  1  0.93008598  0.79797663  0.59392259  1.0
  O  O187  1  0.45901027  0.64166662  0.06156722  1.0
  O  O188  1  0.44872919  0.62049475  0.91348239  1.0
  O  O189  1  0.45055451  0.13998453  0.56509380  1.0
