# generated using pymatgen
data_MgH6(CO)6
_symmetry_space_group_name_H-M   'P 1'
_cell_length_a   8.76627110
_cell_length_b   13.36086323
_cell_length_c   13.36079297
_cell_angle_alpha   72.56281567
_cell_angle_beta   79.08295882
_cell_angle_gamma   79.08322850
_symmetry_Int_Tables_number   1
_chemical_formula_structural   MgH6(CO)6
_chemical_formula_sum   'Mg4 H24 C24 O24'
_cell_volume   1451.18339422
_cell_formula_units_Z   4
loop_
 _symmetry_equiv_pos_site_id
 _symmetry_equiv_pos_as_xyz
  1  'x, y, z'
loop_
 _atom_site_type_symbol
 _atom_site_label
 _atom_site_symmetry_multiplicity
 _atom_site_fract_x
 _atom_site_fract_y
 _atom_site_fract_z
 _atom_site_occupancy
  Mg  Mg0  1  0.25264364  0.10746408  0.25884784  1.0
  Mg  Mg1  1  0.24735779  0.74115281  0.89253693  1.0
  Mg  Mg2  1  0.74735763  0.89253618  0.74115464  1.0
  Mg  Mg3  1  0.75264067  0.25884985  0.10746371  1.0
  H  H4  1  0.67020632  0.14811393  0.41779019  1.0
  H  H5  1  0.82980380  0.58221418  0.85187763  1.0
  H  H6  1  0.32980039  0.85188236  0.58221052  1.0
  H  H7  1  0.17019478  0.41778773  0.14811797  1.0
  H  H8  1  0.55003497  0.87461684  0.06865035  1.0
  H  H9  1  0.94996922  0.93134408  0.12539454  1.0
  H  H10  1  0.44996370  0.12539056  0.93134962  1.0
  H  H11  1  0.05003188  0.06865140  0.87461461  1.0
  H  H12  1  0.41449430  0.21883930  0.07880315  1.0
  H  H13  1  0.08550370  0.92119582  0.78116185  1.0
  H  H14  1  0.58550534  0.78116334  0.92119884  1.0
  H  H15  1  0.91449654  0.07880368  0.21883649  1.0
  H  H16  1  0.23564425  0.27725580  0.07679054  1.0
  H  H17  1  0.26435031  0.92320312  0.72274466  1.0
  H  H18  1  0.76435242  0.72273821  0.92320538  1.0
  H  H19  1  0.73564857  0.07679163  0.27725674  1.0
  H  H20  1  0.00441062  0.19055657  0.37407523  1.0
  H  H21  1  0.49559036  0.62592004  0.80943725  1.0
  H  H22  1  0.99558410  0.80944140  0.62592052  1.0
  H  H23  1  0.50441119  0.37407867  0.19056041  1.0
  H  H24  1  0.01074826  0.25909463  0.25259381  1.0
  H  H25  1  0.48925379  0.74740557  0.74090520  1.0
  H  H26  1  0.98925198  0.74090487  0.74740528  1.0
  H  H27  1  0.51075144  0.25259232  0.25909523  1.0
  C  C28  1  0.33975388  0.94999157  0.14552691  1.0
  C  C29  1  0.16025929  0.85447221  0.05000718  1.0
  C  C30  1  0.66025390  0.05001104  0.85447481  1.0
  C  C31  1  0.83975391  0.14552644  0.94999202  1.0
  C  C32  1  0.59818447  0.08450356  0.45130663  1.0
  C  C33  1  0.90181811  0.54869921  0.91549034  1.0
  C  C34  1  0.40182177  0.91549510  0.54869569  1.0
  C  C35  1  0.09817931  0.45130269  0.08450540  1.0
  C  C36  1  0.46962414  0.08213900  0.40547547  1.0
  C  C37  1  0.03038444  0.59452575  0.91785244  1.0
  C  C38  1  0.53038125  0.91785808  0.59452667  1.0
  C  C39  1  0.96961464  0.40547934  0.08213917  1.0
  C  C40  1  0.36519253  0.99475661  0.45614805  1.0
  C  C41  1  0.13481229  0.54384933  0.00523991  1.0
  C  C42  1  0.63481766  0.00523968  0.54385147  1.0
  C  C43  1  0.86518096  0.45615022  0.99475706  1.0
  C  C44  1  0.15967979  0.96967053  0.15945216  1.0
  C  C45  1  0.34030677  0.84055455  0.03032922  1.0
  C  C46  1  0.84030474  0.03033215  0.84055472  1.0
  C  C47  1  0.65968617  0.15944657  0.96966957  1.0
  C  C48  1  0.42217575  0.88511781  0.08128545  1.0
  C  C49  1  0.07781410  0.91872442  0.11489533  1.0
  C  C50  1  0.57782077  0.11488879  0.91871801  1.0
  C  C51  1  0.92217939  0.08128606  0.88511935  1.0
  O  O52  1  0.40473323  0.99658992  0.19237863  1.0
  O  O53  1  0.09525975  0.80761538  0.00340688  1.0
  O  O54  1  0.59526269  0.00340800  0.80762296  1.0
  O  O55  1  0.90473576  0.19237862  0.99658994  1.0
  O  O56  1  0.42760904  0.14873608  0.32003432  1.0
  O  O57  1  0.07239778  0.67996003  0.85126120  1.0
  O  O58  1  0.57239307  0.85126576  0.67996758  1.0
  O  O59  1  0.92760328  0.32004107  0.14873357  1.0
  O  O60  1  0.24919654  0.99988773  0.41037396  1.0
  O  O61  1  0.25080767  0.58961999  0.00011359  1.0
  O  O62  1  0.75081146  0.00010779  0.58962382  1.0
  O  O63  1  0.74918630  0.41038190  0.99988710  1.0
  O  O64  1  0.09617896  0.03559007  0.21417044  1.0
  O  O65  1  0.40382582  0.78583203  0.96440833  1.0
  O  O66  1  0.90382656  0.96440625  0.78582742  1.0
  O  O67  1  0.59617367  0.21417138  0.03559644  1.0
  O  O68  1  0.07576723  0.21519970  0.30979944  1.0
  O  O69  1  0.42423737  0.69019798  0.78480095  1.0
  O  O70  1  0.92423418  0.78479979  0.69020026  1.0
  O  O71  1  0.57576638  0.30980148  0.21520071  1.0
  O  O72  1  0.30253463  0.21813061  0.11668226  1.0
  O  O73  1  0.19746461  0.88331540  0.78186912  1.0
  O  O74  1  0.69746851  0.78187201  0.88332154  1.0
  O  O75  1  0.80253462  0.11668332  0.21812883  1.0
