# generated using pymatgen
data_CuSiH12C24N8(O4F3)2
_symmetry_space_group_name_H-M   'P 1'
_cell_length_a   7.88399173
_cell_length_b   13.78503742
_cell_length_c   13.78476644
_cell_angle_alpha   90.09634181
_cell_angle_beta   90.34896470
_cell_angle_gamma   89.64790136
_symmetry_Int_Tables_number   1
_chemical_formula_structural   CuSiH12C24N8(O4F3)2
_chemical_formula_sum   'Cu1 Si1 H12 C24 N8 O8 F6'
_cell_volume   1498.08577032
_cell_formula_units_Z   1
loop_
 _symmetry_equiv_pos_site_id
 _symmetry_equiv_pos_as_xyz
  1  'x, y, z'
loop_
 _atom_site_type_symbol
 _atom_site_label
 _atom_site_symmetry_multiplicity
 _atom_site_fract_x
 _atom_site_fract_y
 _atom_site_fract_z
 _atom_site_occupancy
  Cu  Cu0  1  0.49997395  0.50147309  0.50148789  1.0
  Si  Si1  1  0.99998805  0.50002067  0.50003630  1.0
  H  H2  1  0.76091251  0.65891877  0.50183601  1.0
  H  H3  1  0.76834950  0.83878772  0.49979753  1.0
  H  H4  1  0.23093308  0.65761469  0.50679972  1.0
  H  H5  1  0.76881631  0.34398547  0.50748932  1.0
  H  H6  1  0.23886361  0.34297170  0.50139541  1.0
  H  H7  1  0.23113413  0.16315442  0.49955449  1.0
  H  H8  1  0.76107349  0.50151219  0.34299899  1.0
  H  H9  1  0.76884215  0.49966965  0.16318685  1.0
  H  H10  1  0.23109472  0.50742716  0.34400130  1.0
  H  H11  1  0.76903456  0.50685020  0.65761537  1.0
  H  H12  1  0.23906659  0.50170192  0.65894722  1.0
  H  H13  1  0.23165244  0.49973104  0.83881991  1.0
  C  C14  1  0.64345107  0.70088960  0.50091700  1.0
  C  C15  1  0.64679112  0.80155471  0.49879506  1.0
  C  C16  1  0.49362883  0.85464454  0.49576695  1.0
  C  C17  1  0.34352163  0.79962329  0.49845583  1.0
  C  C18  1  0.34809354  0.69912146  0.50328299  1.0
  C  C19  1  0.49447117  0.95683134  0.49419185  1.0
  C  C20  1  0.50456094  0.04493859  0.49433129  1.0
  C  C21  1  0.50561993  0.14713500  0.49603629  1.0
  C  C22  1  0.65577474  0.20209859  0.49910238  1.0
  C  C23  1  0.65144736  0.30265725  0.50375650  1.0
  C  C24  1  0.35630745  0.30105689  0.50074167  1.0
  C  C25  1  0.35269550  0.20037139  0.49872955  1.0
  C  C26  1  0.64362555  0.50082041  0.30108443  1.0
  C  C27  1  0.64726772  0.49881909  0.20039552  1.0
  C  C28  1  0.49435381  0.49607820  0.14715466  1.0
  C  C29  1  0.34419517  0.49909943  0.20211365  1.0
  C  C30  1  0.34848593  0.50373170  0.30267558  1.0
  C  C31  1  0.49543685  0.49436736  0.04495917  1.0
  C  C32  1  0.50553749  0.49423290  0.95686310  1.0
  C  C33  1  0.50637324  0.49578981  0.85465758  1.0
  C  C34  1  0.65646636  0.49850098  0.79964306  1.0
  C  C35  1  0.65188634  0.50331287  0.69912189  1.0
  C  C36  1  0.35653070  0.50085436  0.70090695  1.0
  C  C37  1  0.35320232  0.49875935  0.80158355  1.0
  N  N38  1  0.49669434  0.65066165  0.50239549  1.0
  N  N39  1  0.50303475  0.35139851  0.50240874  1.0
  N  N40  1  0.49689357  0.50242229  0.35142493  1.0
  N  N41  1  0.50327049  0.50237625  0.65067572  1.0
  N  N42  1  0.17596954  0.84706160  0.49522181  1.0
  N  N43  1  0.82315473  0.15451121  0.49633947  1.0
  N  N44  1  0.17682654  0.49631087  0.15451417  1.0
  N  N45  1  0.82404015  0.49529408  0.84705435  1.0
  O  O46  1  0.15495312  0.91175400  0.43419575  1.0
  O  O47  1  0.06873554  0.81772396  0.55340329  1.0
  O  O48  1  0.84369209  0.09026480  0.43471240  1.0
  O  O49  1  0.93074123  0.18322234  0.55546643  1.0
  O  O50  1  0.15631819  0.43467295  0.09028211  1.0
  O  O51  1  0.06921795  0.55544418  0.18320647  1.0
  O  O52  1  0.84511595  0.43427749  0.91174562  1.0
  O  O53  1  0.93122561  0.55349312  0.81769189  1.0
  F  F54  1  0.78004436  0.50026651  0.49961746  1.0
  F  F55  1  0.21992777  0.49962301  0.50029880  1.0
  F  F56  1  0.99992654  0.58738960  0.58736106  1.0
  F  F57  1  0.00001524  0.41219941  0.41227052  1.0
  F  F58  1  0.99927332  0.58746155  0.41261984  1.0
  F  F59  1  0.00073682  0.41266676  0.58752955  1.0
