# generated using pymatgen
data_AlH8(C2O)5
_symmetry_space_group_name_H-M   'P 1'
_cell_length_a   6.67982402
_cell_length_b   16.25235742
_cell_length_c   17.30726226
_cell_angle_alpha   80.23022609
_cell_angle_beta   89.99968487
_cell_angle_gamma   89.99950901
_symmetry_Int_Tables_number   1
_chemical_formula_structural   AlH8(C2O)5
_chemical_formula_sum   'Al4 H32 C40 O20'
_cell_volume   1851.67733794
_cell_formula_units_Z   4
loop_
 _symmetry_equiv_pos_site_id
 _symmetry_equiv_pos_as_xyz
  1  'x, y, z'
loop_
 _atom_site_type_symbol
 _atom_site_label
 _atom_site_symmetry_multiplicity
 _atom_site_fract_x
 _atom_site_fract_y
 _atom_site_fract_z
 _atom_site_occupancy
  Al  Al0  1  0.12698885  0.50268010  0.50162221  1.0
  Al  Al1  1  0.62698581  0.49732134  0.49837352  1.0
  Al  Al2  1  0.61482890  0.99775950  0.99770728  1.0
  Al  Al3  1  0.11483224  0.00224740  0.00227787  1.0
  H  H4  1  0.02632926  0.19190340  0.79504416  1.0
  H  H5  1  0.52630327  0.80810807  0.20495791  1.0
  H  H6  1  0.57298073  0.30259534  0.68666769  1.0
  H  H7  1  0.07297312  0.69740681  0.31331864  1.0
  H  H8  1  0.03071137  0.30792268  0.70764770  1.0
  H  H9  1  0.53070881  0.69208478  0.29233859  1.0
  H  H10  1  0.62360643  0.29657394  0.36594918  1.0
  H  H11  1  0.12360458  0.70342911  0.63404069  1.0
  H  H12  1  0.18696603  0.41380105  0.29865454  1.0
  H  H13  1  0.68698484  0.58621220  0.70133528  1.0
  H  H14  1  0.22878071  0.32536007  0.19508493  1.0
  H  H15  1  0.72881158  0.67467157  0.80488898  1.0
  H  H16  1  0.11481314  0.21012414  0.13082240  1.0
  H  H17  1  0.61481507  0.78991486  0.86914439  1.0
  H  H18  1  0.56580281  0.19374879  0.80463142  1.0
  H  H19  1  0.06578689  0.80625907  0.19535722  1.0
  H  H20  1  0.25729772  0.10206722  0.25359467  1.0
  H  H21  1  0.40478938  0.03476474  0.32277437  1.0
  H  H22  1  0.19996546  0.09037830  0.35452380  1.0
  H  H23  1  0.51979720  0.15779432  0.38225379  1.0
  H  H24  1  0.37129349  0.22497061  0.31612185  1.0
  H  H25  1  0.75730955  0.89795307  0.74637815  1.0
  H  H26  1  0.90481818  0.96524588  0.67719506  1.0
  H  H27  1  0.69998610  0.90964198  0.64544724  1.0
  H  H28  1  0.01980055  0.84220926  0.61771905  1.0
  H  H29  1  0.87128087  0.77504179  0.68385399  1.0
  H  H30  1  0.56020849  0.08593360  0.19985887  1.0
  H  H31  1  0.06017433  0.91407678  0.80012214  1.0
  H  H32  1  0.36747845  0.39277880  0.49518057  1.0
  H  H33  1  0.86747894  0.60723182  0.50478767  1.0
  H  H34  1  0.37407912  0.10681175  0.00550114  1.0
  H  H35  1  0.87407473  0.89318587  0.99452458  1.0
  C  C36  1  0.38265225  0.58862261  0.59953261  1.0
  C  C37  1  0.88263827  0.41137479  0.40046266  1.0
  C  C38  1  0.37758331  0.61127519  0.38696420  1.0
  C  C39  1  0.87755575  0.38872691  0.61302869  1.0
  C  C40  1  0.71218206  0.21489438  0.78085038  1.0
  C  C41  1  0.21217433  0.78510947  0.21914126  1.0
  C  C42  1  0.87488029  0.17563763  0.81573809  1.0
  C  C43  1  0.37487839  0.82436702  0.18425420  1.0
  C  C44  1  0.71623776  0.28226979  0.71400565  1.0
  C  C45  1  0.21623861  0.71773202  0.28598367  1.0
  C  C46  1  0.88210646  0.32261352  0.68303092  1.0
  C  C47  1  0.38210170  0.67738962  0.31695611  1.0
  C  C48  1  0.90115234  0.35916060  0.33780685  1.0
  C  C49  1  0.40115563  0.64083742  0.66218900  1.0
  C  C50  1  0.83901080  0.14418121  0.15934836  1.0
  C  C51  1  0.33899748  0.85583943  0.84062508  1.0
  C  C52  1  0.63686439  0.18191860  0.26615210  1.0
  C  C53  1  0.13685780  0.81809098  0.73382894  1.0
  C  C54  1  0.66722581  0.13409418  0.20847668  1.0
  C  C55  1  0.16720755  0.86592079  0.79149907  1.0
  C  C56  1  0.98166638  0.20337844  0.16785770  1.0
  C  C57  1  0.48166229  0.79664956  0.83211691  1.0
  C  C58  1  0.95407433  0.25629534  0.22403143  1.0
  C  C59  1  0.45406427  0.74371855  0.77594911  1.0
  C  C60  1  0.77960363  0.24632203  0.27350100  1.0
  C  C61  1  0.27959314  0.75368239  0.72648247  1.0
  C  C62  1  0.75597122  0.30071365  0.32873565  1.0
  C  C63  1  0.25596682  0.69928860  0.67125954  1.0
  C  C64  1  0.07472394  0.36761536  0.28987497  1.0
  C  C65  1  0.57474048  0.63238886  0.71011370  1.0
  C  C66  1  0.09768850  0.31835790  0.23326367  1.0
  C  C67  1  0.59769928  0.68166009  0.76671730  1.0
  C  C68  1  0.36483951  0.89046486  0.11435924  1.0
  C  C69  1  0.86483929  0.10953694  0.88562428  1.0
  C  C70  1  0.35852332  0.90889018  0.90254511  1.0
  C  C71  1  0.85854737  0.09112226  0.09743365  1.0
  C  C72  1  0.46110030  0.16731917  0.32177472  1.0
  C  C73  1  0.32398431  0.09453703  0.31234358  1.0
  C  C74  1  0.96109555  0.83268911  0.67820293  1.0
  C  C75  1  0.82399474  0.90547828  0.68762461  1.0
  O  O76  1  0.54831745  0.58285456  0.41215304  1.0
  O  O77  1  0.04830126  0.41715773  0.58783791  1.0
  O  O78  1  0.20846606  0.57254320  0.57580656  1.0
  O  O79  1  0.70846348  0.42746145  0.42418391  1.0
  O  O80  1  0.20796386  0.58874903  0.41719722  1.0
  O  O81  1  0.70793123  0.41125018  0.58279621  1.0
  O  O82  1  0.04763288  0.43495347  0.42640130  1.0
  O  O83  1  0.54764897  0.56503912  0.57360032  1.0
  O  O84  1  0.37460509  0.45018504  0.50317230  1.0
  O  O85  1  0.87460268  0.54981765  0.49682059  1.0
  O  O86  1  0.19408798  0.93250332  0.92883151  1.0
  O  O87  1  0.69410877  0.06751467  0.07114189  1.0
  O  O88  1  0.53440954  0.91349178  0.08390332  1.0
  O  O89  1  0.03440305  0.08651581  0.91608590  1.0
  O  O90  1  0.53319902  0.92597358  0.92516184  1.0
  O  O91  1  0.03323476  0.07402683  0.07483679  1.0
  O  O92  1  0.69378896  0.08191339  0.91055072  1.0
  O  O93  1  0.19378503  0.91808057  0.08942284  1.0
  O  O94  1  0.36682638  0.04995863  0.99586163  1.0
  O  O95  1  0.86680911  0.95005120  0.00412535  1.0
