# generated using pymatgen
data_Zn4H12C30N2O17
_symmetry_space_group_name_H-M   'P 1'
_cell_length_a   20.87572895
_cell_length_b   20.87558987
_cell_length_c   20.94915499
_cell_angle_alpha   112.37466603
_cell_angle_beta   112.37567503
_cell_angle_gamma   103.54980657
_symmetry_Int_Tables_number   1
_chemical_formula_structural   Zn4H12C30N2O17
_chemical_formula_sum   'Zn8 H24 C60 N4 O34'
_cell_volume   6996.95687953
_cell_formula_units_Z   2
loop_
 _symmetry_equiv_pos_site_id
 _symmetry_equiv_pos_as_xyz
  1  'x, y, z'
loop_
 _atom_site_type_symbol
 _atom_site_label
 _atom_site_symmetry_multiplicity
 _atom_site_fract_x
 _atom_site_fract_y
 _atom_site_fract_z
 _atom_site_occupancy
  Zn  Zn0  1  0.29473197  0.72617042  0.93044793  1.0
  Zn  Zn1  1  0.70526729  0.27382961  0.06955598  1.0
  Zn  Zn2  1  0.27383095  0.70527101  0.06955661  1.0
  Zn  Zn3  1  0.72617038  0.29473228  0.93044704  1.0
  Zn  Zn4  1  0.13817257  0.70547439  0.92947408  1.0
  Zn  Zn5  1  0.86183006  0.29452530  0.07052567  1.0
  Zn  Zn6  1  0.29452029  0.86183080  0.07052474  1.0
  Zn  Zn7  1  0.70547821  0.13816960  0.92947436  1.0
  H  H8  1  0.61621629  0.08511070  0.13475439  1.0
  H  H9  1  0.38377885  0.91488410  0.86523964  1.0
  H  H10  1  0.91481528  0.38383927  0.86521078  1.0
  H  H11  1  0.08518605  0.61616177  0.13478826  1.0
  H  H12  1  0.50339760  0.80769325  0.88742894  1.0
  H  H13  1  0.42981058  0.81016677  0.81109935  1.0
  H  H14  1  0.50733334  0.79734520  0.80127304  1.0
  H  H15  1  0.52913578  0.93381424  0.84359479  1.0
  H  H16  1  0.60145133  0.93181330  0.92047532  1.0
  H  H17  1  0.57018844  0.18982880  0.18889682  1.0
  H  H18  1  0.49660090  0.19230339  0.11256786  1.0
  H  H19  1  0.49266465  0.20265109  0.19872440  1.0
  H  H20  1  0.39854562  0.06818235  0.07952109  1.0
  H  H21  1  0.47086297  0.06618138  0.15640169  1.0
  H  H22  1  0.19228717  0.49650781  0.11240404  1.0
  H  H23  1  0.18985508  0.57007243  0.18879138  1.0
  H  H24  1  0.20267823  0.49251622  0.19854695  1.0
  H  H25  1  0.06622597  0.47072824  0.15630009  1.0
  H  H26  1  0.06818282  0.39844477  0.07936182  1.0
  H  H27  1  0.81014497  0.42992704  0.81120811  1.0
  H  H28  1  0.80771313  0.50349252  0.88759628  1.0
  H  H29  1  0.79732156  0.50748284  0.80145286  1.0
  H  H30  1  0.93181645  0.60155589  0.92063748  1.0
  H  H31  1  0.93377330  0.52927289  0.84369920  1.0
  C  C32  1  0.11012384  0.61109226  0.99957035  1.0
  C  C33  1  0.88987673  0.38890853  0.00042850  1.0
  C  C34  1  0.38891637  0.88987313  0.00043664  1.0
  C  C35  1  0.61108160  0.11012360  0.99956195  1.0
  C  C36  1  0.14068713  0.64053607  0.77983013  1.0
  C  C37  1  0.85931758  0.35946648  0.22016707  1.0
  C  C38  1  0.35946231  0.85932158  0.22017110  1.0
  C  C39  1  0.64054186  0.14068228  0.77983481  1.0
  C  C40  1  0.14092283  0.85907698  0.00000250  1.0
  C  C41  1  0.85907566  0.14092146  0.99999775  1.0
  C  C42  1  0.35915938  0.64084256  0.99999856  1.0
  C  C43  1  0.64084221  0.35915971  0.00000478  1.0
  C  C44  1  0.40296395  0.59704351  0.00000410  1.0
  C  C45  1  0.59704416  0.40295983  0.00000531  1.0
  C  C46  1  0.44034926  0.55966266  0.00000671  1.0
  C  C47  1  0.55965885  0.44034814  0.00000962  1.0
  C  C48  1  0.48120291  0.51880769  0.00000905  1.0
  C  C49  1  0.51880985  0.48120173  0.00000961  1.0
  C  C50  1  0.53012524  0.95788434  0.02409890  1.0
  C  C51  1  0.46987171  0.04210896  0.97589636  1.0
  C  C52  1  0.04206421  0.46985244  0.97582036  1.0
  C  C53  1  0.95793609  0.53014841  0.02417881  1.0
  C  C54  1  0.56376010  0.04766911  0.07465234  1.0
  C  C55  1  0.43623684  0.95232658  0.92534291  1.0
  C  C56  1  0.95228984  0.43627100  0.92533108  1.0
  C  C57  1  0.04771047  0.56373033  0.07466809  1.0
  C  C58  1  0.55332855  0.05106721  0.99808433  1.0
  C  C59  1  0.44666659  0.94892759  0.00190970  1.0
  C  C60  1  0.94893117  0.44665510  0.00190007  1.0
  C  C61  1  0.05106914  0.55334574  0.99809910  1.0
  C  C62  1  0.51960422  0.96037908  0.94640001  1.0
  C  C63  1  0.48039067  0.03961578  0.05359434  1.0
  C  C64  1  0.03962077  0.48033251  0.05353038  1.0
  C  C65  1  0.96037954  0.51966834  0.94646879  1.0
  C  C66  1  0.40368937  0.90282188  0.30727068  1.0
  C  C67  1  0.59631973  0.09718629  0.69273724  1.0
  C  C68  1  0.09719250  0.59630702  0.69272890  1.0
  C  C69  1  0.90281171  0.40368778  0.30726088  1.0
  C  C70  1  0.44089323  0.94027461  0.38151957  1.0
  C  C71  1  0.55911225  0.05974426  0.61848472  1.0
  C  C72  1  0.05974786  0.55910478  0.61848370  1.0
  C  C73  1  0.94025891  0.44089938  0.38152017  1.0
  C  C74  1  0.48142930  0.98117681  0.46266401  1.0
  C  C75  1  0.51857953  0.01884243  0.53734420  1.0
  C  C76  1  0.01883705  0.51857254  0.53733735  1.0
  C  C77  1  0.98116535  0.48143035  0.46265465  1.0
  C  C78  1  0.09707590  0.90292470  0.00000444  1.0
  C  C79  1  0.90292835  0.09707317  0.00000055  1.0
  C  C80  1  0.05967217  0.94032309  0.99999656  1.0
  C  C81  1  0.94032348  0.05968152  0.00000027  1.0
  C  C82  1  0.01880616  0.98119251  0.00000166  1.0
  C  C83  1  0.98119498  0.01880625  0.00000254  1.0
  C  C84  1  0.53913737  0.91524596  0.88774995  1.0
  C  C85  1  0.49222101  0.82786118  0.84470179  1.0
  C  C86  1  0.46086061  0.08475132  0.11224633  1.0
  C  C87  1  0.50777775  0.17213633  0.15529584  1.0
  C  C88  1  0.08476573  0.46075568  0.11212340  1.0
  C  C89  1  0.17215234  0.50766514  0.15515647  1.0
  C  C90  1  0.91523484  0.53924555  0.88787661  1.0
  C  C91  1  0.82784771  0.49233482  0.84484302  1.0
  N  N92  1  0.56829765  0.91646136  0.05455233  1.0
  N  N93  1  0.43169930  0.08353388  0.94544177  1.0
  N  N94  1  0.08341631  0.43165456  0.94526809  1.0
  N  N95  1  0.91658425  0.56834430  0.05473076  1.0
  O  O96  1  0.25065084  0.74935457  0.00000197  1.0
  O  O97  1  0.74935025  0.25064647  0.99999971  1.0
  O  O98  1  0.17957766  0.64067414  0.05737204  1.0
  O  O99  1  0.82042161  0.35932935  0.94262840  1.0
  O  O100  1  0.35932467  0.82042113  0.94262838  1.0
  O  O101  1  0.64067124  0.17957525  0.05736930  1.0
  O  O102  1  0.10157459  0.65320568  0.81344666  1.0
  O  O103  1  0.89842754  0.34679378  0.18655028  1.0
  O  O104  1  0.34678210  0.89842944  0.18655140  1.0
  O  O105  1  0.65321406  0.10157103  0.81345057  1.0
  O  O106  1  0.10198516  0.78591544  0.95245437  1.0
  O  O107  1  0.89801463  0.21408359  0.04754660  1.0
  O  O108  1  0.21408462  0.89802031  0.04755188  1.0
  O  O109  1  0.78591413  0.10197859  0.95244690  1.0
  O  O110  1  0.33363594  0.64938003  0.04772319  1.0
  O  O111  1  0.66636307  0.35062256  0.95227757  1.0
  O  O112  1  0.35061878  0.66636186  0.95226919  1.0
  O  O113  1  0.64937997  0.33363465  0.04772960  1.0
  O  O114  1  0.21342612  0.66257325  0.81419312  1.0
  O  O115  1  0.78657884  0.33743199  0.18580721  1.0
  O  O116  1  0.33743220  0.78658284  0.18581235  1.0
  O  O117  1  0.66257015  0.21342005  0.81419464  1.0
  O  O118  1  0.08546413  0.62582546  0.94369582  1.0
  O  O119  1  0.91453567  0.37417227  0.05630053  1.0
  O  O120  1  0.37417821  0.91453229  0.05630399  1.0
  O  O121  1  0.62582493  0.08546622  0.94369859  1.0
  O  O122  1  0.63299687  0.92968529  0.06279410  1.0
  O  O123  1  0.53487978  0.87309781  0.07063750  1.0
  O  O124  1  0.36700293  0.07031717  0.93720456  1.0
  O  O125  1  0.46511848  0.12689293  0.92935155  1.0
  O  O126  1  0.07011745  0.36690921  0.93692870  1.0
  O  O127  1  0.12680571  0.46509558  0.92922589  1.0
  O  O128  1  0.92988078  0.63308937  0.06306956  1.0
  O  O129  1  0.87319719  0.53490211  0.07077471  1.0
