# generated using pymatgen
data_Zr3H19C44Br5(NO10)2
_symmetry_space_group_name_H-M   'P 1'
_cell_length_a   19.09589957
_cell_length_b   19.09568324
_cell_length_c   19.15028680
_cell_angle_alpha   60.20248538
_cell_angle_beta   60.20038968
_cell_angle_gamma   90.51901799
_symmetry_Int_Tables_number   1
_chemical_formula_structural   Zr3H19C44Br5(NO10)2
_chemical_formula_sum   'Zr6 H38 C88 Br10 N4 O40'
_cell_volume   4945.32782628
_cell_formula_units_Z   2
loop_
 _symmetry_equiv_pos_site_id
 _symmetry_equiv_pos_as_xyz
  1  'x, y, z'
loop_
 _atom_site_type_symbol
 _atom_site_label
 _atom_site_symmetry_multiplicity
 _atom_site_fract_x
 _atom_site_fract_y
 _atom_site_fract_z
 _atom_site_occupancy
  Zr  Zr0  1  0.58978773  0.58807322  0.50786167  1.0
  Zr  Zr1  1  0.41253996  0.41071483  0.49156525  1.0
  Zr  Zr2  1  0.59765399  0.59588699  0.31505931  1.0
  Zr  Zr3  1  0.40467442  0.40292559  0.68434587  1.0
  Zr  Zr4  1  0.40905337  0.59149522  0.49969089  1.0
  Zr  Zr5  1  0.59322594  0.40741147  0.49970029  1.0
  H  H6  1  0.57359758  0.71815105  0.36080596  1.0
  H  H7  1  0.28242934  0.42689673  0.63861792  1.0
  H  H8  1  0.57965455  0.43299002  0.34826185  1.0
  H  H9  1  0.56756629  0.42096000  0.65114390  1.0
  H  H10  1  0.42216350  0.06880243  0.44534679  1.0
  H  H11  1  0.62829902  0.97050322  0.46951187  1.0
  H  H12  1  0.37770734  0.79581302  0.54171775  1.0
  H  H13  1  0.37227726  0.92601522  0.54095364  1.0
  H  H14  1  0.58045407  0.16270504  0.54177321  1.0
  H  H15  1  0.58131822  0.02814960  0.55189157  1.0
  H  H16  1  0.02953477  0.37198003  0.53080473  1.0
  H  H17  1  0.93163147  0.57891322  0.55397714  1.0
  H  H18  1  0.83733353  0.41955628  0.45881945  1.0
  H  H19  1  0.97162020  0.41841504  0.44920238  1.0
  H  H20  1  0.20445403  0.62248570  0.45850752  1.0
  H  H21  1  0.07410039  0.62791106  0.45964709  1.0
  H  H22  1  0.96224901  0.39351175  0.15920140  1.0
  H  H23  1  0.04797895  0.61315363  0.83986303  1.0
  H  H24  1  0.18398679  0.39485758  0.92326674  1.0
  H  H25  1  0.05879400  0.39072031  0.05714673  1.0
  H  H26  1  0.82343733  0.60898874  0.07655582  1.0
  H  H27  1  0.94808692  0.61269673  0.94241114  1.0
  H  H28  1  0.38743168  0.95249499  0.15945645  1.0
  H  H29  1  0.60706445  0.03821152  0.84003156  1.0
  H  H30  1  0.39132887  0.17679086  0.92286513  1.0
  H  H31  1  0.38739553  0.05185423  0.05697527  1.0
  H  H32  1  0.60515775  0.81592675  0.07613022  1.0
  H  H33  1  0.60908617  0.94087013  0.94223926  1.0
  H  H34  1  0.17806394  0.17130024  0.70669910  1.0
  H  H35  1  0.18423234  0.18589179  0.91885838  1.0
  H  H36  1  0.82946789  0.82232606  0.29269218  1.0
  H  H37  1  0.81461051  0.81647865  0.08052030  1.0
  H  H38  1  0.61484280  0.61848738  0.92651676  1.0
  H  H39  1  0.38214882  0.38576104  0.07290899  1.0
  H  H40  1  0.59215104  0.60501346  0.71610906  1.0
  H  H41  1  0.60331334  0.61742669  0.83189510  1.0
  H  H42  1  0.39552524  0.40832975  0.28330069  1.0
  H  H43  1  0.38317472  0.39723041  0.16742616  1.0
  C  C44  1  0.49914372  0.72821640  0.51191667  1.0
  C  C45  1  0.27225847  0.50121645  0.48769271  1.0
  C  C46  1  0.50023836  0.26735808  0.49397022  1.0
  C  C47  1  0.73310987  0.50045689  0.50556397  1.0
  C  C48  1  0.73944525  0.73332628  0.27209600  1.0
  C  C49  1  0.48570644  0.49070096  0.74616663  1.0
  C  C50  1  0.26725498  0.26111904  0.72730770  1.0
  C  C51  1  0.50982153  0.51471595  0.25332499  1.0
  C  C52  1  0.50027226  0.73570755  0.26784157  1.0
  C  C53  1  0.74356923  0.50447496  0.26811679  1.0
  C  C54  1  0.49617193  0.25705064  0.73126024  1.0
  C  C55  1  0.26472793  0.50023475  0.73153051  1.0
  C  C56  1  0.49909462  0.19016680  0.49215610  1.0
  C  C57  1  0.50330659  0.80731790  0.50987116  1.0
  C  C58  1  0.45412624  0.16209826  0.46540191  1.0
  C  C59  1  0.45557428  0.08742183  0.46910016  1.0
  C  C60  1  0.57342401  0.85723443  0.49119580  1.0
  C  C61  1  0.57186866  0.93179532  0.48772266  1.0
  C  C62  1  0.43199877  0.83493909  0.52654849  1.0
  C  C63  1  0.42965348  0.90817855  0.52499533  1.0
  C  C64  1  0.54569231  0.14068706  0.52131995  1.0
  C  C65  1  0.54649343  0.06592459  0.52609756  1.0
  C  C66  1  0.50081092  0.03778093  0.50028779  1.0
  C  C67  1  0.50037429  0.95845052  0.50465238  1.0
  C  C68  1  0.19297127  0.49695651  0.49010808  1.0
  C  C69  1  0.81020059  0.50155324  0.50755021  1.0
  C  C70  1  0.14292992  0.42684198  0.50890079  1.0
  C  C71  1  0.06824413  0.42838208  0.51264458  1.0
  C  C72  1  0.83837741  0.54680246  0.53397214  1.0
  C  C73  1  0.91292031  0.54518858  0.53056971  1.0
  C  C74  1  0.85944530  0.45454578  0.47900312  1.0
  C  C75  1  0.93407368  0.45359702  0.47450689  1.0
  C  C76  1  0.16528453  0.56821361  0.47368594  1.0
  C  C77  1  0.09192364  0.57053632  0.47550025  1.0
  C  C78  1  0.04158348  0.49985822  0.49584736  1.0
  C  C79  1  0.96234573  0.49953340  0.50000252  1.0
  C  C80  1  0.82131528  0.50124629  0.19330205  1.0
  C  C81  1  0.18809939  0.50457016  0.80616454  1.0
  C  C82  1  0.86260209  0.44063828  0.21416653  1.0
  C  C83  1  0.93332328  0.44196715  0.13847032  1.0
  C  C84  1  0.14756753  0.56591826  0.78504855  1.0
  C  C85  1  0.07645727  0.56426869  0.86070254  1.0
  C  C86  1  0.15301635  0.44243289  0.90630797  1.0
  C  C87  1  0.08231566  0.44079442  0.98149926  1.0
  C  C88  1  0.85534020  0.56231594  0.09323347  1.0
  C  C89  1  0.92566538  0.56369140  0.01794949  1.0
  C  C90  1  0.96670785  0.50295962  0.03888299  1.0
  C  C91  1  0.04209721  0.50231079  0.96038419  1.0
  C  C92  1  0.49581155  0.81218765  0.19318699  1.0
  C  C93  1  0.49931574  0.17918199  0.80605332  1.0
  C  C94  1  0.43461240  0.85287902  0.21426819  1.0
  C  C95  1  0.43618093  0.92389311  0.13862008  1.0
  C  C96  1  0.55993612  0.13790758  0.78514920  1.0
  C  C97  1  0.55855097  0.06707411  0.86080214  1.0
  C  C98  1  0.43807678  0.14496402  0.90614513  1.0
  C  C99  1  0.43657621  0.07447466  0.98139635  1.0
  C  C100  1  0.55768113  0.84699154  0.09306139  1.0
  C  C101  1  0.55922017  0.91757874  0.01786286  1.0
  C  C102  1  0.49791929  0.95803108  0.03895408  1.0
  C  C103  1  0.49738771  0.03350198  0.96041655  1.0
  C  C104  1  0.14854744  0.14442774  0.78405937  1.0
  C  C105  1  0.07374339  0.07190372  0.85962670  1.0
  C  C106  1  0.02931145  0.03025624  0.84078498  1.0
  C  C107  1  0.15210910  0.15225809  0.90499706  1.0
  C  C108  1  0.07727578  0.08047525  0.98226447  1.0
  C  C109  1  0.03924711  0.04538429  0.08397513  1.0
  C  C110  1  0.85623709  0.85194928  0.21533699  1.0
  C  C111  1  0.92874873  0.92676841  0.13978020  1.0
  C  C112  1  0.97042067  0.97114846  0.15863771  1.0
  C  C113  1  0.84825896  0.84857072  0.09438935  1.0
  C  C114  1  0.92003565  0.92340465  0.01714392  1.0
  C  C115  1  0.95507973  0.96143409  0.91545652  1.0
  C  C116  1  0.18731359  0.18340219  0.80723966  1.0
  C  C117  1  0.03717039  0.03804719  0.96074964  1.0
  C  C118  1  0.81717942  0.81328515  0.19215329  1.0
  C  C119  1  0.96255513  0.96344030  0.03864921  1.0
  C  C120  1  0.51012850  0.51779190  0.17367838  1.0
  C  C121  1  0.48268102  0.49042339  0.82577751  1.0
  C  C122  1  0.57135280  0.57716905  0.07128121  1.0
  C  C123  1  0.56532320  0.57130964  0.00456562  1.0
  C  C124  1  0.42337824  0.42919221  0.92819434  1.0
  C  C125  1  0.42929002  0.43526386  0.99485814  1.0
  C  C126  1  0.54648402  0.55742666  0.79517767  1.0
  C  C127  1  0.55226569  0.56373058  0.86116373  1.0
  C  C128  1  0.44313604  0.45400132  0.20423318  1.0
  C  C129  1  0.43684678  0.44826817  0.13821342  1.0
  C  C130  1  0.49842923  0.50706208  0.03589683  1.0
  C  C131  1  0.49353297  0.50216737  0.96349377  1.0
  Br  Br132  1  0.39175382  0.22218481  0.41764531  1.0
  Br  Br133  1  0.67702208  0.83308047  0.46612880  1.0
  Br  Br134  1  0.16712255  0.32331011  0.53364460  1.0
  Br  Br135  1  0.77873258  0.60991281  0.58073355  1.0
  Br  Br136  1  0.82978394  0.35171285  0.34314038  1.0
  Br  Br137  1  0.18148782  0.65589809  0.65588423  1.0
  Br  Br138  1  0.34515076  0.81948342  0.34336222  1.0
  Br  Br139  1  0.64886241  0.17076826  0.65614621  1.0
  Br  Br140  1  0.66695602  0.66997204  0.01207355  1.0
  Br  Br141  1  0.33068367  0.33348332  0.98745470  1.0
  N  N142  1  0.90939285  0.92302271  0.89232606  1.0
  N  N143  1  0.06382287  0.06543794  0.73714569  1.0
  N  N144  1  0.93508415  0.93660689  0.26232714  1.0
  N  N145  1  0.07744668  0.09108741  0.10725331  1.0
  O  O146  1  0.55563461  0.69414371  0.51511990  1.0
  O  O147  1  0.30635428  0.44477029  0.48438515  1.0
  O  O148  1  0.44179102  0.29932896  0.49397734  1.0
  O  O149  1  0.70111202  0.55889968  0.50550676  1.0
  O  O150  1  0.70964130  0.70386557  0.24157987  1.0
  O  O151  1  0.42880213  0.43150499  0.77033761  1.0
  O  O152  1  0.29675751  0.29091653  0.75779971  1.0
  O  O153  1  0.56898661  0.57163097  0.22917063  1.0
  O  O154  1  0.44135176  0.70173190  0.35853699  1.0
  O  O155  1  0.70895487  0.44487243  0.35870824  1.0
  O  O156  1  0.55588654  0.29177152  0.64068608  1.0
  O  O157  1  0.29875648  0.55918779  0.64083456  1.0
  O  O158  1  0.71570502  0.56543292  0.23662069  1.0
  O  O159  1  0.43516869  0.28485655  0.76275415  1.0
  O  O160  1  0.29092408  0.43774487  0.76299987  1.0
  O  O161  1  0.56283007  0.70957490  0.23639159  1.0
  O  O162  1  0.70942103  0.70299623  0.36100588  1.0
  O  O163  1  0.44980535  0.45327906  0.34180676  1.0
  O  O164  1  0.29757415  0.29113698  0.63841057  1.0
  O  O165  1  0.54711982  0.55074861  0.65768531  1.0
  O  O166  1  0.70469187  0.44138514  0.50331021  1.0
  O  O167  1  0.44021806  0.70045235  0.50906976  1.0
  O  O168  1  0.30012350  0.56022541  0.49037439  1.0
  O  O169  1  0.55929605  0.29582979  0.49620845  1.0
  O  O170  1  0.54833996  0.44293585  0.60845897  1.0
  O  O171  1  0.55767133  0.45218751  0.39097418  1.0
  O  O172  1  0.34455791  0.44619736  0.59953256  1.0
  O  O173  1  0.55433701  0.65602337  0.39988020  1.0
  O  O174  1  0.46649671  0.54096723  0.41983219  1.0
  O  O175  1  0.45957572  0.53408549  0.57954935  1.0
  O  O176  1  0.46220514  0.38448433  0.57306057  1.0
  O  O177  1  0.61607693  0.53840629  0.42634277  1.0
  O  O178  1  0.83433268  0.92072808  0.92523826  1.0
  O  O179  1  0.94929169  0.89519344  0.84358188  1.0
  O  O180  1  0.13682461  0.06629698  0.68633979  1.0
  O  O181  1  0.01740458  0.09225359  0.70974752  1.0
  O  O182  1  0.93460414  0.86377836  0.31300913  1.0
  O  O183  1  0.90771426  0.98279357  0.28988917  1.0
  O  O184  1  0.08008880  0.16628489  0.07388213  1.0
  O  O185  1  0.10468515  0.05105430  0.15666927  1.0
