# generated using pymatgen
data_Zr3H30(C5O2)8
_symmetry_space_group_name_H-M   'P 1'
_cell_length_a   15.02331476
_cell_length_b   18.64614202
_cell_length_c   19.60190544
_cell_angle_alpha   81.14936065
_cell_angle_beta   67.47974653
_cell_angle_gamma   66.26791746
_symmetry_Int_Tables_number   1
_chemical_formula_structural   Zr3H30(C5O2)8
_chemical_formula_sum   'Zr6 H60 C80 O32'
_cell_volume   4643.37101406
_cell_formula_units_Z   2
loop_
 _symmetry_equiv_pos_site_id
 _symmetry_equiv_pos_as_xyz
  1  'x, y, z'
loop_
 _atom_site_type_symbol
 _atom_site_label
 _atom_site_symmetry_multiplicity
 _atom_site_fract_x
 _atom_site_fract_y
 _atom_site_fract_z
 _atom_site_occupancy
  Zr  Zr0  1  0.56956635  0.99984676  0.86050020  1.0
  Zr  Zr1  1  0.43041192  0.00015559  0.13949918  1.0
  Zr  Zr2  1  0.43816748  0.89370353  0.00091106  1.0
  Zr  Zr3  1  0.56181499  0.10630175  0.99910031  1.0
  Zr  Zr4  1  0.66741490  0.89397222  0.00061382  1.0
  Zr  Zr5  1  0.33257577  0.10603364  0.99937597  1.0
  H  H6  1  0.35724329  0.99597928  0.90564943  1.0
  H  H7  1  0.74097771  0.99625062  0.90491079  1.0
  H  H8  1  0.64274500  0.00401193  0.09435160  1.0
  H  H9  1  0.25900684  0.00375407  0.09509185  1.0
  H  H10  1  0.46549945  0.74495491  0.04353004  1.0
  H  H11  1  0.48722663  0.25245519  0.04511384  1.0
  H  H12  1  0.78460339  0.74781983  0.95454222  1.0
  H  H13  1  0.25395321  0.25491481  0.95690596  1.0
  H  H14  1  0.53448711  0.25503806  0.95648402  1.0
  H  H15  1  0.51276038  0.74753662  0.95489720  1.0
  H  H16  1  0.21538417  0.25218545  0.04545273  1.0
  H  H17  1  0.74603611  0.74508812  0.04308625  1.0
  H  H18  1  0.67558370  0.28036481  0.81824822  1.0
  H  H19  1  0.50905636  0.71867561  0.81804208  1.0
  H  H20  1  0.04623017  0.28101289  0.18195526  1.0
  H  H21  1  0.77467855  0.71974445  0.18148550  1.0
  H  H22  1  0.32442615  0.71962992  0.18175103  1.0
  H  H23  1  0.49094497  0.28131737  0.18195964  1.0
  H  H24  1  0.95376609  0.71899474  0.81804779  1.0
  H  H25  1  0.22531871  0.28024735  0.81851055  1.0
  H  H26  1  0.68877960  0.11970846  0.67649430  1.0
  H  H27  1  0.63581768  0.87995161  0.67621573  1.0
  H  H28  1  0.19278553  0.12035215  0.32390538  1.0
  H  H29  1  0.48539047  0.88020036  0.32306659  1.0
  H  H30  1  0.31123491  0.88028217  0.32349851  1.0
  H  H31  1  0.36417709  0.12004781  0.32379267  1.0
  H  H32  1  0.80724237  0.87965547  0.67608662  1.0
  H  H33  1  0.51461312  0.11980434  0.67693664  1.0
  H  H34  1  0.72904344  0.36234141  0.70959845  1.0
  H  H35  1  0.56178622  0.63768977  0.70911350  1.0
  H  H36  1  0.90922987  0.36222584  0.29077924  1.0
  H  H37  1  0.80131040  0.63778605  0.29015968  1.0
  H  H38  1  0.27096371  0.63765742  0.29040254  1.0
  H  H39  1  0.43822033  0.36230848  0.29088420  1.0
  H  H40  1  0.09076783  0.63777651  0.70922930  1.0
  H  H41  1  0.19868722  0.36221103  0.70983798  1.0
  H  H42  1  0.74012180  0.20191826  0.56733033  1.0
  H  H43  1  0.69168895  0.79868329  0.56681289  1.0
  H  H44  1  0.05799948  0.20178835  0.43321876  1.0
  H  H45  1  0.50951983  0.79799891  0.43224575  1.0
  H  H46  1  0.25989675  0.79808057  0.43266450  1.0
  H  H47  1  0.30831137  0.20132199  0.43318924  1.0
  H  H48  1  0.94202826  0.79821577  0.56677896  1.0
  H  H49  1  0.49049708  0.20200227  0.56775484  1.0
  H  H50  1  0.67362243  0.44677518  0.61260793  1.0
  H  H51  1  0.71193189  0.55362143  0.61256112  1.0
  H  H52  1  0.87877089  0.44660040  0.38737045  1.0
  H  H53  1  0.73373926  0.55325274  0.38691868  1.0
  H  H54  1  0.32638235  0.55322424  0.38739576  1.0
  H  H55  1  0.28806539  0.44637974  0.38744160  1.0
  H  H56  1  0.12124022  0.55339668  0.61263416  1.0
  H  H57  1  0.26627812  0.44674141  0.61307930  1.0
  H  H58  1  0.88588591  0.22873222  0.50036046  1.0
  H  H59  1  0.61449695  0.77138446  0.49943874  1.0
  H  H60  1  0.11412508  0.77127072  0.49964173  1.0
  H  H61  1  0.38551855  0.22861438  0.50055348  1.0
  H  H62  1  0.24930506  0.88766955  0.03606724  1.0
  H  H63  1  0.75066858  0.11236208  0.96391213  1.0
  H  H64  1  0.82687722  0.88627637  0.03666722  1.0
  H  H65  1  0.17310391  0.11368496  0.96336122  1.0
  C  C66  1  0.65069041  0.14239018  0.81736066  1.0
  C  C67  1  0.53599537  0.85558100  0.81760824  1.0
  C  C68  1  0.20963664  0.14428109  0.18254741  1.0
  C  C69  1  0.61089875  0.85762085  0.18229700  1.0
  C  C70  1  0.34930188  0.85760924  0.18264189  1.0
  C  C71  1  0.46399570  0.14441666  0.18239599  1.0
  C  C72  1  0.79036226  0.85572536  0.81745244  1.0
  C  C73  1  0.38909824  0.14237564  0.81769635  1.0
  C  C74  1  0.67928123  0.19468627  0.75395542  1.0
  C  C75  1  0.56947316  0.80425963  0.75372716  1.0
  C  C76  1  0.12813127  0.19577252  0.24633712  1.0
  C  C77  1  0.62835882  0.80533883  0.24569834  1.0
  C  C78  1  0.32072830  0.80531022  0.24604059  1.0
  C  C79  1  0.43052868  0.19573510  0.24627310  1.0
  C  C80  1  0.87187443  0.80423511  0.75366447  1.0
  C  C81  1  0.37164279  0.19466176  0.75429698  1.0
  C  C82  1  0.68910654  0.26390433  0.76308460  1.0
  C  C83  1  0.55014029  0.73525282  0.76279515  1.0
  C  C84  1  0.04873285  0.26460861  0.23720594  1.0
  C  C85  1  0.71651949  0.73620755  0.23661696  1.0
  C  C86  1  0.31090637  0.73609158  0.23691452  1.0
  C  C87  1  0.44986064  0.26474249  0.23720735  1.0
  C  C88  1  0.95126899  0.73539667  0.76279724  1.0
  C  C89  1  0.28347929  0.26378659  0.76337415  1.0
  C  C90  1  0.69780370  0.17310263  0.68285351  1.0
  C  C91  1  0.62059283  0.82650179  0.68254729  1.0
  C  C92  1  0.13040099  0.17370822  0.31752852  1.0
  C  C93  1  0.55412813  0.82684373  0.31676790  1.0
  C  C94  1  0.30220215  0.82689269  0.31714488  1.0
  C  C95  1  0.37940609  0.17349880  0.31745297  1.0
  C  C96  1  0.86961913  0.82629355  0.68246892  1.0
  C  C97  1  0.44587433  0.17315803  0.68322697  1.0
  C  C98  1  0.71859130  0.30982432  0.70213150  1.0
  C  C99  1  0.58015013  0.68998862  0.70170423  1.0
  C  C100  1  0.97243441  0.30996765  0.29822820  1.0
  C  C101  1  0.73091053  0.69026731  0.29756225  1.0
  C  C102  1  0.28142027  0.69017276  0.29786735  1.0
  C  C103  1  0.41985392  0.31000904  0.29829640  1.0
  C  C104  1  0.02756903  0.69003704  0.70177202  1.0
  C  C105  1  0.26908722  0.30973210  0.70243193  1.0
  C  C106  1  0.72712415  0.21885863  0.62221019  1.0
  C  C107  1  0.65067611  0.78129979  0.62174941  1.0
  C  C108  1  0.05449179  0.21900047  0.37827004  1.0
  C  C109  1  0.56851224  0.78109957  0.37741840  1.0
  C  C110  1  0.27288032  0.78114079  0.37778697  1.0
  C  C111  1  0.34932050  0.21870256  0.37825130  1.0
  C  C112  1  0.94553401  0.78100306  0.62172685  1.0
  C  C113  1  0.43148756  0.21890336  0.62257917  1.0
  C  C114  1  0.73934242  0.28757892  0.63052440  1.0
  C  C115  1  0.63008691  0.71261827  0.63004270  1.0
  C  C116  1  0.97347071  0.28756575  0.36989563  1.0
  C  C117  1  0.65775598  0.71244930  0.36914315  1.0
  C  C118  1  0.26066597  0.71241875  0.36947536  1.0
  C  C119  1  0.36991389  0.28738290  0.36995738  1.0
  C  C120  1  0.02654259  0.71243367  0.63010281  1.0
  C  C121  1  0.34225307  0.28755071  0.63084889  1.0
  C  C122  1  0.77658224  0.33276900  0.56448977  1.0
  C  C123  1  0.65833643  0.66752867  0.56406436  1.0
  C  C124  1  0.89049764  0.33267465  0.43579626  1.0
  C  C125  1  0.67396297  0.66729764  0.43519216  1.0
  C  C126  1  0.22343179  0.66722925  0.43551169  1.0
  C  C127  1  0.34167058  0.33247426  0.43593092  1.0
  C  C128  1  0.10950833  0.66732653  0.56420473  1.0
  C  C129  1  0.32604345  0.33270529  0.56480586  1.0
  C  C130  1  0.73620912  0.41490315  0.56373014  1.0
  C  C131  1  0.69876383  0.58540061  0.56353433  1.0
  C  C132  1  0.84809982  0.41481285  0.43630201  1.0
  C  C133  1  0.71517822  0.58516775  0.43590469  1.0
  C  C134  1  0.26379895  0.58509803  0.43626917  1.0
  C  C135  1  0.30125162  0.41459998  0.43646018  1.0
  C  C136  1  0.15191205  0.58518540  0.56370013  1.0
  C  C137  1  0.28482727  0.41482991  0.56409548  1.0
  C  C138  1  0.85374674  0.29261203  0.50021100  1.0
  C  C139  1  0.64618334  0.70751744  0.49957809  1.0
  C  C140  1  0.14625994  0.70738914  0.49978977  1.0
  C  C141  1  0.35382493  0.29248432  0.50041596  1.0
  C  C142  1  0.77110125  0.45670922  0.49993896  1.0
  C  C143  1  0.72773184  0.54344814  0.49981009  1.0
  C  C144  1  0.22890585  0.54329079  0.50005829  1.0
  C  C145  1  0.27227729  0.45655069  0.50018670  1.0
  O  O146  1  0.65101190  0.07885698  0.80037710  1.0
  O  O147  1  0.54819370  0.92097966  0.80082055  1.0
  O  O148  1  0.27052414  0.07898638  0.19937725  1.0
  O  O149  1  0.53090814  0.92122981  0.19933146  1.0
  O  O150  1  0.34897532  0.92114243  0.19962603  1.0
  O  O151  1  0.45178796  0.07902209  0.19918244  1.0
  O  O152  1  0.72946370  0.92101303  0.80062364  1.0
  O  O153  1  0.46908559  0.07876492  0.80066729  1.0
  O  O154  1  0.40153268  0.99990651  0.92915019  1.0
  O  O155  1  0.66940400  0.00000070  0.92887585  1.0
  O  O156  1  0.59845094  0.00010228  0.07084494  1.0
  O  O157  1  0.33058264  0.00000383  0.07113384  1.0
  O  O158  1  0.57867770  0.90874384  0.93377954  1.0
  O  O159  1  0.48683175  0.09392351  0.93205525  1.0
  O  O160  1  0.51315930  0.90607707  0.06794852  1.0
  O  O161  1  0.42129988  0.09126553  0.06621793  1.0
  O  O162  1  0.62974588  0.16292059  0.88275930  1.0
  O  O163  1  0.49720064  0.83277721  0.88294504  1.0
  O  O164  1  0.21303019  0.16678588  0.11719725  1.0
  O  O165  1  0.67570318  0.83703024  0.11689373  1.0
  O  O166  1  0.37023178  0.83708351  0.11724612  1.0
  O  O167  1  0.50279330  0.16721752  0.11705824  1.0
  O  O168  1  0.78695918  0.83322233  0.88280534  1.0
  O  O169  1  0.32427871  0.16295511  0.88309545  1.0
  O  O170  1  0.31082743  0.88715464  0.99437860  1.0
  O  O171  1  0.68916572  0.11286118  0.00561444  1.0
  O  O172  1  0.80787894  0.88689857  0.99451837  1.0
  O  O173  1  0.19210295  0.11309265  0.00550204  1.0
  O  O174  1  0.51713990  0.75831011  0.00081365  1.0
  O  O175  1  0.48284127  0.24168755  0.99919780  1.0
  O  O176  1  0.72357432  0.75845109  0.00045047  1.0
  O  O177  1  0.27641204  0.24154774  0.99954384  1.0
