# generated using pymatgen
data_Zr6H17C52S10N2O32F5
_symmetry_space_group_name_H-M   'P 1'
_cell_length_a   16.44836928
_cell_length_b   16.45346192
_cell_length_c   16.46317024
_cell_angle_alpha   119.71947936
_cell_angle_beta   119.72160013
_cell_angle_gamma   88.90564542
_symmetry_Int_Tables_number   1
_chemical_formula_structural   Zr6H17C52S10N2O32F5
_chemical_formula_sum   'Zr6 H17 C52 S10 N2 O32 F5'
_cell_volume   3204.99197596
_cell_formula_units_Z   1
loop_
 _symmetry_equiv_pos_site_id
 _symmetry_equiv_pos_as_xyz
  1  'x, y, z'
loop_
 _atom_site_type_symbol
 _atom_site_label
 _atom_site_symmetry_multiplicity
 _atom_site_fract_x
 _atom_site_fract_y
 _atom_site_fract_z
 _atom_site_occupancy
  Zr  Zr0  1  0.59747589  0.09672608  0.48479735  1.0
  Zr  Zr1  1  0.39813395  0.89736721  0.50963520  1.0
  Zr  Zr2  1  0.60777226  0.10646430  0.70909864  1.0
  Zr  Zr3  1  0.38869612  0.88755989  0.28618061  1.0
  Zr  Zr4  1  0.38934506  0.10634646  0.49783127  1.0
  Zr  Zr5  1  0.60732611  0.88835380  0.49760488  1.0
  H  H6  1  0.57821874  0.24717001  0.65451101  1.0
  H  H7  1  0.24793064  0.91737801  0.34050169  1.0
  H  H8  1  0.59012251  0.91838804  0.67308124  1.0
  H  H9  1  0.57678621  0.90508408  0.32143820  1.0
  H  H10  1  0.36164952  0.38707659  0.48632574  1.0
  H  H11  1  0.89971820  0.87375692  0.51138352  1.0
  H  H12  1  0.11856040  0.87575586  0.98542482  1.0
  H  H13  1  0.36227853  0.60199350  0.98575063  1.0
  H  H14  1  0.87155379  0.35727090  0.96764918  1.0
  H  H15  1  0.85008846  0.34514082  0.69208582  1.0
  H  H16  1  0.13713981  0.62327527  0.02613766  1.0
  H  H17  1  0.14926095  0.64548474  0.30205406  1.0
  H  H18  1  0.60972752  0.12372082  0.23153564  1.0
  H  H19  1  0.92503134  0.44839905  0.12899429  1.0
  H  H20  1  0.02048969  0.53611470  0.26184853  1.0
  H  H21  1  0.04296107  0.57139230  0.86490655  1.0
  H  H22  1  0.95849419  0.47430522  0.73247009  1.0
  C  C23  1  0.48436743  0.26022941  0.47791018  1.0
  C  C24  1  0.23555438  0.01202556  0.51740985  1.0
  C  C25  1  0.50507797  0.72730342  0.50238849  1.0
  C  C26  1  0.76810556  0.99103956  0.49210272  1.0
  C  C27  1  0.76656613  0.25806823  0.74511328  1.0
  C  C28  1  0.48519330  0.99264408  0.21636351  1.0
  C  C29  1  0.23633060  0.72876960  0.24883156  1.0
  C  C30  1  0.50132955  0.00865337  0.77698518  1.0
  C  C31  1  0.49709002  0.26943583  0.76891529  1.0
  C  C32  1  0.77798495  0.00287233  0.76792878  1.0
  C  C33  1  0.49313422  0.71761751  0.22703120  1.0
  C  C34  1  0.22627535  0.99957258  0.22666962  1.0
  C  C35  1  0.56219258  0.57653383  0.48857006  1.0
  C  C36  1  0.42307076  0.40616397  0.48404182  1.0
  C  C37  1  0.50108422  0.63524425  0.49560466  1.0
  C  C38  1  0.48578181  0.34964053  0.47827733  1.0
  C  C39  1  0.45110807  0.48882219  0.48725527  1.0
  C  C40  1  0.53485305  0.49280483  0.48374080  1.0
  C  C41  1  0.08831416  0.07296619  0.51129188  1.0
  C  C42  1  0.91887017  0.93507501  0.50899157  1.0
  C  C43  1  0.14706564  0.01190053  0.51830093  1.0
  C  C44  1  0.86103668  0.99627266  0.50013668  1.0
  C  C45  1  0.00219627  0.96373708  0.51356488  1.0
  C  C46  1  0.00541252  0.04656762  0.50833181  1.0
  C  C47  1  0.91721293  0.06963616  0.97367473  1.0
  C  C48  1  0.09353369  0.93730534  0.02188892  1.0
  C  C49  1  0.86766339  0.00443280  0.85736906  1.0
  C  C50  1  0.14035906  0.00263210  0.13736021  1.0
  C  C51  1  0.01223883  0.96228929  0.96241152  1.0
  C  C52  1  0.99948283  0.04674702  0.03472182  1.0
  C  C53  1  0.56099885  0.40576608  0.97483733  1.0
  C  C54  1  0.42507319  0.57840443  0.02254638  1.0
  C  C55  1  0.49506618  0.35529481  0.85856759  1.0
  C  C56  1  0.49257456  0.62777457  0.13798286  1.0
  C  C57  1  0.45016141  0.49705850  0.96332446  1.0
  C  C58  1  0.53668776  0.48658370  0.03577406  1.0
  C  C59  1  0.90089691  0.39007606  0.94056904  1.0
  C  C60  1  0.88914997  0.38200701  0.78322642  1.0
  C  C61  1  0.97039904  0.46425538  0.85636234  1.0
  C  C62  1  0.02047403  0.51186664  0.97641336  1.0
  C  C63  1  0.10434359  0.59423521  0.05342783  1.0
  C  C64  1  0.11238605  0.60634518  0.21090093  1.0
  C  C65  1  0.03039803  0.52463867  0.13784320  1.0
  C  C66  1  0.98298509  0.47428192  0.01770221  1.0
  C  C67  1  0.85497609  0.34493323  0.82534641  1.0
  C  C68  1  0.14932678  0.64046308  0.16867882  1.0
  C  C69  1  0.42962103  0.94302952  0.84756071  1.0
  C  C70  1  0.55033630  0.06464341  0.14712644  1.0
  C  C71  1  0.49642742  0.00908043  0.86360181  1.0
  C  C72  1  0.48391731  0.99659258  0.12851136  1.0
  C  C73  1  0.52990472  0.04509149  0.04415721  1.0
  C  C74  1  0.44769070  0.96231831  0.94938699  1.0
  S  S75  1  0.40791501  0.58727529  0.49606323  1.0
  S  S76  1  0.57889190  0.39543519  0.47624885  1.0
  S  S77  1  0.10069810  0.92054352  0.52231912  1.0
  S  S78  1  0.90683352  0.08923793  0.49804429  1.0
  S  S79  1  0.92324245  0.91313460  0.82177067  1.0
  S  S80  1  0.08694664  0.09531854  0.17501291  1.0
  S  S81  1  0.40066453  0.40752044  0.82279437  1.0
  S  S82  1  0.58675370  0.57594100  0.17595900  1.0
  S  S83  1  0.58281098  0.09722267  0.00625555  1.0
  S  S84  1  0.39573054  0.90882176  0.98652529  1.0
  N  N85  1  0.99608291  0.48972417  0.17958906  1.0
  N  N86  1  0.00553418  0.49906554  0.81483446  1.0
  O  O87  1  0.55196257  0.22216595  0.47399752  1.0
  O  O88  1  0.27260167  0.94365166  0.52032531  1.0
  O  O89  1  0.43868786  0.76613553  0.50924596  1.0
  O  O90  1  0.72816176  0.05645124  0.48397463  1.0
  O  O91  1  0.73502828  0.22737428  0.78512460  1.0
  O  O92  1  0.41931079  0.92405764  0.18533701  1.0
  O  O93  1  0.26707450  0.76028052  0.20871536  1.0
  O  O94  1  0.57005033  0.07498563  0.80891579  1.0
  O  O95  1  0.42771124  0.23705402  0.66696662  1.0
  O  O96  1  0.74388681  0.93212594  0.66596136  1.0
  O  O97  1  0.56401539  0.75270886  0.32909246  1.0
  O  O98  1  0.25924089  0.06851121  0.32879726  1.0
  O  O99  1  0.74055305  0.07153526  0.79963115  1.0
  O  O100  1  0.42345026  0.75374317  0.19421685  1.0
  O  O101  1  0.25958497  0.92724165  0.19403321  1.0
  O  O102  1  0.56865007  0.23490993  0.80021280  1.0
  O  O103  1  0.72625477  0.22053156  0.63970250  1.0
  O  O104  1  0.43559298  0.93917175  0.67508479  1.0
  O  O105  1  0.27408187  0.76897296  0.35416662  1.0
  O  O106  1  0.55488380  0.05894340  0.31779173  1.0
  O  O107  1  0.73477200  0.92196526  0.49276487  1.0
  O  O108  1  0.41802536  0.22947900  0.48390573  1.0
  O  O109  1  0.26708996  0.07803505  0.51143423  1.0
  O  O110  1  0.57395017  0.76146990  0.50193310  1.0
  O  O111  1  0.55381837  0.93017767  0.37081703  1.0
  O  O112  1  0.56502310  0.94123075  0.62357831  1.0
  O  O113  1  0.31901031  0.94114475  0.38551654  1.0
  O  O114  1  0.55418501  0.17611303  0.60899096  1.0
  O  O115  1  0.45704951  0.04656001  0.59027754  1.0
  O  O116  1  0.44828984  0.03823290  0.40399396  1.0
  O  O117  1  0.45702087  0.86529026  0.41498548  1.0
  O  O118  1  0.62980888  0.03819064  0.57946720  1.0
  F  F119  1  0.64029788  0.59604778  0.48701658  1.0
  F  F120  1  0.10627759  0.14928213  0.50641123  1.0
  F  F121  1  0.89073249  0.14697460  0.02553500  1.0
  F  F122  1  0.64119654  0.38220475  0.02679371  1.0
  F  F123  1  0.35498813  0.86703972  0.74655114  1.0
