# generated using pymatgen
data_ZnH9C16NO4
_symmetry_space_group_name_H-M   'P 1'
_cell_length_a   18.48387059
_cell_length_b   20.67759611
_cell_length_c   20.67756277
_cell_angle_alpha   71.81372278
_cell_angle_beta   63.45248280
_cell_angle_gamma   63.45266918
_symmetry_Int_Tables_number   1
_chemical_formula_structural   ZnH9C16NO4
_chemical_formula_sum   'Zn8 H72 C128 N8 O32'
_cell_volume   6261.70719457
_cell_formula_units_Z   8
loop_
 _symmetry_equiv_pos_site_id
 _symmetry_equiv_pos_as_xyz
  1  'x, y, z'
loop_
 _atom_site_type_symbol
 _atom_site_label
 _atom_site_symmetry_multiplicity
 _atom_site_fract_x
 _atom_site_fract_y
 _atom_site_fract_z
 _atom_site_occupancy
  Zn  Zn0  1  0.94513251  0.36851836  0.73004081  1.0
  Zn  Zn1  1  0.54366821  0.13154677  0.76995841  1.0
  Zn  Zn2  1  0.45632757  0.23004410  0.86845566  1.0
  Zn  Zn3  1  0.05486889  0.26995825  0.63148114  1.0
  Zn  Zn4  1  0.05486953  0.63148003  0.26995749  1.0
  Zn  Zn5  1  0.45633047  0.86845383  0.23004296  1.0
  Zn  Zn6  1  0.54367125  0.76995758  0.13154385  1.0
  Zn  Zn7  1  0.94513087  0.73004125  0.36851821  1.0
  H  H8  1  0.46399134  0.98713086  0.98712825  1.0
  H  H9  1  0.93805515  0.51297466  0.51297559  1.0
  H  H10  1  0.06194544  0.48702430  0.48702505  1.0
  H  H11  1  0.53600786  0.01287138  0.01287239  1.0
  H  H12  1  0.10361991  0.16080169  0.99759241  1.0
  H  H13  1  0.76204123  0.33903697  0.50232872  1.0
  H  H14  1  0.23795733  0.49767398  0.66096001  1.0
  H  H15  1  0.89637996  0.00240730  0.83919956  1.0
  H  H16  1  0.89637877  0.83919891  0.00240799  1.0
  H  H17  1  0.23795839  0.66096145  0.49767248  1.0
  H  H18  1  0.76204005  0.50232826  0.33903990  1.0
  H  H19  1  0.10362017  0.99759276  0.16080140  1.0
  H  H20  1  0.26080660  0.16101213  0.72994816  1.0
  H  H21  1  0.65180177  0.33904693  0.76993235  1.0
  H  H22  1  0.34819839  0.23006749  0.66095304  1.0
  H  H23  1  0.73919357  0.27005263  0.83898680  1.0
  H  H24  1  0.73919339  0.83898683  0.27005175  1.0
  H  H25  1  0.34819761  0.66095202  0.23006733  1.0
  H  H26  1  0.65180150  0.76993312  0.33904880  1.0
  H  H27  1  0.26080609  0.72994852  0.16101399  1.0
  H  H28  1  0.02718685  0.23937414  0.91135341  1.0
  H  H29  1  0.67790416  0.26051318  0.58868099  1.0
  H  H30  1  0.32209421  0.41131895  0.73948419  1.0
  H  H31  1  0.97281348  0.08864638  0.76062550  1.0
  H  H32  1  0.97281351  0.76062536  0.08864618  1.0
  H  H33  1  0.32209546  0.73948522  0.41131828  1.0
  H  H34  1  0.67790377  0.58868328  0.26051548  1.0
  H  H35  1  0.02718665  0.91135367  0.23937497  1.0
  H  H36  1  0.33931844  0.08526751  0.81500978  1.0
  H  H37  1  0.73973748  0.41468812  0.68480691  1.0
  H  H38  1  0.26026238  0.31519336  0.58531074  1.0
  H  H39  1  0.66068236  0.18499114  0.91473183  1.0
  H  H40  1  0.66068155  0.91473145  0.18499110  1.0
  H  H41  1  0.26026130  0.58531084  0.31519397  1.0
  H  H42  1  0.73973774  0.68480670  0.41469070  1.0
  H  H43  1  0.33931776  0.81500891  0.08526865  1.0
  H  H44  1  0.16608873  0.02413287  0.02413050  1.0
  H  H45  1  0.71459337  0.47560774  0.47560887  1.0
  H  H46  1  0.28540601  0.52439121  0.52439128  1.0
  H  H47  1  0.83391177  0.97586772  0.97586965  1.0
  H  H48  1  0.90817203  0.36749863  0.88440647  1.0
  H  H49  1  0.66002639  0.13255064  0.61571027  1.0
  H  H50  1  0.33997404  0.38428910  0.86744721  1.0
  H  H51  1  0.09182898  0.11559292  0.63250177  1.0
  H  H52  1  0.09182870  0.63250141  0.11559329  1.0
  H  H53  1  0.33997383  0.86744777  0.38429021  1.0
  H  H54  1  0.66002693  0.61571038  0.13255069  1.0
  H  H55  1  0.90817268  0.88440495  0.36749879  1.0
  H  H56  1  0.72711509  0.61563771  0.81266252  1.0
  H  H57  1  0.65518645  0.88446461  0.68733469  1.0
  H  H58  1  0.34481432  0.31266711  0.11553252  1.0
  H  H59  1  0.27288502  0.18733696  0.38436215  1.0
  H  H60  1  0.27288673  0.38436122  0.18733377  1.0
  H  H61  1  0.34481414  0.11553436  0.31266643  1.0
  H  H62  1  0.65518581  0.68733292  0.88446554  1.0
  H  H63  1  0.72711497  0.81266200  0.61563824  1.0
  H  H64  1  0.81825950  0.45164551  0.97784777  1.0
  H  H65  1  0.74772269  0.04840959  0.52224759  1.0
  H  H66  1  0.25227738  0.47775415  0.95158849  1.0
  H  H67  1  0.18174169  0.02215081  0.54835488  1.0
  H  H68  1  0.18173993  0.54835617  0.02215150  1.0
  H  H69  1  0.25227692  0.95158882  0.47775265  1.0
  H  H70  1  0.74772326  0.52224753  0.04841030  1.0
  H  H71  1  0.81826081  0.97784651  0.45164551  1.0
  H  H72  1  0.82000989  0.52277903  0.72762983  1.0
  H  H73  1  0.57027823  0.97729100  0.77242222  1.0
  H  H74  1  0.42972302  0.22757770  0.02270679  1.0
  H  H75  1  0.17999187  0.27236861  0.47721989  1.0
  H  H76  1  0.17999421  0.47721881  0.27236686  1.0
  H  H77  1  0.42972199  0.02270742  0.22757825  1.0
  H  H78  1  0.57027818  0.77242125  0.97729216  1.0
  H  H79  1  0.82000859  0.72762925  0.52278019  1.0
  C  C80  1  0.40408985  0.10180888  0.89900724  1.0
  C  C81  1  0.90485738  0.39819654  0.60097123  1.0
  C  C82  1  0.09514374  0.39902676  0.60180198  1.0
  C  C83  1  0.59590256  0.10099850  0.89820164  1.0
  C  C84  1  0.59590580  0.89819885  0.10099693  1.0
  C  C85  1  0.09514424  0.60179858  0.39902732  1.0
  C  C86  1  0.90486200  0.60096722  0.39819045  1.0
  C  C87  1  0.40409491  0.89900211  0.10180021  1.0
  C  C88  1  0.35545469  0.05348234  0.95289619  1.0
  C  C89  1  0.86178505  0.44650581  0.54707532  1.0
  C  C90  1  0.13821426  0.45292487  0.55349426  1.0
  C  C91  1  0.64454310  0.04710787  0.94652285  1.0
  C  C92  1  0.64454333  0.94652265  0.04710694  1.0
  C  C93  1  0.13821303  0.55349480  0.45292676  1.0
  C  C94  1  0.86178787  0.54707190  0.44650501  1.0
  C  C95  1  0.35545694  0.95289381  0.05347666  1.0
  C  C96  1  0.39724833  0.99680222  0.99680047  1.0
  C  C97  1  0.89072634  0.50324387  0.50324388  1.0
  C  C98  1  0.10927402  0.49675563  0.49675619  1.0
  C  C99  1  0.60274895  0.00320167  0.00320137  1.0
  C  C100  1  0.13834858  0.16101644  0.93880068  1.0
  C  C101  1  0.73819848  0.33887468  0.56110533  1.0
  C  C102  1  0.26179892  0.43889580  0.66112210  1.0
  C  C103  1  0.86165097  0.06120027  0.83898533  1.0
  C  C104  1  0.86165071  0.83898416  0.06119996  1.0
  C  C105  1  0.26179969  0.66112428  0.43889531  1.0
  C  C106  1  0.73819907  0.56110643  0.33887709  1.0
  C  C107  1  0.13834930  0.93880087  0.16101474  1.0
  C  C108  1  0.09108817  0.24860854  0.76427765  1.0
  C  C109  1  0.60391121  0.25146787  0.73569291  1.0
  C  C110  1  0.39608122  0.26432310  0.74853696  1.0
  C  C111  1  0.90891420  0.23572179  0.75139055  1.0
  C  C112  1  0.90891447  0.75138986  0.23572138  1.0
  C  C113  1  0.39608616  0.74853440  0.26431231  1.0
  C  C114  1  0.60391467  0.73568408  0.25146633  1.0
  C  C115  1  0.09108905  0.76427662  0.24860920  1.0
  C  C116  1  0.76361482  0.54271886  0.90424802  1.0
  C  C117  1  0.71045280  0.95735418  0.59581476  1.0
  C  C118  1  0.28954872  0.40418717  0.04264153  1.0
  C  C119  1  0.23638633  0.09575125  0.45728094  1.0
  C  C120  1  0.23638698  0.45728009  0.09575068  1.0
  C  C121  1  0.28954910  0.04264314  0.40418588  1.0
  C  C122  1  0.71045216  0.59581395  0.95735589  1.0
  C  C123  1  0.76361450  0.90424716  0.54271930  1.0
  C  C124  1  0.13909774  0.20474200  0.81520111  1.0
  C  C125  1  0.65904424  0.29526237  0.68473758  1.0
  C  C126  1  0.34095205  0.31526240  0.70473738  1.0
  C  C127  1  0.86090347  0.18479850  0.79525761  1.0
  C  C128  1  0.86090276  0.79525859  0.18479807  1.0
  C  C129  1  0.34095240  0.70473876  0.31526104  1.0
  C  C130  1  0.65904593  0.68473984  0.29526325  1.0
  C  C131  1  0.13909619  0.81520264  0.20474222  1.0
  C  C132  1  0.22723558  0.16138474  0.78863316  1.0
  C  C133  1  0.67731270  0.33862079  0.71126183  1.0
  C  C134  1  0.32268455  0.28874042  0.66138045  1.0
  C  C135  1  0.77276608  0.21136709  0.83861443  1.0
  C  C136  1  0.77276478  0.83861477  0.21136691  1.0
  C  C137  1  0.32268393  0.66138036  0.28873921  1.0
  C  C138  1  0.67731450  0.71126074  0.33862156  1.0
  C  C139  1  0.22723405  0.78863296  0.16138556  1.0
  C  C140  1  0.09553257  0.20505806  0.89080736  1.0
  C  C141  1  0.69140369  0.29487481  0.60915620  1.0
  C  C142  1  0.30859348  0.39084705  0.70512431  1.0
  C  C143  1  0.90446763  0.10919210  0.79494233  1.0
  C  C144  1  0.90446755  0.79494199  0.10919264  1.0
  C  C145  1  0.30859317  0.70512580  0.39084540  1.0
  C  C146  1  0.69140511  0.60915519  0.29487657  1.0
  C  C147  1  0.09553250  0.89080794  0.20505766  1.0
  C  C148  1  0.22651574  0.11679936  0.91244894  1.0
  C  C149  1  0.75586105  0.38309291  0.58741387  1.0
  C  C150  1  0.24413847  0.41258736  0.61690580  1.0
  C  C151  1  0.77348472  0.08755151  0.88320254  1.0
  C  C152  1  0.77348369  0.88320233  0.08755178  1.0
  C  C153  1  0.24413810  0.61690660  0.41258717  1.0
  C  C154  1  0.75586081  0.58741324  0.38309532  1.0
  C  C155  1  0.22651602  0.91244854  0.11679721  1.0
  C  C156  1  0.27034651  0.06466557  0.96305641  1.0
  C  C157  1  0.79818045  0.43519780  0.53678839  1.0
  C  C158  1  0.20181825  0.46321211  0.56480108  1.0
  C  C159  1  0.72965107  0.03694590  0.93533758  1.0
  C  C160  1  0.72965184  0.93533722  0.03694535  1.0
  C  C161  1  0.20181810  0.56480170  0.46321241  1.0
  C  C162  1  0.79818114  0.53678684  0.43519907  1.0
  C  C163  1  0.27034822  0.96305470  0.06466257  1.0
  C  C164  1  0.27075018  0.11888632  0.83648942  1.0
  C  C165  1  0.72623955  0.38105516  0.66335803  1.0
  C  C166  1  0.27376005  0.33664131  0.61894357  1.0
  C  C167  1  0.72925035  0.16351179  0.88111440  1.0
  C  C168  1  0.72924873  0.88111373  0.16351106  1.0
  C  C169  1  0.27375923  0.61894379  0.33664140  1.0
  C  C170  1  0.72623924  0.66335930  0.38105803  1.0
  C  C171  1  0.27074992  0.83648935  0.11888519  1.0
  C  C172  1  0.22980757  0.01892227  0.01892171  1.0
  C  C173  1  0.76784651  0.48086130  0.48086282  1.0
  C  C174  1  0.23215264  0.51913821  0.51913823  1.0
  C  C175  1  0.77019269  0.98107888  0.98107836  1.0
  C  C176  1  0.86601528  0.42312493  0.87198510  1.0
  C  C177  1  0.66101234  0.07694005  0.62808967  1.0
  C  C178  1  0.33898842  0.37191189  0.92305700  1.0
  C  C179  1  0.13398596  0.12801409  0.57687457  1.0
  C  C180  1  0.13398532  0.57687403  0.12801505  1.0
  C  C181  1  0.33898788  0.92305836  0.37191032  1.0
  C  C182  1  0.66101344  0.62808978  0.07694082  1.0
  C  C183  1  0.86601487  0.87198432  0.42312518  1.0
  C  C184  1  0.76539222  0.56146432  0.83223090  1.0
  C  C185  1  0.65887780  0.93864287  0.66778286  1.0
  C  C186  1  0.34112459  0.33221825  0.06135484  1.0
  C  C187  1  0.23460917  0.16776846  0.43853480  1.0
  C  C188  1  0.23460913  0.43853569  0.16776523  1.0
  C  C189  1  0.34112363  0.06135555  0.33221858  1.0
  C  C190  1  0.65887759  0.66778124  0.93864355  1.0
  C  C191  1  0.76539226  0.83222994  0.56146471  1.0
  C  C192  1  0.81562856  0.47111912  0.92333448  1.0
  C  C193  1  0.70998999  0.02896432  0.57672611  1.0
  C  C194  1  0.29001109  0.42327531  0.97103441  1.0
  C  C195  1  0.18437262  0.07666422  0.52888122  1.0
  C  C196  1  0.18437149  0.52888254  0.07666262  1.0
  C  C197  1  0.29001060  0.97103465  0.42327501  1.0
  C  C198  1  0.70999086  0.57672472  0.02896389  1.0
  C  C199  1  0.81562844  0.92333364  0.47111862  1.0
  C  C200  1  0.81712148  0.51041320  0.78385374  1.0
  C  C201  1  0.61120940  0.98965983  0.71618985  1.0
  C  C202  1  0.38879139  0.28381228  0.01033704  1.0
  C  C203  1  0.18287955  0.21614514  0.48958682  1.0
  C  C204  1  0.18288032  0.48958575  0.21614497  1.0
  C  C205  1  0.38879082  0.01033858  0.28381063  1.0
  C  C206  1  0.61120949  0.71618884  0.98966086  1.0
  C  C207  1  0.81712067  0.78385327  0.51041366  1.0
  N  N208  1  0.86686370  0.44241128  0.80333372  1.0
  N  N209  1  0.61249602  0.05765363  0.69671742  1.0
  N  N210  1  0.38750339  0.30328366  0.94234688  1.0
  N  N211  1  0.13313786  0.19666465  0.55758859  1.0
  N  N212  1  0.13313741  0.55758929  0.19666329  1.0
  N  N213  1  0.38750313  0.94234587  0.30328314  1.0
  N  N214  1  0.61249795  0.69671639  0.05765312  1.0
  N  N215  1  0.86686283  0.80333267  0.44241156  1.0
  O  O216  1  0.47367452  0.07105162  0.84834516  1.0
  O  O217  1  0.89283641  0.42894194  0.65172724  1.0
  O  O218  1  0.10716600  0.34827097  0.57105641  1.0
  O  O219  1  0.52631976  0.15165381  0.92895744  1.0
  O  O220  1  0.52632137  0.92895556  0.15165716  1.0
  O  O221  1  0.10716380  0.57105649  0.34827566  1.0
  O  O222  1  0.89283568  0.65172685  0.42893787  1.0
  O  O223  1  0.47368069  0.84834404  0.07104118  1.0
  O  O224  1  0.37567150  0.16714420  0.90990759  1.0
  O  O225  1  0.95286519  0.33292511  0.58996988  1.0
  O  O226  1  0.04713585  0.41002814  0.66707403  1.0
  O  O227  1  0.62432349  0.09009753  0.83286023  1.0
  O  O228  1  0.62432532  0.83286080  0.09009651  1.0
  O  O229  1  0.04713121  0.66707658  0.41003060  1.0
  O  O230  1  0.95286875  0.58996425  0.33292468  1.0
  O  O231  1  0.37567516  0.90990032  0.16713816  1.0
  O  O232  1  0.01559909  0.29580244  0.79149162  1.0
  O  O233  1  0.60282208  0.20426130  0.70848330  1.0
  O  O234  1  0.39717537  0.29152184  0.79573391  1.0
  O  O235  1  0.98440224  0.20850790  0.70419651  1.0
  O  O236  1  0.98440081  0.70419815  0.20850781  1.0
  O  O237  1  0.39717693  0.79573712  0.29151718  1.0
  O  O238  1  0.60282448  0.70848311  0.20426415  1.0
  O  O239  1  0.01559751  0.79149162  0.29580622  1.0
  O  O240  1  0.12686261  0.23576237  0.69855083  1.0
  O  O241  1  0.56109622  0.26435254  0.80138771  1.0
  O  O242  1  0.43890890  0.19861145  0.73564552  1.0
  O  O243  1  0.87313870  0.30144846  0.76423814  1.0
  O  O244  1  0.87313836  0.76423714  0.30144996  1.0
  O  O245  1  0.43890824  0.73564586  0.19861059  1.0
  O  O246  1  0.56109053  0.80139025  0.26435665  1.0
  O  O247  1  0.12685989  0.69855378  0.23576225  1.0
