# generated using pymatgen
data_ZnH19C32SNO7
_symmetry_space_group_name_H-M   'P 1'
_cell_length_a   12.69794018
_cell_length_b   13.65635700
_cell_length_c   17.16302131
_cell_angle_alpha   89.32940957
_cell_angle_beta   87.25997251
_cell_angle_gamma   85.67551584
_symmetry_Int_Tables_number   1
_chemical_formula_structural   ZnH19C32SNO7
_chemical_formula_sum   'Zn2 H38 C64 S2 N2 O14'
_cell_volume   2964.23423727
_cell_formula_units_Z   2
loop_
 _symmetry_equiv_pos_site_id
 _symmetry_equiv_pos_as_xyz
  1  'x, y, z'
loop_
 _atom_site_type_symbol
 _atom_site_label
 _atom_site_symmetry_multiplicity
 _atom_site_fract_x
 _atom_site_fract_y
 _atom_site_fract_z
 _atom_site_occupancy
  Zn  Zn0  1  0.39223252  0.48391250  0.50003178  1.0
  Zn  Zn1  1  0.61013693  0.50480287  0.50505324  1.0
  H  H2  1  0.68012895  0.47571750  0.25548791  1.0
  H  H3  1  0.31839240  0.57962360  0.73794496  1.0
  H  H4  1  0.62482893  0.55873059  0.99738695  1.0
  H  H5  1  0.38225995  0.58944895  0.00538788  1.0
  H  H6  1  0.31600194  0.61831771  0.88031932  1.0
  H  H7  1  0.69346926  0.50322864  0.11101528  1.0
  H  H8  1  0.74952435  0.48295047  0.73117960  1.0
  H  H9  1  0.88218750  0.36315270  0.66760326  1.0
  H  H10  1  0.83631952  0.19213626  0.64380366  1.0
  H  H11  1  0.65783616  0.14133053  0.68671163  1.0
  H  H12  1  0.52672849  0.26095660  0.75228275  1.0
  H  H13  1  0.43249044  0.79526123  0.29897474  1.0
  H  H14  1  0.27768152  0.87912530  0.37126480  1.0
  H  H15  1  0.11136877  0.79520104  0.39224449  1.0
  H  H16  1  0.10103137  0.62621105  0.34073381  1.0
  H  H17  1  0.25788232  0.54082456  0.27228994  1.0
  H  H18  1  0.24231318  0.63451692  0.13678688  1.0
  H  H19  1  0.12628418  0.76274818  0.07362155  1.0
  H  H20  1  0.20115148  0.91371915  0.01833233  1.0
  H  H21  1  0.39384264  0.93432949  0.02638297  1.0
  H  H22  1  0.51014600  0.80433274  0.08811004  1.0
  H  H23  1  0.49762852  0.33448868  0.97396465  1.0
  H  H24  1  0.61756314  0.23948964  0.06209129  1.0
  H  H25  1  0.81015789  0.26491914  0.05624941  1.0
  H  H26  1  0.88162052  0.38443125  0.96020876  1.0
  H  H27  1  0.76161974  0.47822193  0.87196250  1.0
  H  H28  1  0.27488262  0.95455766  0.55697035  1.0
  H  H29  1  0.10528557  0.05686996  0.54938057  1.0
  H  H30  1  0.08938663  0.19589661  0.45473559  1.0
  H  H31  1  0.24827083  0.23311516  0.36840503  1.0
  H  H32  1  0.41575576  0.13333669  0.37795033  1.0
  H  H33  1  0.72712756  0.03935929  0.55661441  1.0
  H  H34  1  0.89629543  0.93472541  0.55814713  1.0
  H  H35  1  0.92470944  0.78837493  0.47239878  1.0
  H  H36  1  0.78166275  0.74592136  0.38614907  1.0
  H  H37  1  0.61270449  0.84833732  0.38671531  1.0
  H  H38  1  0.86751308  0.66558903  0.64994204  1.0
  H  H39  1  0.12836620  0.34236841  0.34184123  1.0
  C  C40  1  0.45868359  0.68210339  0.50592586  1.0
  C  C41  1  0.54932197  0.30835102  0.49443942  1.0
  C  C42  1  0.56541191  0.20322414  0.48786611  1.0
  C  C43  1  0.44433320  0.78754767  0.50100002  1.0
  C  C44  1  0.55738159  0.01285172  0.47388025  1.0
  C  C45  1  0.45786724  0.97606876  0.47538508  1.0
  C  C46  1  0.44984663  0.87513744  0.48840988  1.0
  C  C47  1  0.56399460  0.11473827  0.47969922  1.0
  C  C48  1  0.03686246  0.48047903  0.47229324  1.0
  C  C49  1  0.96473479  0.52312852  0.52692478  1.0
  C  C50  1  0.85577581  0.52621094  0.51918062  1.0
  C  C51  1  0.14576116  0.47338444  0.48105050  1.0
  C  C52  1  0.47547080  0.48746196  0.65245223  1.0
  C  C53  1  0.51945518  0.52148364  0.35352789  1.0
  C  C54  1  0.46812015  0.49474763  0.73955394  1.0
  C  C55  1  0.52665568  0.55239786  0.26946679  1.0
  C  C56  1  0.54876610  0.45082693  0.78524783  1.0
  C  C57  1  0.44731491  0.61422820  0.23434494  1.0
  C  C58  1  0.54600322  0.46936258  0.86579546  1.0
  C  C59  1  0.45758424  0.63501782  0.15377449  1.0
  C  C60  1  0.46442841  0.53589480  0.89941445  1.0
  C  C61  1  0.54298689  0.58798809  0.10813903  1.0
  C  C62  1  0.38069440  0.57147303  0.85316812  1.0
  C  C63  1  0.62592324  0.53541242  0.14610863  1.0
  C  C64  1  0.38203090  0.55099605  0.77425040  1.0
  C  C65  1  0.61783139  0.51818049  0.22562772  1.0
  C  C66  1  0.46116650  0.56902213  0.97972401  1.0
  C  C67  1  0.54610146  0.57660604  0.02400921  1.0
  C  C68  1  0.63019363  0.37943719  0.74769905  1.0
  C  C69  1  0.73046154  0.40737030  0.72301941  1.0
  C  C70  1  0.80432127  0.34029512  0.68627999  1.0
  C  C71  1  0.77880435  0.24425087  0.67325024  1.0
  C  C72  1  0.67898027  0.21586426  0.69720704  1.0
  C  C73  1  0.60502887  0.28310345  0.73414045  1.0
  C  C74  1  0.35533181  0.66256950  0.28056845  1.0
  C  C75  1  0.35992842  0.75789091  0.30865015  1.0
  C  C76  1  0.27264651  0.80529240  0.34894070  1.0
  C  C77  1  0.17951903  0.75809336  0.36095639  1.0
  C  C78  1  0.17417832  0.66303671  0.33272118  1.0
  C  C79  1  0.26155245  0.61551492  0.29325769  1.0
  C  C80  1  0.38441911  0.71019672  0.11658774  1.0
  C  C81  1  0.27572328  0.69997693  0.11233954  1.0
  C  C82  1  0.21046077  0.77237732  0.07678701  1.0
  C  C83  1  0.25241978  0.85693645  0.04568329  1.0
  C  C84  1  0.36038574  0.86831773  0.05004177  1.0
  C  C85  1  0.42584061  0.79527990  0.08472299  1.0
  C  C86  1  0.62129568  0.41282424  0.91669032  1.0
  C  C87  1  0.58206801  0.34499349  0.97084578  1.0
  C  C88  1  0.64945949  0.29185269  0.02046156  1.0
  C  C89  1  0.75748002  0.30593439  0.01713039  1.0
  C  C90  1  0.79746194  0.37287198  0.96329387  1.0
  C  C91  1  0.73002446  0.42545584  0.91325172  1.0
  C  C92  1  0.35763471  0.03805191  0.46928765  1.0
  C  C93  1  0.26836253  0.01647017  0.51631651  1.0
  C  C94  1  0.17323552  0.07366393  0.51162385  1.0
  C  C95  1  0.16453008  0.15219053  0.45870732  1.0
  C  C96  1  0.25240513  0.17271763  0.41083442  1.0
  C  C97  1  0.34819843  0.11667369  0.41590091  1.0
  C  C98  1  0.65763034  0.94981913  0.47294945  1.0
  C  C99  1  0.73927592  0.97416412  0.52014243  1.0
  C  C100  1  0.83400053  0.91556855  0.52069482  1.0
  C  C101  1  0.84968818  0.83304622  0.47272873  1.0
  C  C102  1  0.76979893  0.80937662  0.42445184  1.0
  C  C103  1  0.67436321  0.86701322  0.42473697  1.0
  S  S104  1  0.00970989  0.58153370  0.61209931  1.0
  S  S105  1  0.98973221  0.42652871  0.38586046  1.0
  N  N106  1  0.23697022  0.46469713  0.48712392  1.0
  N  N107  1  0.76433122  0.52954049  0.51480485  1.0
  O  O108  1  0.37856473  0.63335694  0.52092127  1.0
  O  O109  1  0.62724506  0.35554644  0.51232072  1.0
  O  O110  1  0.55435255  0.64863568  0.49293787  1.0
  O  O111  1  0.45583876  0.34325947  0.48106359  1.0
  O  O112  1  0.39583924  0.46109142  0.61823156  1.0
  O  O113  1  0.60656708  0.50013597  0.38596745  1.0
  O  O114  1  0.56133288  0.51365378  0.62019107  1.0
  O  O115  1  0.42751013  0.51683570  0.38556154  1.0
  O  O116  1  0.07272664  0.50920241  0.65349335  1.0
  O  O117  1  0.04705615  0.67397497  0.58707312  1.0
  O  O118  1  0.90086845  0.60050354  0.66265442  1.0
  O  O119  1  0.95207101  0.33315414  0.40791936  1.0
  O  O120  1  0.92602935  0.50157258  0.34775958  1.0
  O  O121  1  0.09721595  0.40951088  0.33351700  1.0
