# generated using pymatgen
data_AlH8C16O5F
_symmetry_space_group_name_H-M   'P 1'
_cell_length_a   6.62389099
_cell_length_b   15.19867762
_cell_length_c   15.31664239
_cell_angle_alpha   88.58310516
_cell_angle_beta   78.46536637
_cell_angle_gamma   77.53820664
_symmetry_Int_Tables_number   1
_chemical_formula_structural   AlH8C16O5F
_chemical_formula_sum   'Al2 H16 C32 O10 F2'
_cell_volume   1474.98245268
_cell_formula_units_Z   2
loop_
 _symmetry_equiv_pos_site_id
 _symmetry_equiv_pos_as_xyz
  1  'x, y, z'
loop_
 _atom_site_type_symbol
 _atom_site_label
 _atom_site_symmetry_multiplicity
 _atom_site_fract_x
 _atom_site_fract_y
 _atom_site_fract_z
 _atom_site_occupancy
  Al  Al0  1  0.99997920  0.50001917  0.49994894  1.0
  Al  Al1  1  0.49998953  0.49999872  0.49994310  1.0
  H  H2  1  0.32987642  0.43844492  0.39845375  1.0
  H  H3  1  0.67006689  0.56157992  0.60143413  1.0
  H  H4  1  0.67048477  0.46259682  0.06203323  1.0
  H  H5  1  0.33059314  0.53632442  0.93790472  1.0
  H  H6  1  0.83070784  0.45736943  0.76844136  1.0
  H  H7  1  0.74052229  0.45886143  0.93161430  1.0
  H  H8  1  0.16852809  0.54324961  0.23145997  1.0
  H  H9  1  0.25853601  0.54190380  0.06828889  1.0
  H  H10  1  0.80729169  0.76909978  0.56078374  1.0
  H  H11  1  0.55007555  0.91281373  0.61211626  1.0
  H  H12  1  0.43801018  0.77370046  0.42400213  1.0
  H  H13  1  0.53851931  0.92079595  0.38109252  1.0
  H  H14  1  0.19268238  0.23095881  0.43930868  1.0
  H  H15  1  0.44997059  0.08725503  0.38807829  1.0
  H  H16  1  0.56197373  0.22635949  0.57608086  1.0
  H  H17  1  0.46154329  0.07927350  0.61909593  1.0
  C  C18  1  0.81809567  0.33788271  0.50641695  1.0
  C  C19  1  0.82943437  0.50580007  0.33954226  1.0
  C  C20  1  0.18189333  0.66215835  0.49356814  1.0
  C  C21  1  0.17047877  0.49421599  0.66037540  1.0
  C  C22  1  0.87191685  0.50576418  0.24017041  1.0
  C  C23  1  0.12801918  0.49424044  0.75975069  1.0
  C  C24  1  0.73663311  0.48403847  0.18828355  1.0
  C  C25  1  0.78467202  0.48156095  0.09592077  1.0
  C  C26  1  0.26375126  0.51556663  0.81163735  1.0
  C  C27  1  0.21587998  0.51783527  0.90399567  1.0
  C  C28  1  0.93926795  0.47397973  0.80703174  1.0
  C  C29  1  0.88917631  0.47554468  0.89942725  1.0
  C  C30  1  0.06027820  0.52637252  0.19287909  1.0
  C  C31  1  0.11036936  0.52479948  0.10048515  1.0
  C  C32  1  0.97402626  0.50165356  0.04931174  1.0
  C  C33  1  0.02604938  0.49816979  0.95060085  1.0
  C  C34  1  0.92383436  0.80822068  0.53252619  1.0
  C  C35  1  0.87088433  0.90259452  0.53784902  1.0
  C  C36  1  0.66704089  0.95122406  0.58212737  1.0
  C  C37  1  0.28020753  0.81072055  0.45430452  1.0
  C  C38  1  0.23153131  0.90529624  0.45473630  1.0
  C  C39  1  0.38198137  0.95687878  0.41425700  1.0
  C  C40  1  0.07617718  0.19183929  0.46760257  1.0
  C  C41  1  0.12914475  0.09745333  0.46229871  1.0
  C  C42  1  0.33300525  0.04884335  0.41804438  1.0
  C  C43  1  0.71979713  0.18932728  0.54580171  1.0
  C  C44  1  0.76846888  0.09477990  0.54539045  1.0
  C  C45  1  0.61805902  0.04318728  0.58590617  1.0
  C  C46  1  0.12741164  0.76270616  0.49248715  1.0
  C  C47  1  0.02557225  0.95216452  0.49814619  1.0
  C  C48  1  0.87261656  0.23733966  0.50759738  1.0
  C  C49  1  0.97444643  0.04789613  0.50197472  1.0
  O  O50  1  0.97170274  0.37790882  0.48779929  1.0
  O  O51  1  0.65457363  0.48935221  0.37969876  1.0
  O  O52  1  0.37695632  0.62388961  0.47827315  1.0
  O  O53  1  0.02591767  0.47910397  0.62279028  1.0
  O  O54  1  0.02828201  0.62212887  0.51214189  1.0
  O  O55  1  0.34534555  0.51065375  0.62019839  1.0
  O  O56  1  0.62302493  0.37613526  0.52164389  1.0
  O  O57  1  0.97398103  0.52093366  0.37711440  1.0
  O  O58  1  0.28821549  0.46026910  0.45972581  1.0
  O  O59  1  0.71176412  0.53974835  0.54016547  1.0
  F  F60  1  0.54951839  0.46292922  0.22641782  1.0
  F  F61  1  0.45112253  0.53640233  0.77351442  1.0
