# generated using pymatgen
data_ZnH13C21NO4
_symmetry_space_group_name_H-M   'P 1'
_cell_length_a   14.77732756
_cell_length_b   16.12615895
_cell_length_c   17.19324348
_cell_angle_alpha   89.11396053
_cell_angle_beta   84.46342782
_cell_angle_gamma   89.11196733
_symmetry_Int_Tables_number   1
_chemical_formula_structural   ZnH13C21NO4
_chemical_formula_sum   'Zn2 H26 C42 N2 O8'
_cell_volume   4077.17073878
_cell_formula_units_Z   2
loop_
 _symmetry_equiv_pos_site_id
 _symmetry_equiv_pos_as_xyz
  1  'x, y, z'
loop_
 _atom_site_type_symbol
 _atom_site_label
 _atom_site_symmetry_multiplicity
 _atom_site_fract_x
 _atom_site_fract_y
 _atom_site_fract_z
 _atom_site_occupancy
  Zn  Zn0  1  0.59400831  0.49373283  0.49921567  1.0
  Zn  Zn1  1  0.40437976  0.49740725  0.50519267  1.0
  H  H2  1  0.38380753  0.58700661  0.27289884  1.0
  H  H3  1  0.62197008  0.52877399  0.73732601  1.0
  H  H4  1  0.93814317  0.63655999  0.52518644  1.0
  H  H5  1  0.06063116  0.35606160  0.47464077  1.0
  H  H6  1  0.93590188  0.40145423  0.60344653  1.0
  H  H7  1  0.06283762  0.59114789  0.39643765  1.0
  H  H8  1  0.33114049  0.54434375  0.75286281  1.0
  H  H9  1  0.66833535  0.52690751  0.24832923  1.0
  H  H10  1  0.39880279  0.59926607  0.00776476  1.0
  H  H11  1  0.60802572  0.59686292  0.99383383  1.0
  H  H12  1  0.67642160  0.56483341  0.10633104  1.0
  H  H13  1  0.32756278  0.58776613  0.89201934  1.0
  H  H14  1  0.62051069  0.57089937  0.87541884  1.0
  H  H15  1  0.39026404  0.62687583  0.13221319  1.0
  H  H16  1  0.41839247  0.94691753  0.62300162  1.0
  H  H17  1  0.58085449  0.04458704  0.37711798  1.0
  H  H18  1  0.57590139  0.04714978  0.61005432  1.0
  H  H19  1  0.42356441  0.94422199  0.39014974  1.0
  H  H20  1  0.04255774  0.54262475  0.62626445  1.0
  H  H21  1  0.95623168  0.45000861  0.37363128  1.0
  H  H22  1  0.26771944  0.00560719  0.51528416  1.0
  H  H23  1  0.30162392  0.09597158  0.56283915  1.0
  H  H24  1  0.30393929  0.09520440  0.45926268  1.0
  H  H25  1  0.73240101  0.98284258  0.48472876  1.0
  H  H26  1  0.69352248  0.89412290  0.54091426  1.0
  H  H27  1  0.69573767  0.89329822  0.43746881  1.0
  C  C28  1  0.49841370  0.65787653  0.50669609  1.0
  C  C29  1  0.50064933  0.33434496  0.49684043  1.0
  C  C30  1  0.54184355  0.02357397  0.56127560  1.0
  C  C31  1  0.45752593  0.96801309  0.43890822  1.0
  C  C32  1  0.45468590  0.96951942  0.56844666  1.0
  C  C33  1  0.54461901  0.02213177  0.43175338  1.0
  C  C34  1  0.49873912  0.74739464  0.50593706  1.0
  C  C35  1  0.49976170  0.24465972  0.49578642  1.0
  C  C36  1  0.58744271  0.96682116  0.49488300  1.0
  C  C37  1  0.41179619  0.02464279  0.50528115  1.0
  C  C38  1  0.49926555  0.91063749  0.50223900  1.0
  C  C39  1  0.49989688  0.08115401  0.49804619  1.0
  C  C40  1  0.49853018  0.82299858  0.50429921  1.0
  C  C41  1  0.50039491  0.16897167  0.49629931  1.0
  C  C42  1  0.96628191  0.57439485  0.51398920  1.0
  C  C43  1  0.03246857  0.41819480  0.48589595  1.0
  C  C44  1  0.02229636  0.52203803  0.57034561  1.0
  C  C45  1  0.97647162  0.47054313  0.42957953  1.0
  C  C46  1  0.03378538  0.54907113  0.44230850  1.0
  C  C47  1  0.96507040  0.44349777  0.55761334  1.0
  C  C48  1  0.09187488  0.49668767  0.49864813  1.0
  C  C49  1  0.90691716  0.49584350  0.50130691  1.0
  C  C50  1  0.51804678  0.52149294  0.35158019  1.0
  C  C51  1  0.48025224  0.50550525  0.65379572  1.0
  C  C52  1  0.18767343  0.49699711  0.49852962  1.0
  C  C53  1  0.81103700  0.49479314  0.50232496  1.0
  C  C54  1  0.52479300  0.55144054  0.26835535  1.0
  C  C55  1  0.47674541  0.53246398  0.73706015  1.0
  C  C56  1  0.44735438  0.58206442  0.23534244  1.0
  C  C57  1  0.55793497  0.54192682  0.77213652  1.0
  C  C58  1  0.45147974  0.60398355  0.15671001  1.0
  C  C59  1  0.55645469  0.56611494  0.84926140  1.0
  C  C60  1  0.53326730  0.59469044  0.10777652  1.0
  C  C61  1  0.47342000  0.58180863  0.89481766  1.0
  C  C62  1  0.61203426  0.57013800  0.14299321  1.0
  C  C63  1  0.39250045  0.57489432  0.85809396  1.0
  C  C64  1  0.60797056  0.54845674  0.22184877  1.0
  C  C65  1  0.39391944  0.55040319  0.78067137  1.0
  C  C66  1  0.53881874  0.59993091  0.02281022  1.0
  C  C67  1  0.46792894  0.59713242  0.97848641  1.0
  C  C68  1  0.31615778  0.05707139  0.51096317  1.0
  C  C69  1  0.68241833  0.93265955  0.48918273  1.0
  N  N70  1  0.26611125  0.49728674  0.49966675  1.0
  N  N71  1  0.73245564  0.49338666  0.50277556  1.0
  O  O72  1  0.57589468  0.62159993  0.49777511  1.0
  O  O73  1  0.42400998  0.37170399  0.49580223  1.0
  O  O74  1  0.42074055  0.62392856  0.51596588  1.0
  O  O75  1  0.57800451  0.36763955  0.49903216  1.0
  O  O76  1  0.59195954  0.50149118  0.38022052  1.0
  O  O77  1  0.40522772  0.49321546  0.62514633  1.0
  O  O78  1  0.43847432  0.51800794  0.38744577  1.0
  O  O79  1  0.55930755  0.49814832  0.61727127  1.0
