# generated using pymatgen
data_ZnH14C24N3O4
_symmetry_space_group_name_H-M   'P 1'
_cell_length_a   11.80203613
_cell_length_b   13.19194505
_cell_length_c   19.36664700
_cell_angle_alpha   90.15127062
_cell_angle_beta   92.93891503
_cell_angle_gamma   93.14681826
_symmetry_Int_Tables_number   1
_chemical_formula_structural   ZnH14C24N3O4
_chemical_formula_sum   'Zn2 H28 C48 N6 O8'
_cell_volume   3006.67710551
_cell_formula_units_Z   2
loop_
 _symmetry_equiv_pos_site_id
 _symmetry_equiv_pos_as_xyz
  1  'x, y, z'
loop_
 _atom_site_type_symbol
 _atom_site_label
 _atom_site_symmetry_multiplicity
 _atom_site_fract_x
 _atom_site_fract_y
 _atom_site_fract_z
 _atom_site_occupancy
  Zn  Zn0  1  0.61695738  0.49647285  0.50484422  1.0
  Zn  Zn1  1  0.38304250  0.50352901  0.49515793  1.0
  H  H2  1  0.67769105  0.52130930  0.72772610  1.0
  H  H3  1  0.64185412  0.17630372  0.51036576  1.0
  H  H4  1  0.72125940  0.82195254  0.51545584  1.0
  H  H5  1  0.27875151  0.17804932  0.48454303  1.0
  H  H6  1  0.26381740  0.98839342  0.48281687  1.0
  H  H7  1  0.73618592  0.01160919  0.51717918  1.0
  H  H8  1  0.81299494  0.58938207  0.43607033  1.0
  H  H9  1  0.18700057  0.41061750  0.56393065  1.0
  H  H10  1  0.77570504  0.37343220  0.58889109  1.0
  H  H11  1  0.22429225  0.62656889  0.41110943  1.0
  H  H12  1  0.31494701  0.64369115  0.90585609  1.0
  H  H13  1  0.32230678  0.47870090  0.27227186  1.0
  H  H14  1  0.12604064  0.64541367  0.95658813  1.0
  H  H15  1  0.97835398  0.50765576  0.92776052  1.0
  H  H16  1  0.02049110  0.36880418  0.84674776  1.0
  H  H17  1  0.21010364  0.36720476  0.79649139  1.0
  H  H18  1  0.78990178  0.63279029  0.20351763  1.0
  H  H19  1  0.97951973  0.63118179  0.15326711  1.0
  H  H20  1  0.02165087  0.49232944  0.07225210  1.0
  H  H21  1  0.87395559  0.35458364  0.04341803  1.0
  H  H22  1  0.68504541  0.35631372  0.09414222  1.0
  H  H23  1  0.01321848  0.64615849  0.39635979  1.0
  H  H24  1  0.98677788  0.35384108  0.60364122  1.0
  H  H25  1  0.67344148  0.52830563  0.85710808  1.0
  H  H26  1  0.32655949  0.47171444  0.14289050  1.0
  H  H27  1  0.31369170  0.49556681  0.71292647  1.0
  H  H28  1  0.68630569  0.50443580  0.28707509  1.0
  H  H29  1  0.35815505  0.82369739  0.48963513  1.0
  C  C30  1  0.47078946  0.30120734  0.49905966  1.0
  C  C31  1  0.44020577  0.86585801  0.49535554  1.0
  C  C32  1  0.55456321  0.02684504  0.50397286  1.0
  C  C33  1  0.44544511  0.97315607  0.49602645  1.0
  C  C34  1  0.04820117  0.59349540  0.43401083  1.0
  C  C35  1  0.95179768  0.40650341  0.56599026  1.0
  C  C36  1  0.16351803  0.58344806  0.44161052  1.0
  C  C37  1  0.83647912  0.41655075  0.55838896  1.0
  C  C38  1  0.14429587  0.46143674  0.52791730  1.0
  C  C39  1  0.85569967  0.53856359  0.47208316  1.0
  C  C40  1  0.02450803  0.46588347  0.52430175  1.0
  C  C41  1  0.52922820  0.69879379  0.50094252  1.0
  C  C42  1  0.97548832  0.53411610  0.47569874  1.0
  C  C43  1  0.49724068  0.50075032  0.63560790  1.0
  C  C44  1  0.50275269  0.49925607  0.36439250  1.0
  C  C45  1  0.59755594  0.51611031  0.75334620  1.0
  C  C46  1  0.40244282  0.48390140  0.24665179  1.0
  C  C47  1  0.59486026  0.52030129  0.82494330  1.0
  C  C48  1  0.40513959  0.47971422  0.17505421  1.0
  C  C49  1  0.49106680  0.51207419  0.85746475  1.0
  C  C50  1  0.50893376  0.48793904  0.14253381  1.0
  C  C51  1  0.38748415  0.50391657  0.81716273  1.0
  C  C52  1  0.53794670  0.81252366  0.50199551  1.0
  C  C53  1  0.61251511  0.49608908  0.18283837  1.0
  C  C54  1  0.39219516  0.49993968  0.74518887  1.0
  C  C55  1  0.60780410  0.50006597  0.25481068  1.0
  C  C56  1  0.49567325  0.50487179  0.71298462  1.0
  C  C57  1  0.50432435  0.49513462  0.28701591  1.0
  C  C58  1  0.50555844  0.49320934  0.06650094  1.0
  C  C59  1  0.49444194  0.50680086  0.93349761  1.0
  C  C60  1  0.27532261  0.50475228  0.84814910  1.0
  C  C61  1  0.25054178  0.58292907  0.89343781  1.0
  C  C62  1  0.14429079  0.58397612  0.92173318  1.0
  C  C63  1  0.46206332  0.18747745  0.49800489  1.0
  C  C64  1  0.06112110  0.50698983  0.90520606  1.0
  C  C65  1  0.08468999  0.42949651  0.85961352  1.0
  C  C66  1  0.19074211  0.42869206  0.83103593  1.0
  C  C67  1  0.72467879  0.49524654  0.15185206  1.0
  C  C68  1  0.80926158  0.57130223  0.16897201  1.0
  C  C69  1  0.91531673  0.57049172  0.14039709  1.0
  C  C70  1  0.93887982  0.49300067  0.09480489  1.0
  C  C71  1  0.85570945  0.41601739  0.07827155  1.0
  C  C72  1  0.74945457  0.41707051  0.10656475  1.0
  C  C73  1  0.34645203  0.02973408  0.48908884  1.0
  C  C74  1  0.65355727  0.97026931  0.51090998  1.0
  C  C75  1  0.35422932  0.13421017  0.49007519  1.0
  C  C76  1  0.64577985  0.86579094  0.50992672  1.0
  C  C77  1  0.55980407  0.13414006  0.50464433  1.0
  N  N78  1  0.42250297  0.43798314  0.96279262  1.0
  N  N79  1  0.57749942  0.56203237  0.03720652  1.0
  N  N80  1  0.42799951  0.43119342  0.03083939  1.0
  N  N81  1  0.57200208  0.56882285  0.96916024  1.0
  N  N82  1  0.79003943  0.48209954  0.51187139  1.0
  N  N83  1  0.20995943  0.51789928  0.48813021  1.0
  O  O84  1  0.57050026  0.34397594  0.50360078  1.0
  O  O85  1  0.42951557  0.65602292  0.49640651  1.0
  O  O86  1  0.37835316  0.34703425  0.49526077  1.0
  O  O87  1  0.62166646  0.65297144  0.50474044  1.0
  O  O88  1  0.59415556  0.49870446  0.60971845  1.0
  O  O89  1  0.40583870  0.50130270  0.39028250  1.0
  O  O90  1  0.40175869  0.49999678  0.60171563  1.0
  O  O91  1  0.59823534  0.50000658  0.39828634  1.0
