# generated using pymatgen
data_Al2H17C24S2N3O10
_symmetry_space_group_name_H-M   'P 1'
_cell_length_a   6.64881974
_cell_length_b   12.68718739
_cell_length_c   16.96959084
_cell_angle_alpha   85.95293421
_cell_angle_beta   82.12885583
_cell_angle_gamma   75.96216282
_symmetry_Int_Tables_number   1
_chemical_formula_structural   Al2H17C24S2N3O10
_chemical_formula_sum   'Al2 H17 C24 S2 N3 O10'
_cell_volume   1374.59359191
_cell_formula_units_Z   1
loop_
 _symmetry_equiv_pos_site_id
 _symmetry_equiv_pos_as_xyz
  1  'x, y, z'
loop_
 _atom_site_type_symbol
 _atom_site_label
 _atom_site_symmetry_multiplicity
 _atom_site_fract_x
 _atom_site_fract_y
 _atom_site_fract_z
 _atom_site_occupancy
  Al  Al0  1  0.50119822  0.49836781  0.50068812  1.0
  Al  Al1  1  0.00336802  0.49388801  0.50235762  1.0
  H  H2  1  0.20319847  0.62429382  0.45297044  1.0
  H  H3  1  0.74331649  0.43230874  0.59567479  1.0
  H  H4  1  0.95053570  0.40716851  0.74546013  1.0
  H  H5  1  0.89556575  0.40524316  0.89475890  1.0
  H  H6  1  0.30070181  0.62330749  0.88981335  1.0
  H  H7  1  0.67171169  0.39857575  0.11182371  1.0
  H  H8  1  0.17488340  0.55546159  0.11496093  1.0
  H  H9  1  0.10971403  0.55219762  0.26438405  1.0
  H  H10  1  0.26785947  0.84736979  0.54167038  1.0
  H  H11  1  0.56373082  0.59397467  0.71269650  1.0
  H  H12  1  0.41667291  0.70766393  0.76737254  1.0
  H  H13  1  0.34720289  0.68073467  0.67425749  1.0
  H  H14  1  0.43070544  0.43819330  0.30732635  1.0
  H  H15  1  0.61652322  0.31367603  0.31105825  1.0
  H  H16  1  0.47879961  0.34899881  0.22656846  1.0
  H  H17  1  0.92751439  0.10921321  0.44482987  1.0
  H  H18  1  0.76777058  0.23837006  0.45119667  1.0
  C  C19  1  0.65452322  0.69385501  0.50268974  1.0
  C  C20  1  0.81634750  0.48520185  0.35942224  1.0
  C  C21  1  0.35354466  0.30138150  0.49653239  1.0
  C  C22  1  0.19202069  0.50582971  0.64602374  1.0
  C  C23  1  0.16245799  0.51291431  0.73433717  1.0
  C  C24  1  0.02781852  0.45369803  0.77804922  1.0
  C  C25  1  0.99634994  0.45237438  0.86040452  1.0
  C  C26  1  0.09713740  0.51429795  0.90031263  1.0
  C  C27  1  0.22821572  0.57488644  0.85669234  1.0
  C  C28  1  0.26529139  0.57517158  0.77349989  1.0
  C  C29  1  0.76337793  0.43390077  0.14670679  1.0
  C  C30  1  0.92296054  0.47837124  0.10529914  1.0
  C  C31  1  0.04994527  0.52206528  0.14740760  1.0
  C  C32  1  0.01258500  0.52047461  0.22972802  1.0
  C  C33  1  0.84846198  0.47870362  0.27113624  1.0
  C  C34  1  0.72062097  0.43363368  0.22969741  1.0
  C  C35  1  0.61301943  0.11903262  0.47309981  1.0
  C  C36  1  0.40457765  0.87940220  0.52165499  1.0
  C  C37  1  0.41204195  0.18432194  0.49504324  1.0
  C  C38  1  0.60088150  0.81316983  0.50156557  1.0
  C  C39  1  0.40918917  0.99007930  0.51232882  1.0
  C  C40  1  0.60824424  0.00688098  0.48395678  1.0
  C  C41  1  0.40487090  0.64316673  0.72962835  1.0
  C  C42  1  0.55193157  0.38130653  0.27062147  1.0
  S  S43  1  0.22415050  0.11040204  0.52752592  1.0
  S  S44  1  0.79154014  0.88528334  0.47066523  1.0
  N  N45  1  0.07587774  0.52155162  0.98397230  1.0
  N  N46  1  0.94393744  0.47316469  0.02163518  1.0
  N  N47  1  0.78237463  0.15788223  0.44300944  1.0
  O  O48  1  0.50080280  0.64842761  0.51429996  1.0
  O  O49  1  0.97910738  0.47019446  0.39464893  1.0
  O  O50  1  0.15956815  0.34750757  0.51269600  1.0
  O  O51  1  0.37849412  0.48961690  0.61069724  1.0
  O  O52  1  0.50164611  0.35182612  0.48277779  1.0
  O  O53  1  0.02799930  0.51376683  0.61257695  1.0
  O  O54  1  0.84809991  0.64584401  0.49119889  1.0
  O  O55  1  0.62928369  0.50831481  0.39388673  1.0
  O  O56  1  0.23906381  0.54721905  0.46710475  1.0
  O  O57  1  0.75908616  0.44975097  0.53891703  1.0
