# generated using pymatgen
data_AlH7C16O9
_symmetry_space_group_name_H-M   'P 1'
_cell_length_a   6.64658258
_cell_length_b   17.80558973
_cell_length_c   18.38215757
_cell_angle_alpha   90.00019632
_cell_angle_beta   89.81252677
_cell_angle_gamma   90.00042991
_symmetry_Int_Tables_number   1
_chemical_formula_structural   AlH7C16O9
_chemical_formula_sum   'Al4 H28 C64 O36'
_cell_volume   2175.44910304
_cell_formula_units_Z   4
loop_
 _symmetry_equiv_pos_site_id
 _symmetry_equiv_pos_as_xyz
  1  'x, y, z'
loop_
 _atom_site_type_symbol
 _atom_site_label
 _atom_site_symmetry_multiplicity
 _atom_site_fract_x
 _atom_site_fract_y
 _atom_site_fract_z
 _atom_site_occupancy
  Al  Al0  1  0.75333275  0.25525973  0.25035991  1.0
  Al  Al1  1  0.24666971  0.74474159  0.74963863  1.0
  Al  Al2  1  0.74667267  0.75525808  0.74964373  1.0
  Al  Al3  1  0.25333725  0.24473818  0.25036296  1.0
  H  H4  1  0.24318427  0.55159525  0.61231242  1.0
  H  H5  1  0.75682725  0.44841056  0.38768176  1.0
  H  H6  1  0.25681583  0.05159009  0.38768309  1.0
  H  H7  1  0.74318665  0.94841291  0.61231272  1.0
  H  H8  1  0.74205799  0.94868690  0.88672951  1.0
  H  H9  1  0.25792790  0.05130992  0.11327120  1.0
  H  H10  1  0.75795281  0.44868696  0.11327694  1.0
  H  H11  1  0.24205711  0.55131155  0.88673030  1.0
  H  H12  1  0.51313237  0.66990617  0.57843516  1.0
  H  H13  1  0.48688203  0.33008729  0.42157589  1.0
  H  H14  1  0.98684122  0.16993097  0.42157201  1.0
  H  H15  1  0.01313721  0.83007989  0.57842163  1.0
  H  H16  1  0.01357864  0.82690566  0.92855582  1.0
  H  H17  1  0.98642533  0.17308442  0.07144271  1.0
  H  H18  1  0.48642094  0.32691238  0.07144713  1.0
  H  H19  1  0.51357848  0.67308669  0.92855575  1.0
  H  H20  1  0.50254596  0.37779670  0.54310953  1.0
  H  H21  1  0.49747150  0.62220181  0.45689499  1.0
  H  H22  1  0.99745595  0.87779303  0.45689016  1.0
  H  H23  1  0.00252697  0.12221446  0.54310620  1.0
  H  H24  1  0.99873432  0.12337239  0.95320435  1.0
  H  H25  1  0.00124857  0.87662331  0.04679528  1.0
  H  H26  1  0.50125944  0.62337263  0.04679613  1.0
  H  H27  1  0.49874295  0.37663093  0.95321220  1.0
  H  H28  1  0.48663203  0.34906022  0.24079185  1.0
  H  H29  1  0.51337035  0.65094334  0.75921648  1.0
  H  H30  1  0.01337997  0.84905683  0.75921879  1.0
  H  H31  1  0.98662090  0.15094224  0.24079063  1.0
  C  C32  1  0.50836843  0.16219666  0.35051889  1.0
  C  C33  1  0.49164459  0.83780354  0.64947475  1.0
  C  C34  1  0.99162910  0.66219871  0.64948444  1.0
  C  C35  1  0.00837483  0.33780486  0.35051899  1.0
  C  C36  1  0.00885108  0.33811396  0.14965327  1.0
  C  C37  1  0.99113476  0.66188511  0.85035560  1.0
  C  C38  1  0.49114871  0.83811166  0.85035135  1.0
  C  C39  1  0.50885680  0.16188685  0.14964120  1.0
  C  C40  1  0.97258477  0.61050188  0.58624355  1.0
  C  C41  1  0.02743422  0.38950449  0.41375661  1.0
  C  C42  1  0.52740723  0.11050235  0.41375634  1.0
  C  C43  1  0.47258020  0.88949953  0.58624111  1.0
  C  C44  1  0.47313926  0.88915134  0.91421403  1.0
  C  C45  1  0.52685116  0.11084380  0.08578560  1.0
  C  C46  1  0.02686456  0.38915402  0.08579130  1.0
  C  C47  1  0.97313784  0.61084337  0.91421430  1.0
  C  C48  1  0.22972572  0.43830311  0.51305588  1.0
  C  C49  1  0.77029171  0.56170046  0.48695244  1.0
  C  C50  1  0.27028207  0.93830397  0.48695342  1.0
  C  C51  1  0.72970984  0.06170353  0.51304729  1.0
  C  C52  1  0.72889919  0.06197675  0.98593437  1.0
  C  C53  1  0.27108825  0.93802176  0.01406090  1.0
  C  C54  1  0.77109635  0.56197370  0.01406427  1.0
  C  C55  1  0.22890457  0.43802369  0.98593916  1.0
  C  C56  1  0.19849989  0.38421209  0.45937408  1.0
  C  C57  1  0.80153262  0.61579821  0.54062989  1.0
  C  C58  1  0.30152497  0.88420199  0.54062090  1.0
  C  C59  1  0.69845041  0.11580382  0.45937709  1.0
  C  C60  1  0.69654257  0.11652813  0.03916848  1.0
  C  C61  1  0.30345238  0.88346645  0.96082843  1.0
  C  C62  1  0.80345708  0.61652794  0.96083144  1.0
  C  C63  1  0.19656336  0.38347562  0.03917689  1.0
  C  C64  1  0.88707452  0.44590597  0.42330058  1.0
  C  C65  1  0.11292790  0.55409478  0.57670230  1.0
  C  C66  1  0.61292574  0.94590727  0.57669987  1.0
  C  C67  1  0.38706468  0.05409461  0.42329975  1.0
  C  C68  1  0.38736042  0.05409175  0.07698978  1.0
  C  C69  1  0.61264200  0.94589721  0.92301473  1.0
  C  C70  1  0.11263372  0.55409202  0.92300520  1.0
  C  C71  1  0.88735075  0.44589750  0.07698464  1.0
  C  C72  1  0.91243453  0.50162905  0.47733992  1.0
  C  C73  1  0.08757846  0.49837676  0.52265861  1.0
  C  C74  1  0.58756880  0.00163008  0.52266178  1.0
  C  C75  1  0.41242307  0.99837686  0.47734437  1.0
  C  C76  1  0.41247450  0.99839908  0.02288788  1.0
  C  C77  1  0.58750691  0.00159943  0.97710903  1.0
  C  C78  1  0.08752100  0.49840283  0.97711673  1.0
  C  C79  1  0.91249793  0.50160073  0.02289214  1.0
  C  C80  1  0.65763940  0.68114605  0.54972923  1.0
  C  C81  1  0.34238856  0.31885752  0.45027963  1.0
  C  C82  1  0.84234343  0.18115988  0.45027851  1.0
  C  C83  1  0.15763498  0.81884368  0.54971676  1.0
  C  C84  1  0.16343018  0.81695061  0.95347650  1.0
  C  C85  1  0.83655870  0.18304115  0.04652693  1.0
  C  C86  1  0.33657221  0.31695514  0.04652587  1.0
  C  C87  1  0.66343473  0.68303999  0.95347701  1.0
  C  C88  1  0.41757834  0.43045984  0.55533459  1.0
  C  C89  1  0.58243152  0.56953923  0.44468026  1.0
  C  C90  1  0.08242626  0.93046115  0.44467850  1.0
  C  C91  1  0.91756416  0.06954691  0.55532004  1.0
  C  C92  1  0.91681903  0.06958297  0.94320807  1.0
  C  C93  1  0.08316842  0.93041273  0.05678612  1.0
  C  C94  1  0.58317219  0.56958292  0.05678680  1.0
  C  C95  1  0.41682124  0.43041784  0.94321228  1.0
  O  O96  1  0.33562784  0.17488931  0.17621946  1.0
  O  O97  1  0.66435657  0.82511032  0.82377799  1.0
  O  O98  1  0.16436420  0.67488433  0.82377810  1.0
  O  O99  1  0.83564572  0.32511081  0.17622968  1.0
  O  O100  1  0.83607339  0.32577210  0.32322648  1.0
  O  O101  1  0.16395458  0.67422528  0.67678130  1.0
  O  O102  1  0.66394253  0.82577053  0.67677086  1.0
  O  O103  1  0.33604344  0.17422293  0.32321952  1.0
  O  O104  1  0.67435685  0.18849533  0.32670574  1.0
  O  O105  1  0.32563511  0.81150262  0.67328790  1.0
  O  O106  1  0.82563975  0.68849082  0.67329169  1.0
  O  O107  1  0.17437773  0.31150600  0.32671010  1.0
  O  O108  1  0.17557685  0.31372077  0.17443392  1.0
  O  O109  1  0.82442857  0.68627325  0.82557059  1.0
  O  O110  1  0.32441798  0.81371567  0.82556409  1.0
  O  O111  1  0.67556948  0.18627609  0.17442792  1.0
  O  O112  1  0.49822578  0.29565006  0.24979652  1.0
  O  O113  1  0.50177966  0.70435126  0.75020528  1.0
  O  O114  1  0.00177920  0.79565054  0.75020470  1.0
  O  O115  1  0.99822777  0.20435190  0.24979492  1.0
  O  O116  1  0.69888224  0.74326026  0.52559576  1.0
  O  O117  1  0.30113525  0.25673993  0.47440441  1.0
  O  O118  1  0.80109585  0.24327463  0.47440893  1.0
  O  O119  1  0.19889005  0.75672725  0.52559124  1.0
  O  O120  1  0.21357990  0.75485000  0.97523403  1.0
  O  O121  1  0.78643609  0.24514570  0.02476504  1.0
  O  O122  1  0.28642884  0.25485712  0.02475671  1.0
  O  O123  1  0.71357519  0.74514363  0.97523258  1.0
  O  O124  1  0.48713930  0.47528695  0.59939644  1.0
  O  O125  1  0.51285852  0.52470538  0.40061842  1.0
  O  O126  1  0.01283003  0.97528959  0.40062442  1.0
  O  O127  1  0.98714832  0.02471229  0.59937793  1.0
  O  O128  1  0.98951505  0.02330091  0.90110319  1.0
  O  O129  1  0.01047539  0.97669480  0.09889426  1.0
  O  O130  1  0.51047674  0.52330023  0.09889207  1.0
  O  O131  1  0.48951819  0.47670333  0.90110810  1.0
