# generated using pymatgen
data_Hf3H26C54N9O16
_symmetry_space_group_name_H-M   'P 1'
_cell_length_a   18.90704225
_cell_length_b   18.90624800
_cell_length_c   19.05943912
_cell_angle_alpha   91.44883978
_cell_angle_beta   91.02196897
_cell_angle_gamma   91.48780517
_symmetry_Int_Tables_number   1
_chemical_formula_structural   Hf3H26C54N9O16
_chemical_formula_sum   'Hf6 H52 C108 N18 O32'
_cell_volume   6807.37055102
_cell_formula_units_Z   2
loop_
 _symmetry_equiv_pos_site_id
 _symmetry_equiv_pos_as_xyz
  1  'x, y, z'
loop_
 _atom_site_type_symbol
 _atom_site_label
 _atom_site_symmetry_multiplicity
 _atom_site_fract_x
 _atom_site_fract_y
 _atom_site_fract_z
 _atom_site_occupancy
  Hf  Hf0  1  0.06019044  0.18353168  0.14434350  1.0
  Hf  Hf1  1  0.15616799  0.23584603  0.99819463  1.0
  Hf  Hf2  1  0.03507569  0.01450392  0.06842244  1.0
  Hf  Hf3  1  0.20624564  0.08727367  0.09101841  1.0
  Hf  Hf4  1  0.98587879  0.16297884  0.97517886  1.0
  Hf  Hf5  1  0.13174316  0.06586784  0.92274314  1.0
  H  H6  1  0.20282812  0.22909270  0.13916304  1.0
  H  H7  1  0.93087283  0.11422198  0.09952990  1.0
  H  H8  1  0.16025296  0.95951563  0.02033849  1.0
  H  H9  1  0.08527988  0.19271552  0.87055875  1.0
  H  H10  1  0.25595794  0.74562497  0.25911355  1.0
  H  H11  1  0.05603802  0.80689680  0.34260116  1.0
  H  H12  1  0.05230835  0.90630078  0.25784738  1.0
  H  H13  1  0.25937432  0.85400147  0.18608000  1.0
  H  H14  1  0.11858148  0.44668636  0.36008910  1.0
  H  H15  1  0.18136625  0.57886835  0.19048691  1.0
  H  H16  1  0.17217822  0.47422124  0.10681419  1.0
  H  H17  1  0.10680541  0.34300740  0.27626507  1.0
  H  H18  1  0.05732443  0.80665995  0.70411193  1.0
  H  H19  1  0.99923562  0.67539543  0.87599353  1.0
  H  H20  1  0.00946633  0.78068689  0.95878025  1.0
  H  H21  1  0.07033614  0.91115170  0.78723846  1.0
  H  H22  1  0.12750520  0.44588215  0.72601259  1.0
  H  H23  1  0.93131147  0.50961536  0.81597065  1.0
  H  H24  1  0.93073033  0.40313747  0.89159168  1.0
  H  H25  1  0.13448346  0.34840540  0.81258539  1.0
  H  H26  1  0.70828748  0.34018531  0.18957233  1.0
  H  H27  1  0.78779432  0.44815512  0.01019620  1.0
  H  H28  1  0.89021264  0.36624534  0.00650679  1.0
  H  H29  1  0.81768073  0.26825407  0.19443791  1.0
  H  H30  1  0.41780983  0.45119623  0.06039462  1.0
  H  H31  1  0.55113757  0.27908814  0.11397042  1.0
  H  H32  1  0.44672379  0.19434676  0.10364926  1.0
  H  H33  1  0.31422861  0.36651486  0.04790082  1.0
  H  H34  1  0.88162538  0.88020199  0.00610389  1.0
  H  H35  1  0.75105220  0.05290652  0.94782519  1.0
  H  H36  1  0.64627606  0.96883990  0.93582572  1.0
  H  H37  1  0.77762934  0.79589526  0.99158061  1.0
  H  H38  1  0.48547600  0.91285841  0.86941327  1.0
  H  H39  1  0.41120341  0.80855789  0.05310285  1.0
  H  H40  1  0.31121952  0.89290625  0.06037568  1.0
  H  H41  1  0.37761484  0.98704199  0.86818545  1.0
  H  H42  1  0.30103974  0.26894780  0.63748322  1.0
  H  H43  1  0.42220409  0.10289876  0.72649945  1.0
  H  H44  1  0.34237078  0.10209294  0.83020421  1.0
  H  H45  1  0.22948140  0.27676664  0.74626143  1.0
  H  H46  1  0.24867624  0.19960342  0.48541371  1.0
  H  H47  1  0.42074320  0.13864402  0.35443582  1.0
  H  H48  1  0.33756081  0.12907210  0.25092842  1.0
  H  H49  1  0.16560389  0.19237872  0.38109189  1.0
  H  H50  1  0.85006474  0.10934138  0.81943092  1.0
  H  H51  1  0.02234508  0.04031690  0.69274831  1.0
  H  H52  1  0.93996183  0.02957188  0.58813741  1.0
  H  H53  1  0.76717512  0.09581726  0.71555273  1.0
  H  H54  1  0.76275387  0.11909032  0.33793255  1.0
  H  H55  1  0.91120237  0.98645588  0.44134613  1.0
  H  H56  1  0.98672003  0.98570586  0.33533159  1.0
  H  H57  1  0.84207955  0.12546448  0.23460481  1.0
  C  C58  1  0.79465937  0.06004759  0.46262979  1.0
  C  C59  1  0.80280504  0.06354451  0.58212418  1.0
  C  C60  1  0.69968964  0.08960495  0.52692196  1.0
  C  C61  1  0.40023251  0.17479356  0.60742023  1.0
  C  C62  1  0.38727501  0.16863343  0.48839439  1.0
  C  C63  1  0.49171306  0.14101863  0.54033711  1.0
  C  C64  1  0.52232147  0.82003554  0.96738935  1.0
  C  C65  1  0.58888333  0.72808073  0.99925396  1.0
  C  C66  1  0.64239088  0.83054092  0.96614763  1.0
  C  C67  1  0.67301855  0.43231283  0.09048403  1.0
  C  C68  1  0.60521744  0.52246100  0.05619220  1.0
  C  C69  1  0.55312933  0.41840505  0.08664780  1.0
  C  C70  1  0.03423318  0.55124767  0.72927862  1.0
  C  C71  1  0.06478707  0.61777732  0.63709827  1.0
  C  C72  1  0.03117728  0.67125144  0.73880357  1.0
  C  C73  1  0.14914229  0.70163651  0.34045445  1.0
  C  C74  1  0.11714507  0.63366748  0.43112922  1.0
  C  C75  1  0.14876362  0.58171387  0.32795860  1.0
  C  C76  1  0.96994798  0.06634802  0.22023842  1.0
  C  C77  1  0.12540520  0.33918906  0.13879371  1.0
  C  C78  1  0.19943543  0.14882316  0.24654192  1.0
  C  C79  1  0.91479590  0.25819152  0.09111733  1.0
  C  C80  1  0.22815082  0.18128263  0.85095117  1.0
  C  C81  1  0.05874058  0.91377299  0.92588453  1.0
  C  C82  1  0.31151879  0.22737566  0.06055205  1.0
  C  C83  1  0.04108690  0.31439802  0.91038195  1.0
  C  C84  1  0.88343011  0.02008433  0.99751450  1.0
  C  C85  1  0.14891704  0.94075514  0.16286940  1.0
  C  C86  1  0.28249455  0.99812911  0.97424347  1.0
  C  C87  1  0.98924103  0.09283590  0.82338849  1.0
  C  C88  1  0.21327937  0.78319783  0.26115491  1.0
  C  C89  1  0.15584847  0.77002949  0.30496085  1.0
  C  C90  1  0.09993689  0.81727151  0.30765312  1.0
  C  C91  1  0.09845379  0.87312334  0.26158118  1.0
  C  C92  1  0.15554520  0.88574799  0.21717320  1.0
  C  C93  1  0.21457746  0.84264958  0.21961088  1.0
  C  C94  1  0.13045722  0.45213906  0.30473920  1.0
  C  C95  1  0.15035484  0.51902091  0.28021569  1.0
  C  C96  1  0.16635305  0.52658403  0.20886020  1.0
  C  C97  1  0.16091670  0.46857328  0.16234378  1.0
  C  C98  1  0.13812142  0.40254101  0.18648243  1.0
  C  C99  1  0.12397298  0.39470921  0.25816887  1.0
  C  C100  1  0.04651362  0.80162944  0.75975207  1.0
  C  C101  1  0.02814097  0.73472453  0.78530789  1.0
  C  C102  1  0.01321302  0.72763664  0.85693668  1.0
  C  C103  1  0.01925392  0.78598676  0.90289782  1.0
  C  C104  1  0.04171307  0.85175319  0.87788398  1.0
  C  C105  1  0.05374162  0.85943929  0.80583462  1.0
  C  C106  1  0.08514936  0.43652931  0.76302208  1.0
  C  C107  1  0.02938011  0.48384013  0.76672178  1.0
  C  C108  1  0.97383337  0.47192415  0.81320737  1.0
  C  C109  1  0.97420702  0.41361133  0.85620734  1.0
  C  C110  1  0.03313477  0.37033137  0.85717335  1.0
  C  C111  1  0.08839522  0.38180289  0.81028943  1.0
  C  C112  1  0.08363856  0.62280504  0.56490256  1.0
  C  C113  1  0.09861158  0.62775590  0.50334360  1.0
  C  C114  1  0.75015331  0.34779903  0.15176398  1.0
  C  C115  1  0.74160944  0.39783468  0.09937203  1.0
  C  C116  1  0.79460397  0.40814395  0.04977651  1.0
  C  C117  1  0.85181090  0.36345705  0.04840894  1.0
  C  C118  1  0.85933228  0.31227596  0.09983377  1.0
  C  C119  1  0.81029303  0.30701592  0.15371633  1.0
  C  C120  1  0.42350252  0.39507744  0.07009653  1.0
  C  C121  1  0.49061828  0.37002815  0.08756090  1.0
  C  C122  1  0.49864562  0.29771224  0.10078073  1.0
  C  C123  1  0.44081264  0.25066365  0.09475224  1.0
  C  C124  1  0.37457687  0.27539690  0.07426139  1.0
  C  C125  1  0.36620564  0.34803946  0.06313918  1.0
  C  C126  1  0.82999635  0.89878444  0.98975846  1.0
  C  C127  1  0.82201514  0.97149053  0.97902358  1.0
  C  C128  1  0.75648295  0.99653179  0.95666935  1.0
  C  C129  1  0.69846348  0.94988099  0.94968789  1.0
  C  C130  1  0.70573570  0.87763505  0.96361434  1.0
  C  C131  1  0.77252035  0.85204550  0.98165691  1.0
  C  C132  1  0.44511057  0.90658980  0.90902072  1.0
  C  C133  1  0.45459911  0.85672349  0.96144943  1.0
  C  C134  1  0.40373696  0.84839022  0.01344973  1.0
  C  C135  1  0.34770290  0.89447304  0.01672309  1.0
  C  C136  1  0.33889391  0.94507460  0.96489419  1.0
  C  C137  1  0.38587378  0.94868886  0.90910116  1.0
  C  C138  1  0.59404311  0.65589724  0.01932298  1.0
  C  C139  1  0.59921233  0.59452032  0.03601424  1.0
  C  C140  1  0.31169563  0.23476715  0.68137975  1.0
  C  C141  1  0.36541839  0.18523417  0.67546838  1.0
  C  C142  1  0.37958826  0.14038975  0.73124930  1.0
  C  C143  1  0.33585716  0.14066091  0.78917849  1.0
  C  C144  1  0.28114688  0.18910649  0.79416364  1.0
  C  C145  1  0.27134315  0.23842446  0.74156712  1.0
  C  C146  1  0.26768918  0.18532471  0.43349248  1.0
  C  C147  1  0.33958710  0.16945956  0.42613461  1.0
  C  C148  1  0.36497547  0.15047705  0.35971257  1.0
  C  C149  1  0.31876393  0.14520291  0.30239356  1.0
  C  C150  1  0.24660575  0.15957142  0.30994176  1.0
  C  C151  1  0.22153862  0.18102248  0.37566686  1.0
  C  C152  1  0.86888877  0.09104361  0.76865127  1.0
  C  C153  1  0.94108235  0.07667128  0.76183762  1.0
  C  C154  1  0.96639497  0.05197743  0.69733529  1.0
  C  C155  1  0.92063154  0.04566616  0.63941272  1.0
  C  C156  1  0.84886982  0.06254746  0.64554186  1.0
  C  C157  1  0.82294622  0.08354839  0.71118539  1.0
  C  C158  1  0.81182861  0.09012047  0.33671234  1.0
  C  C159  1  0.83276590  0.05297235  0.39604026  1.0
  C  C160  1  0.89537909  0.01457510  0.39470793  1.0
  C  C161  1  0.93761720  0.01468814  0.33584157  1.0
  C  C162  1  0.91918052  0.05584259  0.27870566  1.0
  C  C163  1  0.85589663  0.09293946  0.27905750  1.0
  C  C164  1  0.56446680  0.12229418  0.53479959  1.0
  C  C165  1  0.62656187  0.10746572  0.53072759  1.0
  N  N166  1  0.83307620  0.04786271  0.52081027  1.0
  N  N167  1  0.73514367  0.08352360  0.58837380  1.0
  N  N168  1  0.72716019  0.08143430  0.46240056  1.0
  N  N169  1  0.35984610  0.18704304  0.55047767  1.0
  N  N170  1  0.45415378  0.14685631  0.48014874  1.0
  N  N171  1  0.46666123  0.15079137  0.60571128  1.0
  N  N172  1  0.52340386  0.75450496  0.99344208  1.0
  N  N173  1  0.64997212  0.76412653  0.98890686  1.0
  N  N174  1  0.57978854  0.85847120  0.94984713  1.0
  N  N175  1  0.67117051  0.49796759  0.06480016  1.0
  N  N176  1  0.54464052  0.48474472  0.06396712  1.0
  N  N177  1  0.61584309  0.39198195  0.10504580  1.0
  N  N178  1  0.06050908  0.55241379  0.66410881  1.0
  N  N179  1  0.05373151  0.67883256  0.67259082  1.0
  N  N180  1  0.01537515  0.60848380  0.76698878  1.0
  N  N181  1  0.12308649  0.69959619  0.40565559  1.0
  N  N182  1  0.12636540  0.57314684  0.39412319  1.0
  N  N183  1  0.16617345  0.64476960  0.30118065  1.0
  O  O184  1  0.98036562  0.01640549  0.17640606  1.0
  O  O185  1  0.15078437  0.33530422  0.07759967  1.0
  O  O186  1  0.13818193  0.17473691  0.24282647  1.0
  O  O187  1  0.95636877  0.24455759  0.14158964  1.0
  O  O188  1  0.91341805  0.22809988  0.02981131  1.0
  O  O189  1  0.22816216  0.11236998  0.19727525  1.0
  O  O190  1  0.08783516  0.29016401  0.16700574  1.0
  O  O191  1  0.99852309  0.12869283  0.22010448  1.0
  O  O192  1  0.06036862  0.21154922  0.04073355  1.0
  O  O193  1  0.10152562  0.08759954  0.11857122  1.0
  O  O194  1  0.17227039  0.19941418  0.10878137  1.0
  O  O195  1  0.97871197  0.11749966  0.08227736  1.0
  O  O196  1  0.21620738  0.23235080  0.89298393  1.0
  O  O197  1  0.03451670  0.91790881  0.98759857  1.0
  O  O198  1  0.30698977  0.16556954  0.08494147  1.0
  O  O199  1  0.98967649  0.27229033  0.92254021  1.0
  O  O200  1  0.88801820  0.08257404  0.97464434  1.0
  O  O201  1  0.20101279  0.98166457  0.14981958  1.0
  O  O202  1  0.23998796  0.01068337  0.92416655  1.0
  O  O203  1  0.05096108  0.06788396  0.82721148  1.0
  O  O204  1  0.28199833  0.02661184  0.03622758  1.0
  O  O205  1  0.96228950  0.13451405  0.86950787  1.0
  O  O206  1  0.26325820  0.25616072  0.02320435  1.0
  O  O207  1  0.08784422  0.94029974  0.13196406  1.0
  O  O208  1  0.92865203  0.99238224  0.03917662  1.0
  O  O209  1  0.10304101  0.31336445  0.93928868  1.0
  O  O210  1  0.19730624  0.11984114  0.85006110  1.0
  O  O211  1  0.10048011  0.95992259  0.89867142  1.0
  O  O212  1  0.03899855  0.06957932  0.97704014  1.0
  O  O213  1  0.18207270  0.13075030  0.99665883  1.0
  O  O214  1  0.14345326  0.00744373  0.02381528  1.0
  O  O215  1  0.08855897  0.17500592  0.91774993  1.0
