# generated using pymatgen
data_NiH20C20(NO4)2
_symmetry_space_group_name_H-M   'P 1'
_cell_length_a   8.10529314
_cell_length_b   16.93064685
_cell_length_c   16.93061817
_cell_angle_alpha   119.98157135
_cell_angle_beta   89.99823813
_cell_angle_gamma   89.99940316
_symmetry_Int_Tables_number   1
_chemical_formula_structural   NiH20C20(NO4)2
_chemical_formula_sum   'Ni3 H60 C60 N6 O24'
_cell_volume   2012.45576119
_cell_formula_units_Z   3
loop_
 _symmetry_equiv_pos_site_id
 _symmetry_equiv_pos_as_xyz
  1  'x, y, z'
loop_
 _atom_site_type_symbol
 _atom_site_label
 _atom_site_symmetry_multiplicity
 _atom_site_fract_x
 _atom_site_fract_y
 _atom_site_fract_z
 _atom_site_occupancy
  Ni  Ni0  1  0.66646889  0.99995201  0.48613772  1.0
  Ni  Ni1  1  0.33355283  0.48616396  0.99995805  1.0
  Ni  Ni2  1  0.99997617  0.51389349  0.51389786  1.0
  H  H3  1  0.38925563  0.68274333  0.22819905  1.0
  H  H4  1  0.56404580  0.91184036  0.20616309  1.0
  H  H5  1  0.46090854  0.83662822  0.04564426  1.0
  H  H6  1  0.95272297  0.96552511  0.56967743  1.0
  H  H7  1  0.32636533  0.86190063  0.51705724  1.0
  H  H8  1  0.17757722  0.78572865  0.52247866  1.0
  H  H9  1  0.16391998  0.90547760  0.60026469  1.0
  H  H10  1  0.23707979  0.81028305  0.34893727  1.0
  H  H11  1  0.01937339  0.80963672  0.33087340  1.0
  H  H12  1  0.10843147  0.72886566  0.35782754  1.0
  H  H13  1  0.05628584  0.54556014  0.31719095  1.0
  H  H14  1  0.23108956  0.29438093  0.08833864  1.0
  H  H15  1  0.12774059  0.20922791  0.16370273  1.0
  H  H16  1  0.61975353  0.60414528  0.03435957  1.0
  H  H17  1  0.99307207  0.65535031  0.13812094  1.0
  H  H18  1  0.84427114  0.73691749  0.21424596  1.0
  H  H19  1  0.83057996  0.69490082  0.09446983  1.0
  H  H20  1  0.90351257  0.53887535  0.18999472  1.0
  H  H21  1  0.68573018  0.52178190  0.19081080  1.0
  H  H22  1  0.77522026  0.62941638  0.27132644  1.0
  H  H23  1  0.72252506  0.77176420  0.45452845  1.0
  H  H24  1  0.89757226  0.79381319  0.70561378  1.0
  H  H25  1  0.79389698  0.95422296  0.79089925  1.0
  H  H26  1  0.28642006  0.43031685  0.39611167  1.0
  H  H27  1  0.65961646  0.48278995  0.34469940  1.0
  H  H28  1  0.51083545  0.47726874  0.26308040  1.0
  H  H29  1  0.49712552  0.39959792  0.30521657  1.0
  H  H30  1  0.57007885  0.65110433  0.46077539  1.0
  H  H31  1  0.35232044  0.66903433  0.47812644  1.0
  H  H32  1  0.44130365  0.64178583  0.37033350  1.0
  H  H33  1  0.61077587  0.22821658  0.68273454  1.0
  H  H34  1  0.43586502  0.20618122  0.91181193  1.0
  H  H35  1  0.53894029  0.04564999  0.83659873  1.0
  H  H36  1  0.04727330  0.56967368  0.96554076  1.0
  H  H37  1  0.67365580  0.51705789  0.86194234  1.0
  H  H38  1  0.82240484  0.52246119  0.78573715  1.0
  H  H39  1  0.83610833  0.60025419  0.90548579  1.0
  H  H40  1  0.76312175  0.34887328  0.81042152  1.0
  H  H41  1  0.98089307  0.33088574  0.80953160  1.0
  H  H42  1  0.89130542  0.35783850  0.72887982  1.0
  H  H43  1  0.94371677  0.31719267  0.54557027  1.0
  H  H44  1  0.76909662  0.08829629  0.29438327  1.0
  H  H45  1  0.87246204  0.16366137  0.20922442  1.0
  H  H46  1  0.38022981  0.03432418  0.60407303  1.0
  H  H47  1  0.00690621  0.13811806  0.65530460  1.0
  H  H48  1  0.15572171  0.21419863  0.73687935  1.0
  H  H49  1  0.16938369  0.09442279  0.69482664  1.0
  H  H50  1  0.09643008  0.19008093  0.53894527  1.0
  H  H51  1  0.31419340  0.19078000  0.52170818  1.0
  H  H52  1  0.22493996  0.27133485  0.62940527  1.0
  H  H53  1  0.27742331  0.45454530  0.77176122  1.0
  H  H54  1  0.10226261  0.70562277  0.79383403  1.0
  H  H55  1  0.20591558  0.79091245  0.95423670  1.0
  H  H56  1  0.71364942  0.39603972  0.43029146  1.0
  H  H57  1  0.34047025  0.34458489  0.48270017  1.0
  H  H58  1  0.48926959  0.26298363  0.47721434  1.0
  H  H59  1  0.50302046  0.30512221  0.39954249  1.0
  H  H60  1  0.42981371  0.46063043  0.65101785  1.0
  H  H61  1  0.64752873  0.47811498  0.66900841  1.0
  H  H62  1  0.55877186  0.37027434  0.64175844  1.0
  C  C63  1  0.48605404  0.80201870  0.22719952  1.0
  C  C64  1  0.40213139  0.71923308  0.19073815  1.0
  C  C65  1  0.36150068  0.71964437  0.04750430  1.0
  C  C66  1  0.50100306  0.84629615  0.17619011  1.0
  C  C67  1  0.33333333  0.67850048  0.10252170  1.0
  C  C68  1  0.44129751  0.80439388  0.08691585  1.0
  C  C69  1  0.56954765  0.83785981  0.31904708  1.0
  C  C70  1  0.96685376  0.92196593  0.49552271  1.0
  C  C71  1  0.19668165  0.85357154  0.53042115  1.0
  C  C72  1  0.11546955  0.79875766  0.36973580  1.0
  C  C73  1  0.15299415  0.42525582  0.19801665  1.0
  C  C74  1  0.06901113  0.47163131  0.28077996  1.0
  C  C75  1  0.02814043  0.32808133  0.28051350  1.0
  C  C76  1  0.16793807  0.32999733  0.15384465  1.0
  C  C77  1  0.00001759  0.42422109  0.32156774  1.0
  C  C78  1  0.10809777  0.28269799  0.19581689  1.0
  C  C79  1  0.23655451  0.48119950  0.16209546  1.0
  C  C80  1  0.63378832  0.57361443  0.07799421  1.0
  C  C81  1  0.86338116  0.67702013  0.14643842  1.0
  C  C82  1  0.78204455  0.57133157  0.20150702  1.0
  C  C83  1  0.81949147  0.77277924  0.57478575  1.0
  C  C84  1  0.73537048  0.80919920  0.52845558  1.0
  C  C85  1  0.69444941  0.95236037  0.67206232  1.0
  C  C86  1  0.83434830  0.82376100  0.67004698  1.0
  C  C87  1  0.66638150  0.89736650  0.57591839  1.0
  C  C88  1  0.77437566  0.91297854  0.71741003  1.0
  C  C89  1  0.90316009  0.68100653  0.51883380  1.0
  C  C90  1  0.30038867  0.50444996  0.42651929  1.0
  C  C91  1  0.52993047  0.46941673  0.32303144  1.0
  C  C92  1  0.44848430  0.63015054  0.42849157  1.0
  C  C93  1  0.51390479  0.22721859  0.80199863  1.0
  C  C94  1  0.59785449  0.19075011  0.71921530  1.0
  C  C95  1  0.63841698  0.04750236  0.71962276  1.0
  C  C96  1  0.49893138  0.17620351  0.84626971  1.0
  C  C97  1  0.66666667  0.10251841  0.67847754  1.0
  C  C98  1  0.55859783  0.08691435  0.80436466  1.0
  C  C99  1  0.43043068  0.31907466  0.83784633  1.0
  C  C100  1  0.03315346  0.49552142  0.92197981  1.0
  C  C101  1  0.80333188  0.53041138  0.85358986  1.0
  C  C102  1  0.88459097  0.36972728  0.79877289  1.0
  C  C103  1  0.84708727  0.19799833  0.42525928  1.0
  C  C104  1  0.93103174  0.28077794  0.47164439  1.0
  C  C105  1  0.97193541  0.28050540  0.32808885  1.0
  C  C106  1  0.83221440  0.15381943  0.32999988  1.0
  C  C107  1  0.00002346  0.32156684  0.42423651  1.0
  C  C108  1  0.89204135  0.19579428  0.28269632  1.0
  C  C109  1  0.76355201  0.16208266  0.48120714  1.0
  C  C110  1  0.36620435  0.07798803  0.57356526  1.0
  C  C111  1  0.13660084  0.14640800  0.67696943  1.0
  C  C112  1  0.21795924  0.20151644  0.57131860  1.0
  C  C113  1  0.18043470  0.57481227  0.77278675  1.0
  C  C114  1  0.26457460  0.52848320  0.80920712  1.0
  C  C115  1  0.30545688  0.67207921  0.95236197  1.0
  C  C116  1  0.16552505  0.67006288  0.82376897  1.0
  C  C117  1  0.33356547  0.57594966  0.89737276  1.0
  C  C118  1  0.22548968  0.71742241  0.91298178  1.0
  C  C119  1  0.09676221  0.51884948  0.68101053  1.0
  C  C120  1  0.69962598  0.42646117  0.50441738  1.0
  C  C121  1  0.47016506  0.32293286  0.46935171  1.0
  C  C122  1  0.55146964  0.42842163  0.63011037  1.0
  N  N123  1  0.08997984  0.86277207  0.46637293  1.0
  N  N124  1  0.75671055  0.60380569  0.13731853  1.0
  N  N125  1  0.42323180  0.53353339  0.39621446  1.0
  N  N126  1  0.91006182  0.46636428  0.86277918  1.0
  N  N127  1  0.24327849  0.13730515  0.60375692  1.0
  N  N128  1  0.57680140  0.39613483  0.53348747  1.0
  O  O129  1  0.62536844  0.78186297  0.33913575  1.0
  O  O130  1  0.23872816  0.60476987  0.07251867  1.0
  O  O131  1  0.57178130  0.92657614  0.36559446  1.0
  O  O132  1  0.86795385  0.92999054  0.44199287  1.0
  O  O133  1  0.29221585  0.55730633  0.21804613  1.0
  O  O134  1  0.90537115  0.46796204  0.39526530  1.0
  O  O135  1  0.23903917  0.43895935  0.07337272  1.0
  O  O136  1  0.53501497  0.51202425  0.06995702  1.0
  O  O137  1  0.95909695  0.66097069  0.44280305  1.0
  O  O138  1  0.57170805  0.92737311  0.53219676  1.0
  O  O139  1  0.90543721  0.63445944  0.56103033  1.0
  O  O140  1  0.20159765  0.55801747  0.48808228  1.0
  O  O141  1  0.37453978  0.33914673  0.78186697  1.0
  O  O142  1  0.76125484  0.07250666  0.60475037  1.0
  O  O143  1  0.42828777  0.36562670  0.92656885  1.0
  O  O144  1  0.13206139  0.44199721  0.93001614  1.0
  O  O145  1  0.70792109  0.21802639  0.55731740  1.0
  O  O146  1  0.09463884  0.39527506  0.46797884  1.0
  O  O147  1  0.76102332  0.07335214  0.43893724  1.0
  O  O148  1  0.46502865  0.06996959  0.51199102  1.0
  O  O149  1  0.04087983  0.44281568  0.66096608  1.0
  O  O150  1  0.42825676  0.53222424  0.92736057  1.0
  O  O151  1  0.09444579  0.56106154  0.63447487  1.0
  O  O152  1  0.79834200  0.48806079  0.55799845  1.0
