# generated using pymatgen
data_Al2H17C18O10F
_symmetry_space_group_name_H-M   'P 1'
_cell_length_a   6.65621188
_cell_length_b   11.00968816
_cell_length_c   11.14955426
_cell_angle_alpha   80.98773864
_cell_angle_beta   72.89997887
_cell_angle_gamma   72.51961484
_symmetry_Int_Tables_number   1
_chemical_formula_structural   Al2H17C18O10F
_chemical_formula_sum   'Al2 H17 C18 O10 F1'
_cell_volume   742.79125312
_cell_formula_units_Z   1
loop_
 _symmetry_equiv_pos_site_id
 _symmetry_equiv_pos_as_xyz
  1  'x, y, z'
loop_
 _atom_site_type_symbol
 _atom_site_label
 _atom_site_symmetry_multiplicity
 _atom_site_fract_x
 _atom_site_fract_y
 _atom_site_fract_z
 _atom_site_occupancy
  Al  Al0  1  0.50037377  0.50355247  0.49991281  1.0
  Al  Al1  1  0.00253662  0.49872112  0.50054204  1.0
  H  H2  1  0.78960245  0.57834307  0.35036404  1.0
  H  H3  1  0.29648171  0.34856980  0.57245027  1.0
  H  H4  1  0.89036550  0.47837185  0.88733298  1.0
  H  H5  1  0.22671063  0.54544498  0.87219455  1.0
  H  H6  1  0.76335248  0.47166186  0.12321384  1.0
  H  H7  1  0.89486065  0.10002854  0.70577539  1.0
  H  H8  1  0.15956010  0.10191856  0.61310449  1.0
  H  H9  1  0.25697188  0.87829911  0.62713050  1.0
  H  H10  1  0.98576213  0.87827939  0.70925258  1.0
  H  H11  1  0.36662665  0.90071586  0.39190870  1.0
  H  H12  1  0.18579692  0.89842442  0.30420828  1.0
  H  H13  1  0.24475678  0.12426771  0.37708665  1.0
  H  H14  1  0.04861508  0.11954282  0.30126388  1.0
  H  H15  1  0.60796045  0.09763697  0.59739833  1.0
  H  H16  1  0.66416602  0.11534878  0.43224675  1.0
  H  H17  1  0.79439272  0.89387859  0.42148637  1.0
  H  H18  1  0.71686624  0.87615447  0.58635565  1.0
  C  C19  1  0.13687861  0.72991121  0.50504879  1.0
  C  C20  1  0.35851513  0.50105952  0.27122127  1.0
  C  C21  1  0.85968520  0.26831247  0.50241882  1.0
  C  C22  1  0.64051986  0.50890946  0.72582942  1.0
  C  C23  1  0.42605121  0.50596372  0.13068155  1.0
  C  C24  1  0.56717813  0.51073153  0.86591056  1.0
  C  C25  1  0.27845470  0.52844163  0.05673208  1.0
  C  C26  1  0.71855408  0.49148496  0.93643325  1.0
  C  C27  1  0.34525356  0.52951537  0.92661455  1.0
  C  C28  1  0.64780288  0.48815407  0.06689945  1.0
  C  C29  1  0.01947131  0.06589312  0.61952632  1.0
  C  C30  1  0.08603093  0.91803894  0.62411494  1.0
  C  C31  1  0.05607969  0.87438924  0.50695810  1.0
  C  C32  1  0.19501411  0.93387501  0.38884056  1.0
  C  C33  1  0.11193742  0.08151915  0.38419553  1.0
  C  C34  1  0.92825403  0.12331878  0.50438948  1.0
  C  C35  1  0.73638118  0.07011138  0.51048283  1.0
  C  C36  1  0.81448036  0.92327251  0.50605904  1.0
  O  O37  1  0.33153227  0.67700032  0.51278702  1.0
  O  O38  1  0.16973153  0.48675070  0.32635781  1.0
  O  O39  1  0.00026672  0.32201698  0.51037040  1.0
  O  O40  1  0.50237981  0.50056102  0.67162051  1.0
  O  O41  1  0.66701012  0.32605688  0.49377901  1.0
  O  O42  1  0.83547373  0.51335572  0.67247270  1.0
  O  O43  1  0.00695323  0.67149446  0.49259598  1.0
  O  O44  1  0.49736561  0.51147074  0.32451324  1.0
  O  O45  1  0.75485321  0.55529467  0.44023833  1.0
  O  O46  1  0.25572079  0.44052930  0.55494488  1.0
  F  F47  1  0.05959214  0.55303154  0.11088110  1.0
