# generated using pymatgen
data_Zn2H20C25N8
_symmetry_space_group_name_H-M   'P 1'
_cell_length_a   14.61819470
_cell_length_b   15.05364856
_cell_length_c   23.96035772
_cell_angle_alpha   91.42288025
_cell_angle_beta   91.15593394
_cell_angle_gamma   77.68101182
_symmetry_Int_Tables_number   1
_chemical_formula_structural   Zn2H20C25N8
_chemical_formula_sum   'Zn8 H80 C100 N32'
_cell_volume   5149.05954965
_cell_formula_units_Z   4
loop_
 _symmetry_equiv_pos_site_id
 _symmetry_equiv_pos_as_xyz
  1  'x, y, z'
loop_
 _atom_site_type_symbol
 _atom_site_label
 _atom_site_symmetry_multiplicity
 _atom_site_fract_x
 _atom_site_fract_y
 _atom_site_fract_z
 _atom_site_occupancy
  Zn  Zn0  1  0.59039744  0.58939985  0.40325039  1.0
  Zn  Zn1  1  0.46017600  0.43478711  0.43409141  1.0
  Zn  Zn2  1  0.07859539  0.05829870  0.95216414  1.0
  Zn  Zn3  1  0.93374833  0.92314289  0.94317439  1.0
  Zn  Zn4  1  0.48512173  0.41808715  0.57261855  1.0
  Zn  Zn5  1  0.56564630  0.61961454  0.52270299  1.0
  Zn  Zn6  1  0.94370458  0.90536199  0.07931077  1.0
  Zn  Zn7  1  0.07929936  0.05241624  0.08788113  1.0
  H  H8  1  0.44568844  0.76817448  0.42739201  1.0
  H  H9  1  0.48102386  0.33074169  0.31127776  1.0
  H  H10  1  0.93788008  0.25023581  0.93202135  1.0
  H  H11  1  0.00474990  0.81760427  0.82237981  1.0
  H  H12  1  0.71817591  0.08335655  0.50925759  1.0
  H  H13  1  0.65941875  0.96667653  0.49534334  1.0
  H  H14  1  0.06365631  0.54661691  0.00006500  1.0
  H  H15  1  0.12970361  0.42799283  0.06195782  1.0
  H  H16  1  0.75541851  0.37220874  0.27130910  1.0
  H  H17  1  0.29586435  0.62883978  0.31615462  1.0
  H  H18  1  0.31378073  0.85862563  0.80572843  1.0
  H  H19  1  0.61374205  0.23969970  0.90166227  1.0
  H  H20  1  0.51564397  0.32712555  0.17710221  1.0
  H  H21  1  0.22472992  0.87918454  0.41069036  1.0
  H  H22  1  0.07703637  0.78325852  0.72291851  1.0
  H  H23  1  0.86974328  0.30244576  0.84491342  1.0
  H  H24  1  0.18384528  0.69169981  0.65426197  1.0
  H  H25  1  0.78399929  0.38453167  0.76658763  1.0
  H  H26  1  0.62198552  0.22682715  0.11148570  1.0
  H  H27  1  0.13505117  0.95176907  0.32869991  1.0
  H  H28  1  0.92705753  0.46612269  0.58498224  1.0
  H  H29  1  0.09861286  0.43870893  0.59109402  1.0
  H  H30  1  0.42749631  0.81657724  0.10119549  1.0
  H  H31  1  0.59725895  0.80282628  0.09826412  1.0
  H  H32  1  0.11702006  0.31046012  0.42787888  1.0
  H  H33  1  0.94525000  0.33810265  0.42161218  1.0
  H  H34  1  0.58045496  0.82545929  0.91925131  1.0
  H  H35  1  0.41064336  0.84138934  0.92234123  1.0
  H  H36  1  0.32470515  0.53550953  0.63962280  1.0
  H  H37  1  0.69229044  0.49911028  0.71341648  1.0
  H  H38  1  0.75056605  0.04752849  0.11636747  1.0
  H  H39  1  0.17229009  0.00482647  0.21656059  1.0
  H  H40  1  0.25430951  0.37945875  0.41666341  1.0
  H  H41  1  0.80258838  0.44749255  0.39951620  1.0
  H  H42  1  0.72623143  0.86543805  0.91998929  1.0
  H  H43  1  0.25047749  0.89257695  0.92612650  1.0
  H  H44  1  0.62885588  0.82094682  0.54317943  1.0
  H  H45  1  0.65218022  0.24063788  0.57243792  1.0
  H  H46  1  0.13230851  0.25687348  0.11589444  1.0
  H  H47  1  0.09670688  0.71698217  0.09227235  1.0
  H  H48  1  0.27661085  0.37608479  0.59687629  1.0
  H  H49  1  0.75156198  0.47599487  0.57763763  1.0
  H  H50  1  0.75063018  0.82272647  0.09808244  1.0
  H  H51  1  0.27088196  0.89940799  0.10695255  1.0
  H  H52  1  0.67041780  0.78325048  0.36496634  1.0
  H  H53  1  0.62585877  0.27651234  0.39329050  1.0
  H  H54  1  0.16051523  0.24706680  0.93639532  1.0
  H  H55  1  0.06562145  0.72564589  0.91245433  1.0
  H  H56  1  0.46291827  0.75833254  0.61671124  1.0
  H  H57  1  0.51002666  0.30727212  0.70098397  1.0
  H  H58  1  0.93023280  0.23787501  0.09366816  1.0
  H  H59  1  0.01480320  0.79351183  0.19544834  1.0
  H  H60  1  0.27310050  0.56786237  0.41983112  1.0
  H  H61  1  0.63440139  0.53876437  0.27832831  1.0
  H  H62  1  0.74003728  0.07336285  0.91963226  1.0
  H  H63  1  0.19850672  0.99778891  0.83608408  1.0
  H  H64  1  0.69803068  0.11324294  0.38257663  1.0
  H  H65  1  0.72773795  0.94662524  0.37439439  1.0
  H  H66  1  0.27074514  0.54990102  0.98561499  1.0
  H  H67  1  0.26488626  0.38199674  0.96384895  1.0
  H  H68  1  0.45055467  0.74822708  0.83496117  1.0
  H  H69  1  0.47682831  0.64343536  0.79687674  1.0
  H  H70  1  0.56241964  0.71089928  0.80441665  1.0
  H  H71  1  0.49080990  0.72527691  0.70926482  1.0
  H  H72  1  0.46651001  0.83111102  0.74521071  1.0
  H  H73  1  0.46919776  0.36178315  0.91532795  1.0
  H  H74  1  0.46284766  0.46036509  0.87511189  1.0
  H  H75  1  0.36999163  0.40098646  0.87132605  1.0
  H  H76  1  0.46767489  0.36645324  0.78683352  1.0
  H  H77  1  0.47482134  0.26708616  0.82564464  1.0
  H  H78  1  0.86823101  0.22475630  0.30297450  1.0
  H  H79  1  0.89116981  0.13145010  0.25471889  1.0
  H  H80  1  0.98403299  0.18262942  0.27862136  1.0
  H  H81  1  0.93480903  0.23250747  0.18260939  1.0
  H  H82  1  0.91074717  0.32644268  0.22937952  1.0
  H  H83  1  0.36051135  0.61639689  0.22148826  1.0
  H  H84  1  0.28436156  0.54721278  0.24322165  1.0
  H  H85  1  0.29260505  0.56871700  0.17138110  1.0
  H  H86  1  0.14499450  0.66328257  0.21126734  1.0
  H  H87  1  0.21672921  0.72930945  0.18289701  1.0
  C  C88  1  0.41497640  0.70893570  0.43045736  1.0
  C  C89  1  0.51198095  0.39022825  0.31121162  1.0
  C  C90  1  0.90057725  0.19510184  0.93242809  1.0
  C  C91  1  0.04328077  0.87015399  0.83278780  1.0
  C  C92  1  0.36890045  0.66960750  0.64730089  1.0
  C  C93  1  0.61098234  0.39236212  0.73301402  1.0
  C  C94  1  0.81129936  0.17349742  0.11856649  1.0
  C  C95  1  0.11455061  0.87919471  0.22724214  1.0
  C  C96  1  0.22219982  0.37438865  0.50801739  1.0
  C  C97  1  0.82099947  0.44216853  0.49330464  1.0
  C  C98  1  0.69792139  0.83240873  0.00864111  1.0
  C  C99  1  0.30340257  0.87166035  0.01531312  1.0
  C  C100  1  0.66277404  0.83999103  0.45356368  1.0
  C  C101  1  0.66448650  0.21807587  0.47882486  1.0
  C  C102  1  0.15642943  0.29126796  0.02706534  1.0
  C  C103  1  0.09860395  0.67924805  0.00066943  1.0
  C  C104  1  0.70736927  0.07525238  0.42138842  1.0
  C  C105  1  0.70983930  0.97872810  0.41533616  1.0
  C  C106  1  0.20826455  0.52267548  0.99241630  1.0
  C  C107  1  0.21740670  0.42420374  0.99351362  1.0
  C  C108  1  0.70296402  0.12209154  0.47087867  1.0
  C  C109  1  0.68010292  0.93070520  0.45585526  1.0
  C  C110  1  0.12376988  0.57927478  0.99791026  1.0
  C  C111  1  0.16803439  0.38456106  0.02903557  1.0
  C  C112  1  0.34706439  0.77020423  0.73409794  1.0
  C  C113  1  0.60059238  0.32066391  0.82798590  1.0
  C  C114  1  0.78765072  0.28301997  0.20001736  1.0
  C  C115  1  0.20989879  0.73904349  0.27176023  1.0
  C  C116  1  0.72624679  0.34125006  0.23527512  1.0
  C  C117  1  0.25766532  0.69932952  0.31880542  1.0
  C  C118  1  0.28489225  0.82282914  0.77171657  1.0
  C  C119  1  0.65164435  0.27161649  0.87183366  1.0
  C  C120  1  0.62854794  0.35740769  0.22898442  1.0
  C  C121  1  0.26516278  0.74760435  0.36906582  1.0
  C  C122  1  0.18770011  0.82934891  0.76896560  1.0
  C  C123  1  0.74916390  0.26041704  0.87799549  1.0
  C  C124  1  0.59130958  0.31489493  0.18386509  1.0
  C  C125  1  0.22099750  0.83963775  0.37227336  1.0
  C  C126  1  0.15230163  0.77937372  0.72654548  1.0
  C  C127  1  0.79421895  0.30829295  0.84131178  1.0
  C  C128  1  0.21254030  0.72774354  0.68814799  1.0
  C  C129  1  0.74562566  0.35476174  0.79706196  1.0
  C  C130  1  0.65144292  0.25827036  0.14712620  1.0
  C  C131  1  0.17105641  0.88040984  0.32597162  1.0
  C  C132  1  0.36750784  0.58174816  0.62654098  1.0
  C  C133  1  0.64366159  0.45655579  0.70079511  1.0
  C  C134  1  0.80590912  0.08260890  0.10693151  1.0
  C  C135  1  0.12540670  0.96076505  0.20364836  1.0
  C  C136  1  0.30982757  0.72286909  0.69038655  1.0
  C  C137  1  0.64957753  0.35771375  0.78710859  1.0
  C  C138  1  0.74949044  0.24036119  0.15436107  1.0
  C  C139  1  0.16465104  0.83220699  0.27552955  1.0
  C  C140  1  0.96826628  0.43071058  0.55050770  1.0
  C  C141  1  0.06557965  0.41507303  0.55396858  1.0
  C  C142  1  0.46048056  0.81860979  0.06094581  1.0
  C  C143  1  0.55685004  0.81072885  0.05924300  1.0
  C  C144  1  0.12169337  0.37575649  0.50898946  1.0
  C  C145  1  0.92191831  0.40803806  0.50182442  1.0
  C  C146  1  0.60202878  0.81887186  0.00890404  1.0
  C  C147  1  0.40435498  0.83574066  0.01235838  1.0
  C  C148  1  0.07557215  0.34555028  0.46239091  1.0
  C  C149  1  0.97833637  0.36117841  0.45889598  1.0
  C  C150  1  0.54752518  0.82366185  0.95953910  1.0
  C  C151  1  0.45115046  0.83202748  0.96127594  1.0
  C  C152  1  0.27550364  0.37891347  0.46039100  1.0
  C  C153  1  0.77516955  0.46156975  0.44133721  1.0
  C  C154  1  0.74668673  0.85782165  0.96371708  1.0
  C  C155  1  0.24134703  0.90268951  0.97081869  1.0
  C  C156  1  0.63496793  0.79717718  0.49996483  1.0
  C  C157  1  0.63709477  0.26384867  0.52999554  1.0
  C  C158  1  0.13636531  0.23953778  0.07158458  1.0
  C  C159  1  0.08185671  0.73482264  0.04887169  1.0
  C  C160  1  0.28625755  0.37888407  0.55217658  1.0
  C  C161  1  0.75095561  0.47780480  0.53233598  1.0
  C  C162  1  0.75892146  0.83625895  0.05437652  1.0
  C  C163  1  0.25150740  0.90570121  0.06302000  1.0
  C  C164  1  0.65703651  0.77821548  0.40904532  1.0
  C  C165  1  0.62409896  0.28184621  0.43855564  1.0
  C  C166  1  0.15240219  0.23391092  0.98019045  1.0
  C  C167  1  0.06564693  0.73925139  0.95715839  1.0
  C  C168  1  0.43944093  0.69461184  0.61636718  1.0
  C  C169  1  0.54975611  0.35969220  0.69566527  1.0
  C  C170  1  0.89794990  0.17958754  0.09644036  1.0
  C  C171  1  0.04642056  0.85224293  0.19247195  1.0
  C  C172  1  0.32782359  0.60604379  0.42636946  1.0
  C  C173  1  0.59090396  0.49569638  0.29486107  1.0
  C  C174  1  0.79937816  0.10523569  0.92682376  1.0
  C  C175  1  0.14268966  0.96109186  0.84040569  1.0
  C  C176  1  0.32792544  0.69593060  0.41137236  1.0
  C  C177  1  0.57399846  0.41356606  0.27290360  1.0
  C  C178  1  0.80870374  0.19368510  0.91420811  1.0
  C  C179  1  0.12698988  0.88434266  0.81034700  1.0
  C  C180  1  0.45118029  0.76245895  0.74402224  1.0
  C  C181  1  0.48711261  0.71367060  0.79825263  1.0
  C  C182  1  0.49482015  0.33372519  0.82595387  1.0
  C  C183  1  0.44657764  0.39234714  0.87480621  1.0
  C  C184  1  0.89020414  0.26227550  0.21731226  1.0
  C  C185  1  0.90953115  0.19662364  0.26631918  1.0
  C  C186  1  0.21245143  0.68406897  0.21772595  1.0
  C  C187  1  0.29178922  0.59954109  0.21344706  1.0
  N  N188  1  0.46558392  0.62995936  0.45255371  1.0
  N  N189  1  0.49528652  0.45230599  0.35345787  1.0
  N  N190  1  0.94241497  0.11353444  0.95262005  1.0
  N  N191  1  0.01268425  0.93245353  0.87337974  1.0
  N  N192  1  0.43278905  0.55593999  0.58705695  1.0
  N  N193  1  0.60646707  0.46222128  0.64918720  1.0
  N  N194  1  0.88490162  0.03837725  0.08182324  1.0
  N  N195  1  0.06872893  0.98027928  0.15841340  1.0
  N  N196  1  0.36316105  0.38597173  0.47513023  1.0
  N  N197  1  0.68633665  0.50630632  0.44907397  1.0
  N  N198  1  0.82917098  0.87514690  0.98138415  1.0
  N  N199  1  0.16085766  0.95310155  0.99081774  1.0
  N  N200  1  0.61465444  0.71737305  0.48456063  1.0
  N  N201  1  0.58271476  0.34639226  0.52043717  1.0
  N  N202  1  0.12271292  0.15833682  0.05277045  1.0
  N  N203  1  0.04123243  0.82084389  0.03474309  1.0
  N  N204  1  0.37008992  0.38581358  0.53233754  1.0
  N  N205  1  0.67122170  0.51632713  0.50515158  1.0
  N  N206  1  0.83681810  0.86164632  0.03788476  1.0
  N  N207  1  0.16717886  0.95472329  0.04740746  1.0
  N  N208  1  0.62772872  0.70553461  0.42804073  1.0
  N  N209  1  0.57532295  0.35729733  0.46405000  1.0
  N  N210  1  0.13185650  0.15517962  0.99565541  1.0
  N  N211  1  0.03158756  0.82349919  0.97834923  1.0
  N  N212  1  0.47711133  0.62595566  0.58117073  1.0
  N  N213  1  0.54862720  0.40152885  0.64615709  1.0
  N  N214  1  0.94176329  0.09788344  0.07557109  1.0
  N  N215  1  0.01916182  0.91264733  0.15179402  1.0
  N  N216  1  0.40977192  0.56736660  0.45042206  1.0
  N  N217  1  0.54402230  0.51867079  0.34289085  1.0
  N  N218  1  0.88042580  0.05776703  0.94919283  1.0
  N  N219  1  0.07459856  0.98948814  0.87787337  1.0
