# generated using pymatgen
data_ZnHC15N3O4F9
_symmetry_space_group_name_H-M   'P 1'
_cell_length_a   11.32759208
_cell_length_b   15.86846849
_cell_length_c   17.17048433
_cell_angle_alpha   91.59155348
_cell_angle_beta   93.20196079
_cell_angle_gamma   110.29296665
_symmetry_Int_Tables_number   1
_chemical_formula_structural   ZnHC15N3O4F9
_chemical_formula_sum   'Zn2 H2 C30 N6 O8 F18'
_cell_volume   2886.66698098
_cell_formula_units_Z   2
loop_
 _symmetry_equiv_pos_site_id
 _symmetry_equiv_pos_as_xyz
  1  'x, y, z'
loop_
 _atom_site_type_symbol
 _atom_site_label
 _atom_site_symmetry_multiplicity
 _atom_site_fract_x
 _atom_site_fract_y
 _atom_site_fract_z
 _atom_site_occupancy
  Zn  Zn0  1  0.94191424  0.40779037  0.50942814  1.0
  Zn  Zn1  1  0.07046587  0.59703562  0.49950558  1.0
  H  H2  1  0.68545405  0.31100408  0.44270204  1.0
  H  H3  1  0.32605292  0.69546600  0.56651495  1.0
  C  C4  1  0.96072713  0.48168427  0.35458229  1.0
  C  C5  1  0.04741140  0.52246368  0.65450080  1.0
  C  C6  1  0.97545659  0.40284480  0.22737581  1.0
  C  C7  1  0.99136315  0.58518299  0.77817980  1.0
  C  C8  1  0.31078752  0.74780146  0.53207510  1.0
  C  C9  1  0.70151516  0.25761122  0.47519921  1.0
  C  C10  1  0.40238149  0.83228548  0.53033716  1.0
  C  C11  1  0.61032522  0.17274419  0.47544706  1.0
  C  C12  1  0.38211740  0.89849181  0.48326901  1.0
  C  C13  1  0.63222357  0.10492225  0.51950489  1.0
  C  C14  1  0.26636133  0.87296389  0.43879599  1.0
  C  C15  1  0.74963275  0.12879579  0.56186807  1.0
  C  C16  1  0.17740750  0.78708427  0.44502907  1.0
  C  C17  1  0.83799600  0.21509038  0.55706978  1.0
  C  C18  1  0.80309475  0.53874845  0.51760512  1.0
  C  C19  1  0.20819552  0.46455535  0.49377500  1.0
  C  C20  1  0.68027976  0.55345945  0.51904515  1.0
  C  C21  1  0.33028889  0.44830425  0.49438175  1.0
  C  C22  1  0.56396362  0.48987249  0.52318758  1.0
  C  C23  1  0.44546458  0.50645970  0.52195301  1.0
  C  C24  1  0.95019909  0.47228984  0.26668477  1.0
  C  C25  1  0.04453781  0.52795913  0.74208988  1.0
  C  C26  1  0.92536188  0.53727769  0.22177348  1.0
  C  C27  1  0.08424133  0.47129808  0.78991017  1.0
  C  C28  1  0.93100713  0.53628469  0.14109945  1.0
  C  C29  1  0.06691206  0.46831590  0.86956378  1.0
  C  C30  1  0.96298156  0.46859716  0.10133216  1.0
  C  C31  1  0.01014311  0.52439587  0.90561424  1.0
  C  C32  1  0.98149816  0.40068071  0.14658644  1.0
  C  C33  1  0.97566972  0.58419875  0.85796683  1.0
  N  N34  1  0.97637462  0.45995274  0.02125131  1.0
  N  N35  1  0.99256248  0.53161159  0.98515008  1.0
  N  N36  1  0.19904840  0.72711357  0.49029382  1.0
  N  N37  1  0.81441404  0.27693733  0.51523572  1.0
  N  N38  1  0.47043676  0.98383759  0.47142212  1.0
  N  N39  1  0.54390344  0.01949989  0.53077993  1.0
  O  O40  1  0.89653759  0.41478162  0.39126219  1.0
  O  O41  1  0.08366458  0.59604732  0.62042526  1.0
  O  O42  1  0.03682993  0.55667125  0.38297375  1.0
  O  O43  1  0.00864663  0.44329530  0.62328002  1.0
  O  O44  1  0.80237763  0.46027058  0.53107619  1.0
  O  O45  1  0.21554374  0.54582879  0.50340100  1.0
  O  O46  1  0.89672605  0.60670382  0.50203356  1.0
  O  O47  1  0.10878590  0.39543335  0.48327036  1.0
  F  F48  1  0.45599763  0.58887377  0.55196125  1.0
  F  F49  1  0.55182628  0.40218085  0.52709612  1.0
  F  F50  1  0.06630717  0.76364430  0.40409990  1.0
  F  F51  1  0.95077973  0.23713856  0.59586008  1.0
  F  F52  1  0.32218957  0.36685654  0.46398393  1.0
  F  F53  1  0.68762099  0.63960646  0.51114605  1.0
  F  F54  1  0.14212771  0.41791672  0.75928398  1.0
  F  F55  1  0.89466841  0.60329493  0.25701556  1.0
  F  F56  1  0.11107105  0.41404316  0.91180562  1.0
  F  F57  1  0.90239887  0.59991274  0.10245413  1.0
  F  F58  1  0.01086222  0.33418625  0.11195541  1.0
  F  F59  1  0.92148632  0.63919144  0.88938722  1.0
  F  F60  1  0.00068330  0.33844159  0.26763219  1.0
  F  F61  1  0.94853796  0.64031141  0.73575249  1.0
  F  F62  1  0.49860782  0.15684659  0.43574378  1.0
  F  F63  1  0.51301760  0.84906982  0.57156995  1.0
  F  F64  1  0.23928636  0.93083952  0.39209541  1.0
  F  F65  1  0.77872231  0.06886904  0.60497709  1.0
