# generated using pymatgen
data_Sm2Cu3H24(C4O5)6
_symmetry_space_group_name_H-M   'P 1'
_cell_length_a   14.71039189
_cell_length_b   14.90816660
_cell_length_c   14.90808724
_cell_angle_alpha   60.00026862
_cell_angle_beta   89.99997215
_cell_angle_gamma   89.99991751
_symmetry_Int_Tables_number   1
_chemical_formula_structural   Sm2Cu3H24(C4O5)6
_chemical_formula_sum   'Sm4 Cu6 H48 C48 O60'
_cell_volume   2831.40642202
_cell_formula_units_Z   2
loop_
 _symmetry_equiv_pos_site_id
 _symmetry_equiv_pos_as_xyz
  1  'x, y, z'
loop_
 _atom_site_type_symbol
 _atom_site_label
 _atom_site_symmetry_multiplicity
 _atom_site_fract_x
 _atom_site_fract_y
 _atom_site_fract_z
 _atom_site_occupancy
  Sm  Sm0  1  0.75000033  0.33333333  0.33333333  1.0
  Sm  Sm1  1  0.75000006  0.66666667  0.66666667  1.0
  Sm  Sm2  1  0.25000046  0.66666667  0.66666667  1.0
  Sm  Sm3  1  0.25000006  0.33333333  0.33333333  1.0
  Cu  Cu4  1  0.00000112  0.49999954  0.49999936  1.0
  Cu  Cu5  1  0.00000056  0.49999907  0.00000118  1.0
  Cu  Cu6  1  0.00000012  0.99999876  0.50000019  1.0
  Cu  Cu7  1  0.50000016  0.49999945  0.00000087  1.0
  Cu  Cu8  1  0.50000003  0.49999992  0.49999972  1.0
  Cu  Cu9  1  0.49999972  0.00000146  0.49999939  1.0
  H  H10  1  0.84771223  0.20178540  0.64088162  1.0
  H  H11  1  0.75785596  0.28663870  0.63388750  1.0
  H  H12  1  0.84771339  0.64088051  0.15733471  1.0
  H  H13  1  0.75785789  0.63388563  0.07947431  1.0
  H  H14  1  0.84771169  0.15733179  0.20178563  1.0
  H  H15  1  0.75785688  0.07947202  0.28663955  1.0
  H  H16  1  0.84771056  0.79821543  0.35911737  1.0
  H  H17  1  0.75785509  0.71336150  0.36611185  1.0
  H  H18  1  0.84771280  0.35911956  0.84266533  1.0
  H  H19  1  0.75785725  0.36611380  0.92052542  1.0
  H  H20  1  0.84771110  0.84266828  0.79821374  1.0
  H  H21  1  0.75785621  0.92052896  0.71336008  1.0
  H  H22  1  0.65228804  0.79821449  0.84266684  1.0
  H  H23  1  0.74214429  0.71336203  0.92052611  1.0
  H  H24  1  0.65228634  0.35911966  0.79821563  1.0
  H  H25  1  0.74214120  0.36611439  0.71335972  1.0
  H  H26  1  0.65228813  0.84266801  0.35911802  1.0
  H  H27  1  0.74214224  0.92052865  0.36611247  1.0
  H  H28  1  0.65228792  0.20178665  0.15733276  1.0
  H  H29  1  0.74214408  0.28663821  0.07947323  1.0
  H  H30  1  0.65228690  0.64087993  0.20178542  1.0
  H  H31  1  0.74214309  0.63388661  0.28663991  1.0
  H  H32  1  0.65228851  0.15733235  0.64088331  1.0
  H  H33  1  0.74214273  0.07947159  0.63388888  1.0
  H  H34  1  0.15228789  0.79821443  0.35911871  1.0
  H  H35  1  0.24214415  0.71336191  0.36611177  1.0
  H  H36  1  0.15228673  0.35911932  0.84266562  1.0
  H  H37  1  0.24214155  0.36611420  0.92052669  1.0
  H  H38  1  0.15228843  0.84266882  0.79821364  1.0
  H  H39  1  0.24214256  0.92052858  0.71335972  1.0
  H  H40  1  0.15228956  0.20178518  0.64088190  1.0
  H  H41  1  0.24214503  0.28663756  0.63388886  1.0
  H  H42  1  0.15228664  0.64088028  0.15733499  1.0
  H  H43  1  0.24214219  0.63388603  0.07947491  1.0
  H  H44  1  0.15228834  0.15733155  0.20178659  1.0
  H  H45  1  0.24214390  0.07947165  0.28663986  1.0
  H  H46  1  0.34771139  0.20178534  0.15733282  1.0
  H  H47  1  0.25785515  0.28663858  0.07947383  1.0
  H  H48  1  0.34771378  0.64088171  0.20178393  1.0
  H  H49  1  0.25785892  0.63388544  0.28664061  1.0
  H  H50  1  0.34771199  0.15733182  0.64088231  1.0
  H  H51  1  0.25785788  0.07947196  0.63388747  1.0
  H  H52  1  0.34771152  0.79821472  0.84266680  1.0
  H  H53  1  0.25785604  0.71336163  0.92052575  1.0
  H  H54  1  0.34771253  0.35911913  0.79821530  1.0
  H  H55  1  0.25785702  0.36611323  0.71336109  1.0
  H  H56  1  0.34771093  0.84266749  0.35911634  1.0
  H  H57  1  0.25785670  0.92052824  0.36611078  1.0
  C  C58  1  0.86088107  0.35832767  0.51580982  1.0
  C  C59  1  0.80273651  0.26575857  0.58786087  1.0
  C  C60  1  0.86088241  0.51580611  0.12586177  1.0
  C  C61  1  0.80273706  0.58785936  0.14638036  1.0
  C  C62  1  0.86088468  0.12585770  0.35833012  1.0
  C  C63  1  0.80273668  0.14637910  0.26575909  1.0
  C  C64  1  0.86088364  0.64167315  0.48418447  1.0
  C  C65  1  0.80273626  0.73424234  0.41213810  1.0
  C  C66  1  0.86088366  0.48418463  0.87414561  1.0
  C  C67  1  0.80273571  0.41213922  0.85361978  1.0
  C  C68  1  0.86088343  0.87413848  0.64167186  1.0
  C  C69  1  0.80273541  0.85362180  0.73424123  1.0
  C  C70  1  0.63911719  0.64167136  0.87414021  1.0
  C  C71  1  0.69726378  0.73424206  0.85361945  1.0
  C  C72  1  0.63911736  0.48419388  0.64166789  1.0
  C  C73  1  0.69726268  0.41214075  0.73424021  1.0
  C  C74  1  0.63911507  0.87414083  0.48418843  1.0
  C  C75  1  0.69726380  0.85362004  0.41213844  1.0
  C  C76  1  0.63911685  0.35832825  0.12585949  1.0
  C  C77  1  0.69726356  0.26575901  0.14638016  1.0
  C  C78  1  0.63911668  0.51581580  0.35832946  1.0
  C  C79  1  0.69726466  0.58786110  0.26575767  1.0
  C  C80  1  0.63911624  0.12586034  0.51581049  1.0
  C  C81  1  0.69726286  0.14637872  0.58786233  1.0
  C  C82  1  0.13911905  0.64167217  0.48418983  1.0
  C  C83  1  0.19726361  0.73424204  0.41213840  1.0
  C  C84  1  0.13911771  0.48419449  0.87413750  1.0
  C  C85  1  0.19726306  0.41214047  0.85361930  1.0
  C  C86  1  0.13911408  0.87414446  0.64167106  1.0
  C  C87  1  0.19726344  0.85362073  0.73424124  1.0
  C  C88  1  0.13911648  0.35832745  0.51581480  1.0
  C  C89  1  0.19726386  0.26575827  0.58786184  1.0
  C  C90  1  0.13911646  0.51581520  0.12585472  1.0
  C  C91  1  0.19726441  0.58786061  0.14638055  1.0
  C  C92  1  0.13911601  0.12586136  0.35832779  1.0
  C  C93  1  0.19726402  0.14637881  0.26575871  1.0
  C  C94  1  0.36088225  0.35832769  0.12586051  1.0
  C  C95  1  0.30273634  0.26575777  0.14638088  1.0
  C  C96  1  0.36088344  0.51580517  0.35833283  1.0
  C  C97  1  0.30273676  0.58785986  0.26575973  1.0
  C  C98  1  0.36088436  0.12585978  0.51581151  1.0
  C  C99  1  0.30273632  0.14637979  0.58786189  1.0
  C  C100  1  0.36088327  0.64167390  0.87414169  1.0
  C  C101  1  0.30273656  0.73424159  0.85361911  1.0
  C  C102  1  0.36088276  0.48418481  0.64167048  1.0
  C  C103  1  0.30273546  0.41213873  0.73424266  1.0
  C  C104  1  0.36088455  0.87413949  0.48418850  1.0
  C  C105  1  0.30273590  0.85362112  0.41213598  1.0
  O  O106  1  0.90840594  0.39193034  0.56427576  1.0
  O  O107  1  0.85787435  0.39204875  0.41968964  1.0
  O  O108  1  0.90841002  0.56427597  0.04379919  1.0
  O  O109  1  0.85787779  0.41968646  0.18826341  1.0
  O  O110  1  0.90840896  0.04379589  0.39192539  1.0
  O  O111  1  0.85787722  0.18826013  0.39205143  1.0
  O  O112  1  0.90840926  0.60807428  0.43572131  1.0
  O  O113  1  0.85787556  0.60795052  0.58031214  1.0
  O  O114  1  0.90840586  0.43572399  0.95620289  1.0
  O  O115  1  0.85787621  0.58031590  0.81173548  1.0
  O  O116  1  0.90840897  0.95620717  0.60807178  1.0
  O  O117  1  0.85787541  0.81174223  0.60795082  1.0
  O  O118  1  0.59159365  0.60807191  0.95620450  1.0
  O  O119  1  0.64212463  0.60795013  0.81173711  1.0
  O  O120  1  0.59158910  0.43572315  0.60807556  1.0
  O  O121  1  0.64212198  0.58031356  0.60795000  1.0
  O  O122  1  0.59159148  0.95620339  0.43572367  1.0
  O  O123  1  0.64212249  0.81173695  0.58031415  1.0
  O  O124  1  0.59159466  0.39193011  0.04379402  1.0
  O  O125  1  0.64212489  0.39204948  0.18826594  1.0
  O  O126  1  0.59159445  0.56427577  0.39192585  1.0
  O  O127  1  0.64212414  0.41968450  0.39205048  1.0
  O  O128  1  0.59159002  0.04379397  0.56427986  1.0
  O  O129  1  0.64212226  0.18825878  0.41969085  1.0
  O  O130  1  0.09159418  0.60807027  0.43572351  1.0
  O  O131  1  0.14212509  0.60795186  0.58031030  1.0
  O  O132  1  0.09159010  0.43572386  0.95620047  1.0
  O  O133  1  0.14212233  0.58031337  0.81173692  1.0
  O  O134  1  0.09159116  0.95620239  0.60807437  1.0
  O  O135  1  0.14212289  0.81173738  0.60794805  1.0
  O  O136  1  0.09159221  0.39192633  0.56427729  1.0
  O  O137  1  0.14212523  0.39204853  0.41968724  1.0
  O  O138  1  0.09159425  0.56427506  0.04379783  1.0
  O  O139  1  0.14212323  0.41968470  0.18826446  1.0
  O  O140  1  0.09159115  0.04379265  0.39192721  1.0
  O  O141  1  0.14212471  0.18825760  0.39204951  1.0
  O  O142  1  0.40840579  0.39192715  0.04379554  1.0
  O  O143  1  0.35787549  0.39204970  0.18826188  1.0
  O  O144  1  0.40841034  0.56427668  0.39192410  1.0
  O  O145  1  0.35787814  0.41968704  0.39204995  1.0
  O  O146  1  0.40840796  0.04379644  0.56427733  1.0
  O  O147  1  0.35787762  0.18826288  0.41968618  1.0
  O  O148  1  0.40840614  0.60807050  0.95620525  1.0
  O  O149  1  0.35787523  0.60795035  0.81173573  1.0
  O  O150  1  0.40840635  0.43572484  0.60807342  1.0
  O  O151  1  0.35787598  0.58031456  0.60795024  1.0
  O  O152  1  0.40841077  0.95620741  0.43571835  1.0
  O  O153  1  0.35787718  0.81174260  0.58030536  1.0
  O  O154  1  0.74999968  0.23635466  0.52728824  1.0
  O  O155  1  0.75000022  0.52728886  0.23635533  1.0
  O  O156  1  0.75000111  0.23635517  0.23635663  1.0
  O  O157  1  0.75000004  0.76364477  0.47271150  1.0
  O  O158  1  0.74999882  0.47271135  0.76364402  1.0
  O  O159  1  0.74999928  0.76364504  0.76364272  1.0
  O  O160  1  0.25000044  0.76364517  0.47271209  1.0
  O  O161  1  0.24999922  0.47271097  0.76364500  1.0
  O  O162  1  0.25000037  0.76364466  0.76364303  1.0
  O  O163  1  0.25000008  0.23635506  0.52728883  1.0
  O  O164  1  0.25000062  0.52728848  0.23635631  1.0
  O  O165  1  0.25000015  0.23635479  0.23635761  1.0
