# generated using pymatgen
data_Zn2H17C25SN8O3
_symmetry_space_group_name_H-M   'P 1'
_cell_length_a   14.98845697
_cell_length_b   15.05634518
_cell_length_c   24.15268211
_cell_angle_alpha   89.99764297
_cell_angle_beta   89.99963045
_cell_angle_gamma   102.15902815
_symmetry_Int_Tables_number   1
_chemical_formula_structural   Zn2H17C25SN8O3
_chemical_formula_sum   'Zn8 H68 C100 S4 N32 O12'
_cell_volume   5328.29522393
_cell_formula_units_Z   4
loop_
 _symmetry_equiv_pos_site_id
 _symmetry_equiv_pos_as_xyz
  1  'x, y, z'
loop_
 _atom_site_type_symbol
 _atom_site_label
 _atom_site_symmetry_multiplicity
 _atom_site_fract_x
 _atom_site_fract_y
 _atom_site_fract_z
 _atom_site_occupancy
  Zn  Zn0  1  0.53746768  0.44511345  0.55676072  1.0
  Zn  Zn1  1  0.39443630  0.58147431  0.56147728  1.0
  Zn  Zn2  1  0.10560294  0.91856594  0.06151652  1.0
  Zn  Zn3  1  0.96253627  0.05488264  0.05678280  1.0
  Zn  Zn4  1  0.38440036  0.57137328  0.42169132  1.0
  Zn  Zn5  1  0.53183260  0.44217285  0.42105702  1.0
  Zn  Zn6  1  0.96818072  0.05786802  0.92107640  1.0
  Zn  Zn7  1  0.11557635  0.92860923  0.92172433  1.0
  H  H8  1  0.41734218  0.26874908  0.61226164  1.0
  H  H9  1  0.66693489  0.10363036  0.35689033  1.0
  H  H10  1  0.83281123  0.39639206  0.85703414  1.0
  H  H11  1  0.97099966  0.57831051  0.85137059  1.0
  H  H12  1  0.25072476  0.13439519  0.32835236  1.0
  H  H13  1  0.63575317  0.81178107  0.29222203  1.0
  H  H14  1  0.86410649  0.68821660  0.79233743  1.0
  H  H15  1  0.24933691  0.36560298  0.82835823  1.0
  H  H16  1  0.73077327  0.60111329  0.74335329  1.0
  H  H17  1  0.29328126  0.42600762  0.73500533  1.0
  H  H18  1  0.20675921  0.07400431  0.23499640  1.0
  H  H19  1  0.50091400  0.72174720  0.66110042  1.0
  H  H20  1  0.76911312  0.89887643  0.24325100  1.0
  H  H21  1  0.30239337  0.40593225  0.26194005  1.0
  H  H22  1  0.67939108  0.56767762  0.21432741  1.0
  H  H23  1  0.82062541  0.93227833  0.71430196  1.0
  H  H24  1  0.19760493  0.09407855  0.76192857  1.0
  H  H25  1  0.88216223  0.66108868  0.40001354  1.0
  H  H26  1  0.04738766  0.67197401  0.40323133  1.0
  H  H27  1  0.45261520  0.82802394  0.90323647  1.0
  H  H28  1  0.61784861  0.83891498  0.90002137  1.0
  H  H29  1  0.03368975  0.63896407  0.58053674  1.0
  H  H30  1  0.99914709  0.77828967  0.16116973  1.0
  H  H31  1  0.86919551  0.62942534  0.57745846  1.0
  H  H32  1  0.63079009  0.87055440  0.07746424  1.0
  H  H33  1  0.46629575  0.86099975  0.08054434  1.0
  H  H34  1  0.23142319  0.43460403  0.36035646  1.0
  H  H35  1  0.63751615  0.50260403  0.30845832  1.0
  H  H36  1  0.86248716  0.99741439  0.80846400  1.0
  H  H37  1  0.26854507  0.06534782  0.86032384  1.0
  H  H38  1  0.19228414  0.64194032  0.58208894  1.0
  H  H39  1  0.71700229  0.59608741  0.57515719  1.0
  H  H40  1  0.78298745  0.90387839  0.07516271  1.0
  H  H41  1  0.08265451  0.23126854  0.11226714  1.0
  H  H42  1  0.30775930  0.85811681  0.08210608  1.0
  H  H43  1  0.18457267  0.62120159  0.40347553  1.0
  H  H44  1  0.72053189  0.58858084  0.39610676  1.0
  H  H45  1  0.77945689  0.91150752  0.89611452  1.0
  H  H46  1  0.31538677  0.87873369  0.90348414  1.0
  H  H47  1  0.41554650  0.25427954  0.39165776  1.0
  H  H48  1  0.46195106  0.69646120  0.30764494  1.0
  H  H49  1  0.03794323  0.80345718  0.80772937  1.0
  H  H50  1  0.08452460  0.24574794  0.89168391  1.0
  H  H51  1  0.23494457  0.45486173  0.63041192  1.0
  H  H52  1  0.64999986  0.93472806  0.35557203  1.0
  H  H53  1  0.67563011  0.52762512  0.65928967  1.0
  H  H54  1  0.82433003  0.97232004  0.15924384  1.0
  H  H55  1  0.26510041  0.04519685  0.13040393  1.0
  H  H56  1  0.57871951  0.08385941  0.57382303  1.0
  H  H57  1  0.55081851  0.92155777  0.57114295  1.0
  H  H58  1  0.94948073  0.57845615  0.07121717  1.0
  H  H59  1  0.92157601  0.41616032  0.07389186  1.0
  H  H60  1  0.68452819  0.87800837  0.56144947  1.0
  H  H61  1  0.22101911  0.21628929  0.58854540  1.0
  H  H62  1  0.27899207  0.28375737  0.08855138  1.0
  H  H63  1  0.54553725  0.08939529  0.35438787  1.0
  H  H64  1  0.81572211  0.62166006  0.06154552  1.0
  H  H65  1  0.59768952  0.24805369  0.39759207  1.0
  H  H66  1  0.52664074  0.75906435  0.39445120  1.0
  H  H67  1  0.97330491  0.74095523  0.89454601  1.0
  H  H68  1  0.90239426  0.25204208  0.89764220  1.0
  H  H69  1  0.57945377  0.23903328  0.57637904  1.0
  H  H70  1  0.52149789  0.77164858  0.57344196  1.0
  H  H71  1  0.97857457  0.72838903  0.07352924  1.0
  H  H72  1  0.92048089  0.26092677  0.07643466  1.0
  H  H73  1  0.95420835  0.41066396  0.85443074  1.0
  H  H74  1  0.84967385  0.56526950  0.85573650  1.0
  H  H75  1  0.52866379  0.92173227  0.35133600  1.0
  C  C76  1  0.38075250  0.32350912  0.60920478  1.0
  C  C77  1  0.76165747  0.61135568  0.48603542  1.0
  C  C78  1  0.19282809  0.16117384  0.14168983  1.0
  C  C79  1  0.73833059  0.88867370  0.98604125  1.0
  C  C80  1  0.35200278  0.85950644  0.99263370  1.0
  C  C81  1  0.59266829  0.20195316  0.48662459  1.0
  C  C82  1  0.53997007  0.80840813  0.48300426  1.0
  C  C83  1  0.96006424  0.69161690  0.98310081  1.0
  C  C84  1  0.90735900  0.29806335  0.98668018  1.0
  C  C85  1  0.59689694  0.05593466  0.43652589  1.0
  C  C86  1  0.58559932  0.96155055  0.43519589  1.0
  C  C87  1  0.91431641  0.53848264  0.93529330  1.0
  C  C88  1  0.53294202  0.66453059  0.65464867  1.0
  C  C89  1  0.90303194  0.44409776  0.93661402  1.0
  C  C90  1  0.59378334  0.10564349  0.48521390  1.0
  C  C91  1  0.56785404  0.90709537  0.48252182  1.0
  C  C92  1  0.93219855  0.59292568  0.98261980  1.0
  C  C93  1  0.90625737  0.39437565  0.98528870  1.0
  C  C94  1  0.58202167  0.05179635  0.53361337  1.0
  C  C95  1  0.56842382  0.95747486  0.53219892  1.0
  C  C96  1  0.93176171  0.54253795  0.03228537  1.0
  C  C97  1  0.91815678  0.44821499  0.03368974  1.0
  C  C98  1  0.59079299  0.95820987  0.37240495  1.0
  C  C99  1  0.96709486  0.83548424  0.15469208  1.0
  C  C100  1  0.60223511  0.06485895  0.37384535  1.0
  C  C101  1  0.89754028  0.43517198  0.87394120  1.0
  C  C102  1  0.90894234  0.54181401  0.87250440  1.0
  C  C103  1  0.25264434  0.18139406  0.29377467  1.0
  C  C104  1  0.67326333  0.77658678  0.26390781  1.0
  C  C105  1  0.82663035  0.72339956  0.76399707  1.0
  C  C106  1  0.24740586  0.31860741  0.79377921  1.0
  C  C107  1  0.75089777  0.67413204  0.73623053  1.0
  C  C108  1  0.27149074  0.35279658  0.74092492  1.0
  C  C109  1  0.22854143  0.14721410  0.24092104  1.0
  C  C110  1  0.11925640  0.17651893  0.10921040  1.0
  C  C111  1  0.74901878  0.82584852  0.23615712  1.0
  C  C112  1  0.69571503  0.71437744  0.70071418  1.0
  C  C113  1  0.27317379  0.29607268  0.69468394  1.0
  C  C114  1  0.22684187  0.20395009  0.19468657  1.0
  C  C115  1  0.80426720  0.78558806  0.20069212  1.0
  C  C116  1  0.28386905  0.40055867  0.37534749  1.0
  C  C117  1  0.58421463  0.54065669  0.31458581  1.0
  C  C118  1  0.91576977  0.95934392  0.81460678  1.0
  C  C119  1  0.21612363  0.09940837  0.87533279  1.0
  C  C120  1  0.72523344  0.80986064  0.69397491  1.0
  C  C121  1  0.30564706  0.31952208  0.35625276  1.0
  C  C122  1  0.24569695  0.20181215  0.70437565  1.0
  C  C123  1  0.25430230  0.29820897  0.20438070  1.0
  C  C124  1  0.77479572  0.69009108  0.19398236  1.0
  C  C125  1  0.27822557  0.33289451  0.25701572  1.0
  C  C126  1  0.69898740  0.64048134  0.22182746  1.0
  C  C127  1  0.80100962  0.85948368  0.72183916  1.0
  C  C128  1  0.22178394  0.16711588  0.75701093  1.0
  C  C129  1  0.27636096  0.27542093  0.30308377  1.0
  C  C130  1  0.64758363  0.68179446  0.25822524  1.0
  C  C131  1  0.85235736  0.81818421  0.75828007  1.0
  C  C132  1  0.57732680  0.62481446  0.29199148  1.0
  C  C133  1  0.22367172  0.22457969  0.80308461  1.0
  C  C134  1  0.91478892  0.65618671  0.43995889  1.0
  C  C135  1  0.00861652  0.66195226  0.44178554  1.0
  C  C136  1  0.49138193  0.83804042  0.94179046  1.0
  C  C137  1  0.58521009  0.84381141  0.93996362  1.0
  C  C138  1  0.05349757  0.65159394  0.49182377  1.0
  C  C139  1  0.86117559  0.63988952  0.48816560  1.0
  C  C140  1  0.63881666  0.86011386  0.98817146  1.0
  C  C141  1  0.44649729  0.84838638  0.99182972  1.0
  C  C142  1  0.00124203  0.64457288  0.54062367  1.0
  C  C143  1  0.92262557  0.87516305  0.79203760  1.0
  C  C144  1  0.90766022  0.63915173  0.53882103  1.0
  C  C145  1  0.59232886  0.86083471  0.03882661  1.0
  C  C146  1  0.49874658  0.85540122  0.04063108  1.0
  C  C147  1  0.20462293  0.63379497  0.53825865  1.0
  C  C148  1  0.70315081  0.58609981  0.53136100  1.0
  C  C149  1  0.79683628  0.91390389  0.03136862  1.0
  C  C150  1  0.29539984  0.86622531  0.03827447  1.0
  C  C151  1  0.59191566  0.26082222  0.44156222  1.0
  C  C152  1  0.51860581  0.74717652  0.43861584  1.0
  C  C153  1  0.98136051  0.75285088  0.93870738  1.0
  C  C154  1  0.19437618  0.18046912  0.85625247  1.0
  C  C155  1  0.90814386  0.23922780  0.94160805  1.0
  C  C156  1  0.20118617  0.62437266  0.44730449  1.0
  C  C157  1  0.70498550  0.58314002  0.44003080  1.0
  C  C158  1  0.79499749  0.91692344  0.94003993  1.0
  C  C159  1  0.29879441  0.87558908  0.94731707  1.0
  C  C160  1  0.58260612  0.25629714  0.53266773  1.0
  C  C161  1  0.51597825  0.75341198  0.53002177  1.0
  C  C162  1  0.98408254  0.74662129  0.03010814  1.0
  C  C163  1  0.91737857  0.24369303  0.03271882  1.0
  C  C164  1  0.37662305  0.30754386  0.39148673  1.0
  C  C165  1  0.14799357  0.64047441  0.49262541  1.0
  C  C166  1  0.49617760  0.64077317  0.31512743  1.0
  C  C167  1  0.00375422  0.85917663  0.81518726  1.0
  C  C168  1  0.12341860  0.19245940  0.89149721  1.0
  C  C169  1  0.28787447  0.41889890  0.61891109  1.0
  C  C170  1  0.62145478  0.56500937  0.65468131  1.0
  C  C171  1  0.87853156  0.93496057  0.15466896  1.0
  C  C172  1  0.21216144  0.08115147  0.11890814  1.0
  C  C173  1  0.30719400  0.33886685  0.64168996  1.0
  C  C174  1  0.61959552  0.65375896  0.67252837  1.0
  C  C175  1  0.88040677  0.84621964  0.17252933  1.0
  S  S176  1  0.67458472  0.87979182  0.64981194  1.0
  S  S177  1  0.23741066  0.11971938  0.65033052  1.0
  S  S178  1  0.26257356  0.38031223  0.15034095  1.0
  S  S179  1  0.82556073  0.62010814  0.14991414  1.0
  N  N180  1  0.40413354  0.39061177  0.57155958  1.0
  N  N181  1  0.61960808  0.54399232  0.51369060  1.0
  N  N182  1  0.88037506  0.95603159  0.01370216  1.0
  N  N183  1  0.21548607  0.88447355  0.02136639  1.0
  N  N184  1  0.58184541  0.34280686  0.45932577  1.0
  N  N185  1  0.48289486  0.66315296  0.45821196  1.0
  N  N186  1  0.01706914  0.83688373  0.95828875  1.0
  N  N187  1  0.91820353  0.15723570  0.95936229  1.0
  N  N188  1  0.28226143  0.60983441  0.46454665  1.0
  N  N189  1  0.62073422  0.54244562  0.45741571  1.0
  N  N190  1  0.87924719  0.95761392  0.95742839  1.0
  N  N191  1  0.48919389  0.59030424  0.62714518  1.0
  N  N192  1  0.21772939  0.89014679  0.96456756  1.0
  N  N193  1  0.57615227  0.34010229  0.51614353  1.0
  N  N194  1  0.48202353  0.66738321  0.51436799  1.0
  N  N195  1  0.01799133  0.83265523  0.01444414  1.0
  N  N196  1  0.92384946  0.15990173  0.01618168  1.0
  N  N197  1  0.39813293  0.37855932  0.42718117  1.0
  N  N198  1  0.45894305  0.57236500  0.34949399  1.0
  N  N199  1  0.04100361  0.92759372  0.84954185  1.0
  N  N200  1  0.10189318  0.12143483  0.92718531  1.0
  N  N201  1  0.34635784  0.44899531  0.57729228  1.0
  N  N202  1  0.01084966  0.90972267  0.12719760  1.0
  N  N203  1  0.54501357  0.52804815  0.62675563  1.0
  N  N204  1  0.95499658  0.97194843  0.12677268  1.0
  N  N205  1  0.15366460  0.05104173  0.07729976  1.0
  N  N206  1  0.09587414  0.10941081  0.07157120  1.0
  N  N207  1  0.33959164  0.43537329  0.41732639  1.0
  N  N208  1  0.51447166  0.51010816  0.34938805  1.0
  N  N209  1  0.98550780  0.98988060  0.84941379  1.0
  N  N210  1  0.16040532  0.06459801  0.91731475  1.0
  N  N211  1  0.28453452  0.61554672  0.52134316  1.0
  O  O212  1  0.57655901  0.86109998  0.65698205  1.0
  O  O213  1  0.92358733  0.63890439  0.15708571  1.0
  O  O214  1  0.77731386  0.52687050  0.15429432  1.0
  O  O215  1  0.80033431  0.66046039  0.09154511  1.0
  O  O216  1  0.72291356  0.97301868  0.65408794  1.0
  O  O217  1  0.69978287  0.83923090  0.59149828  1.0
  O  O218  1  0.32787978  0.11931101  0.63003667  1.0
  O  O219  1  0.17771471  0.03703467  0.66766281  1.0
  O  O220  1  0.18141625  0.16053281  0.60315707  1.0
  O  O221  1  0.17210342  0.38072006  0.13005172  1.0
  O  O222  1  0.32226344  0.46300093  0.16767437  1.0
  O  O223  1  0.31858082  0.33951791  0.10316710  1.0
