# generated using pymatgen
data_AlH5C10NO8
_symmetry_space_group_name_H-M   'P 1'
_cell_length_a   6.80737566
_cell_length_b   11.00559438
_cell_length_c   11.06165822
_cell_angle_alpha   77.22033462
_cell_angle_beta   73.36097439
_cell_angle_gamma   73.33011923
_symmetry_Int_Tables_number   1
_chemical_formula_structural   AlH5C10NO8
_chemical_formula_sum   'Al2 H10 C20 N2 O16'
_cell_volume   751.87852601
_cell_formula_units_Z   2
loop_
 _symmetry_equiv_pos_site_id
 _symmetry_equiv_pos_as_xyz
  1  'x, y, z'
loop_
 _atom_site_type_symbol
 _atom_site_label
 _atom_site_symmetry_multiplicity
 _atom_site_fract_x
 _atom_site_fract_y
 _atom_site_fract_z
 _atom_site_occupancy
  Al  Al0  1  0.50344773  0.50632750  0.48308758  1.0
  Al  Al1  1  0.00381957  0.50819808  0.48234780  1.0
  H  H2  1  0.28154177  0.60386783  0.33041733  1.0
  H  H3  1  0.75984884  0.36924803  0.60433748  1.0
  H  H4  1  0.35240339  0.54900602  0.86705179  1.0
  H  H5  1  0.65746671  0.45646561  0.09936623  1.0
  H  H6  1  0.86275578  0.75629604  0.65403396  1.0
  H  H7  1  0.99124622  0.85953472  0.78153895  1.0
  H  H8  1  0.56702322  0.21745027  0.68451481  1.0
  H  H9  1  0.83718775  0.09304916  0.79927447  1.0
  H  H10  1  0.10267317  0.21891552  0.43384172  1.0
  H  H11  1  0.33543202  0.79069549  0.43076287  1.0
  C  C12  1  0.64968554  0.73276380  0.49499415  1.0
  C  C13  1  0.85312139  0.50236651  0.25816151  1.0
  C  C14  1  0.34474008  0.27538571  0.50606519  1.0
  C  C15  1  0.15377633  0.50980233  0.70737460  1.0
  C  C16  1  0.93434636  0.49783934  0.11762213  1.0
  C  C17  1  0.07341995  0.51043133  0.84839252  1.0
  C  C18  1  0.13151998  0.52030953  0.05000494  1.0
  C  C19  1  0.87801923  0.48532428  0.91620454  1.0
  C  C20  1  0.20026540  0.52888336  0.91855677  1.0
  C  C21  1  0.80853705  0.47790020  0.04770432  1.0
  C  C22  1  0.55665494  0.86526822  0.52158778  1.0
  C  C23  1  0.64535821  0.92717363  0.58946234  1.0
  C  C24  1  0.37569350  0.93374667  0.47728552  1.0
  C  C25  1  0.80088467  0.85800431  0.65756572  1.0
  C  C26  1  0.87218404  0.91624734  0.72984888  1.0
  C  C27  1  0.40150285  0.13444194  0.52880493  1.0
  C  C28  1  0.29987982  0.06987309  0.47896999  1.0
  C  C29  1  0.56393348  0.06173890  0.59545883  1.0
  C  C30  1  0.63631383  0.11745286  0.67327738  1.0
  C  C31  1  0.78759256  0.04698603  0.73905012  1.0
  N  N32  1  0.28378188  0.52323560  0.11967637  1.0
  N  N33  1  0.72703719  0.47703472  0.84810508  1.0
  O  O34  1  0.53274619  0.67754670  0.46042339  1.0
  O  O35  1  0.97788116  0.52524609  0.31211171  1.0
  O  O36  1  0.16608761  0.33248530  0.47498067  1.0
  O  O37  1  0.33544071  0.52974711  0.65521853  1.0
  O  O38  1  0.47197707  0.33642361  0.51477040  1.0
  O  O39  1  0.03204041  0.48503811  0.65267780  1.0
  O  O40  1  0.83914890  0.67740103  0.50029633  1.0
  O  O41  1  0.66816492  0.48738885  0.30979670  1.0
  O  O42  1  0.25483569  0.56840171  0.42085861  1.0
  O  O43  1  0.75447041  0.44634293  0.54133667  1.0
  O  O44  1  0.37811236  0.41660777  0.16486526  1.0
  O  O45  1  0.31443200  0.62775507  0.12348330  1.0
  O  O46  1  0.69927824  0.37073575  0.84877760  1.0
  O  O47  1  0.62932101  0.58176704  0.80142459  1.0
  O  O48  1  0.13814746  0.12624202  0.42409988  1.0
  O  O49  1  0.26757234  0.88491838  0.42451390  1.0
