# generated using pymatgen
data_Zn4H6C24S4N2O13F4
_symmetry_space_group_name_H-M   'P 1'
_cell_length_a   19.67998665
_cell_length_b   19.75071587
_cell_length_c   33.39114246
_cell_angle_alpha   78.89717025
_cell_angle_beta   79.10120645
_cell_angle_gamma   63.89154276
_symmetry_Int_Tables_number   1
_chemical_formula_structural   Zn4H6C24S4N2O13F4
_chemical_formula_sum   'Zn16 H24 C96 S16 N8 O52 F16'
_cell_volume   11356.01159732
_cell_formula_units_Z   4
loop_
 _symmetry_equiv_pos_site_id
 _symmetry_equiv_pos_as_xyz
  1  'x, y, z'
loop_
 _atom_site_type_symbol
 _atom_site_label
 _atom_site_symmetry_multiplicity
 _atom_site_fract_x
 _atom_site_fract_y
 _atom_site_fract_z
 _atom_site_occupancy
  Zn  Zn0  1  0.05384932  0.40106797  0.47758277  1.0
  Zn  Zn1  1  0.98574356  0.48402514  0.56073414  1.0
  Zn  Zn2  1  0.05938505  0.55990393  0.48300050  1.0
  Zn  Zn3  1  0.90149018  0.55384781  0.47929343  1.0
  Zn  Zn4  1  0.69567586  0.34859909  0.27260081  1.0
  Zn  Zn5  1  0.68968264  0.18894758  0.26546960  1.0
  Zn  Zn6  1  0.76698793  0.26674226  0.19023149  1.0
  Zn  Zn7  1  0.84721769  0.19529606  0.27194546  1.0
  Zn  Zn8  1  0.26513240  0.76507569  0.68936416  1.0
  Zn  Zn9  1  0.34917891  0.69768848  0.77215127  1.0
  Zn  Zn10  1  0.19450455  0.84823383  0.77112180  1.0
  Zn  Zn11  1  0.19147039  0.68918399  0.76707726  1.0
  Zn  Zn12  1  0.55947260  0.06177744  0.98453641  1.0
  Zn  Zn13  1  0.40169321  0.05310902  0.97673434  1.0
  Zn  Zn14  1  0.55589124  0.90233203  0.97860854  1.0
  Zn  Zn15  1  0.48183360  0.98440050  0.05969693  1.0
  H  H16  1  0.75059856  0.44917034  0.34796339  1.0
  H  H17  1  0.00038536  0.30308044  0.40030658  1.0
  H  H18  1  0.19908456  0.70184621  0.60196224  1.0
  H  H19  1  0.04772217  0.55136221  0.64809217  1.0
  H  H20  1  0.64975371  0.14665142  0.04938522  1.0
  H  H21  1  0.60432101  0.09927291  0.20057084  1.0
  H  H22  1  0.30237719  0.99803859  0.90213474  1.0
  H  H23  1  0.44638208  0.74958704  0.84968277  1.0
  H  H24  1  0.79151096  0.54071319  0.41843667  1.0
  H  H25  1  0.72460397  0.54433161  0.38973770  1.0
  H  H26  1  0.95566895  0.20742114  0.33388146  1.0
  H  H27  1  0.01910379  0.20078455  0.36584711  1.0
  H  H28  1  0.14816600  0.64329456  0.52007386  1.0
  H  H29  1  0.19949801  0.68679926  0.53304671  1.0
  H  H30  1  0.10643788  0.60215415  0.73004022  1.0
  H  H31  1  0.06207662  0.55148556  0.71710047  1.0
  H  H32  1  0.72706806  0.23232615  0.10444799  1.0
  H  H33  1  0.71048099  0.22327321  0.05688727  1.0
  H  H34  1  0.51770867  0.02276075  0.14548248  1.0
  H  H35  1  0.52747603  0.03859376  0.19311944  1.0
  H  H36  1  0.20880540  0.95939258  0.83162152  1.0
  H  H37  1  0.20645666  0.02550262  0.86016105  1.0
  H  H38  1  0.54418617  0.79278091  0.91583300  1.0
  H  H39  1  0.55014217  0.73008849  0.88387792  1.0
  C  C40  1  0.06183533  0.31688751  0.56140506  1.0
  C  C41  1  0.07107095  0.57175396  0.56827114  1.0
  C  C42  1  0.18325098  0.43907679  0.43859343  1.0
  C  C43  1  0.93697194  0.68311695  0.43879624  1.0
  C  C44  1  0.92804950  0.43229074  0.43018280  1.0
  C  C45  1  0.81765002  0.56025695  0.56245064  1.0
  C  C46  1  0.56672715  0.30996316  0.31101029  1.0
  C  C47  1  0.68260498  0.18047575  0.17882068  1.0
  C  C48  1  0.68910787  0.43329564  0.18866276  1.0
  C  C49  1  0.93404693  0.18852890  0.18943754  1.0
  C  C50  1  0.82156926  0.31842291  0.31956994  1.0
  C  C51  1  0.81089593  0.06643904  0.31141770  1.0
  C  C52  1  0.43268420  0.68987648  0.68836329  1.0
  C  C53  1  0.31659825  0.82308555  0.81976727  1.0
  C  C54  1  0.18822835  0.93267265  0.68796893  1.0
  C  C55  1  0.06644542  0.80987053  0.81117632  1.0
  C  C56  1  0.17860757  0.67851920  0.68178898  1.0
  C  C57  1  0.31424360  0.56694031  0.81146870  1.0
  C  C58  1  0.43784888  0.18323738  0.93852336  1.0
  C  C59  1  0.43385734  0.92642843  0.93022261  1.0
  C  C60  1  0.68374005  0.94126364  0.93928887  1.0
  C  C61  1  0.56065088  0.81742906  0.06187967  1.0
  C  C62  1  0.56814527  0.06876552  0.07113601  1.0
  C  C63  1  0.31508428  0.06155283  0.05980765  1.0
  C  C64  1  0.89908251  0.40615828  0.40117274  1.0
  C  C65  1  0.85182329  0.34600554  0.34719608  1.0
  C  C66  1  0.82674389  0.45045794  0.38616403  1.0
  C  C67  1  0.92499971  0.30252931  0.36136662  1.0
  C  C68  1  0.80559850  0.41775025  0.35976801  1.0
  C  C69  1  0.94548023  0.33461818  0.38841425  1.0
  C  C70  1  0.09840858  0.60176866  0.59614373  1.0
  C  C71  1  0.14848827  0.65133047  0.65391409  1.0
  C  C72  1  0.14128626  0.64613065  0.58169226  1.0
  C  C73  1  0.10387990  0.60870835  0.66836572  1.0
  C  C74  1  0.16548882  0.66870998  0.61159543  1.0
  C  C75  1  0.08106018  0.58474209  0.63846021  1.0
  C  C76  1  0.30455297  0.45219100  0.40056483  1.0
  C  C77  1  0.44570073  0.29640130  0.34936842  1.0
  C  C78  1  0.25816813  0.41393855  0.41389078  1.0
  C  C79  1  0.49197596  0.33474511  0.33593293  1.0
  C  C80  1  0.37725622  0.33861502  0.37295501  1.0
  C  C81  1  0.37301731  0.40993967  0.37701855  1.0
  C  C82  1  0.72519129  0.57606755  0.62963948  1.0
  C  C83  1  0.52522139  0.67322547  0.62123349  1.0
  C  C84  1  0.74288005  0.58489223  0.58727735  1.0
  C  C85  1  0.50755743  0.66455524  0.66360319  1.0
  C  C86  1  0.60435475  0.64109555  0.60850067  1.0
  C  C87  1  0.64604521  0.60793009  0.64238093  1.0
  C  C88  1  0.07749628  0.22436353  0.62859620  1.0
  C  C89  1  0.17360814  0.02491734  0.62069485  1.0
  C  C90  1  0.08673120  0.24208773  0.58622827  1.0
  C  C91  1  0.16413335  0.00732119  0.66305802  1.0
  C  C92  1  0.14226408  0.10387488  0.60774896  1.0
  C  C93  1  0.10895385  0.14542058  0.64148442  1.0
  C  C94  1  0.84374581  0.80106879  0.39749649  1.0
  C  C95  1  0.90377564  0.94866112  0.35292754  1.0
  C  C96  1  0.91204172  0.75779048  0.41392208  1.0
  C  C97  1  0.83553492  0.99182527  0.33640458  1.0
  C  C98  1  0.90756448  0.87887987  0.37512270  1.0
  C  C99  1  0.84020476  0.87059671  0.37507134  1.0
  C  C100  1  0.65595186  0.15155339  0.15003742  1.0
  C  C101  1  0.59777626  0.09467759  0.09990883  1.0
  C  C102  1  0.67093162  0.16558639  0.10633568  1.0
  C  C103  1  0.58433899  0.07910544  0.14360850  1.0
  C  C104  1  0.64033046  0.13664130  0.08280786  1.0
  C  C105  1  0.61389031  0.10911237  0.16714150  1.0
  C  C106  1  0.67335722  0.52571676  0.12143968  1.0
  C  C107  1  0.57576688  0.72512504  0.12914841  1.0
  C  C108  1  0.66384313  0.50809513  0.16381562  1.0
  C  C109  1  0.58546432  0.74273705  0.08677636  1.0
  C  C110  1  0.60769033  0.64622651  0.14213771  1.0
  C  C111  1  0.64164103  0.60462307  0.10844885  1.0
  C  C112  1  0.08085395  0.12442564  0.17672118  1.0
  C  C113  1  0.16821770  0.12622470  0.07250755  1.0
  C  C114  1  0.00851948  0.16378915  0.16436932  1.0
  C  C115  1  0.24053975  0.08684860  0.08483699  1.0
  C  C116  1  0.10956001  0.14043680  0.10572705  1.0
  C  C117  1  0.13949966  0.11058998  0.14351010  1.0
  C  C118  1  0.34343983  0.85110783  0.84890546  1.0
  C  C119  1  0.40543082  0.89666110  0.90276408  1.0
  C  C120  1  0.29972492  0.92300867  0.86396979  1.0
  C  C121  1  0.44824911  0.82386055  0.88861200  1.0
  C  C122  1  0.33329761  0.94332735  0.89032506  1.0
  C  C123  1  0.41532700  0.80416647  0.86162192  1.0
  C  C124  1  0.40714269  0.44831784  0.85278853  1.0
  C  C125  1  0.34548137  0.30161917  0.89690564  1.0
  C  C126  1  0.33918361  0.49199940  0.83611994  1.0
  C  C127  1  0.41341282  0.25797985  0.91363818  1.0
  C  C128  1  0.34260559  0.37104191  0.87461497  1.0
  C  C129  1  0.41015406  0.37875271  0.87496721  1.0
  C  C130  1  0.94515884  0.79723213  0.84979594  1.0
  C  C131  1  0.80467277  0.95435617  0.90029684  1.0
  C  C132  1  0.99166891  0.83522209  0.83597820  1.0
  C  C133  1  0.75818595  0.91637122  0.91413456  1.0
  C  C134  1  0.87291984  0.91155189  0.87675714  1.0
  C  C135  1  0.87679430  0.84014903  0.87318688  1.0
  S  S136  1  0.29862630  0.32425255  0.39751180  1.0
  S  S137  1  0.45151256  0.42440348  0.35234876  1.0
  S  S138  1  0.66141427  0.63300665  0.56215239  1.0
  S  S139  1  0.58899911  0.61619017  0.68872569  1.0
  S  S140  1  0.13487403  0.16093563  0.56131365  1.0
  S  S141  1  0.11614829  0.08851238  0.68794040  1.0
  S  S142  1  0.97366278  0.80258574  0.40194147  1.0
  S  S143  1  0.77420860  0.94673859  0.34810547  1.0
  S  S144  1  0.61505832  0.58933264  0.18861786  1.0
  S  S145  1  0.63457308  0.66151938  0.06197353  1.0
  S  S146  1  0.01156927  0.18464056  0.11109632  1.0
  S  S147  1  0.23748174  0.06648576  0.13813471  1.0
  S  S148  1  0.27718981  0.44762348  0.84757835  1.0
  S  S149  1  0.47547184  0.30227034  0.90213176  1.0
  S  S150  1  0.95154778  0.92538684  0.85172640  1.0
  S  S151  1  0.79811515  0.82636623  0.89818571  1.0
  N  N152  1  0.77947451  0.52283943  0.39526144  1.0
  N  N153  1  0.97570667  0.23351241  0.34893921  1.0
  N  N154  1  0.15732145  0.66890154  0.54077717  1.0
  N  N155  1  0.08113478  0.59271326  0.70923866  1.0
  N  N156  1  0.71498689  0.20326266  0.08696832  1.0
  N  N157  1  0.54665725  0.03514351  0.16294887  1.0
  N  N158  1  0.22709110  0.97082372  0.85487182  1.0
  N  N159  1  0.51758518  0.77276954  0.90107132  1.0
  O  O160  1  0.00059954  0.49880339  0.50020371  1.0
  O  O161  1  0.07756541  0.31595806  0.52243089  1.0
  O  O162  1  0.03408314  0.53182087  0.58455745  1.0
  O  O163  1  0.15623510  0.50471620  0.45024847  1.0
  O  O164  1  0.02738225  0.37486204  0.58070926  1.0
  O  O165  1  0.15243062  0.39211425  0.44594957  1.0
  O  O166  1  0.08618531  0.58722478  0.52921478  1.0
  O  O167  1  0.00450927  0.65573478  0.44896697  1.0
  O  O168  1  0.88519647  0.49750036  0.44266176  1.0
  O  O169  1  0.88989996  0.65271916  0.44794401  1.0
  O  O170  1  0.99394239  0.38862788  0.44139367  1.0
  O  O171  1  0.87641672  0.52712699  0.58148372  1.0
  O  O172  1  0.81590439  0.57508052  0.52345728  1.0
  O  O173  1  0.74879170  0.25057189  0.25028049  1.0
  O  O174  1  0.59680058  0.35760203  0.30351155  1.0
  O  O175  1  0.66602871  0.16452549  0.21739036  1.0
  O  O176  1  0.72390682  0.37541905  0.16925478  1.0
  O  O177  1  0.59416780  0.24431900  0.29935568  1.0
  O  O178  1  0.67347509  0.43387730  0.22764005  1.0
  O  O179  1  0.72076233  0.22023752  0.16349848  1.0
  O  O180  1  0.87619314  0.22544131  0.16946747  1.0
  O  O181  1  0.86358527  0.25230095  0.30805773  1.0
  O  O182  1  0.93360191  0.17128369  0.22823829  1.0
  O  O183  1  0.75527253  0.36162453  0.30872895  1.0
  O  O184  1  0.74523017  0.09235930  0.29908361  1.0
  O  O185  1  0.85680092  0.09813365  0.30440215  1.0
  O  O186  1  0.25049249  0.75002934  0.74989585  1.0
  O  O187  1  0.37434059  0.72417533  0.66900888  1.0
  O  O188  1  0.36081937  0.75819249  0.80795705  1.0
  O  O189  1  0.17262966  0.93408992  0.72693685  1.0
  O  O190  1  0.43394143  0.67457250  0.72735898  1.0
  O  O191  1  0.22173118  0.87431972  0.66894686  1.0
  O  O192  1  0.25048558  0.86556051  0.80781759  1.0
  O  O193  1  0.09562500  0.85828570  0.80229290  1.0
  O  O194  1  0.16386843  0.66267475  0.72084563  1.0
  O  O195  1  0.09517508  0.74303863  0.80091616  1.0
  O  O196  1  0.21793547  0.71616343  0.66552627  1.0
  O  O197  1  0.35961625  0.59923076  0.80405677  1.0
  O  O198  1  0.24796411  0.59254800  0.79984070  1.0
  O  O199  1  0.49980445  0.00070186  0.99964541  1.0
  O  O200  1  0.50399802  0.15713628  0.95033571  1.0
  O  O201  1  0.39079116  0.99256200  0.94073395  1.0
  O  O202  1  0.65374650  0.89352085  0.94678556  1.0
  O  O203  1  0.39171255  0.15181313  0.94592966  1.0
  O  O204  1  0.65628651  0.00664216  0.95122969  1.0
  O  O205  1  0.50028810  0.88442167  0.94188973  1.0
  O  O206  1  0.57934015  0.81654056  0.02301971  1.0
  O  O207  1  0.52849739  0.03046928  0.08644894  1.0
  O  O208  1  0.52319291  0.87556842  0.08087829  1.0
  O  O209  1  0.58332389  0.08610011  0.03257087  1.0
  O  O210  1  0.31581152  0.07497943  0.02090924  1.0
  O  O211  1  0.37271565  0.02777910  0.08014283  1.0
  F  F212  1  0.28766315  0.52230437  0.40863071  1.0
  F  F213  1  0.46273282  0.22626737  0.34132915  1.0
  F  F214  1  0.77682982  0.54104335  0.65649646  1.0
  F  F215  1  0.47367106  0.70842420  0.59432466  1.0
  F  F216  1  0.04236264  0.27564210  0.65539486  1.0
  F  F217  1  0.20879368  0.97345265  0.59401331  1.0
  F  F218  1  0.78598700  0.78037435  0.40191185  1.0
  F  F219  1  0.96144084  0.96946537  0.34867770  1.0
  F  F220  1  0.70895770  0.47430584  0.09470994  1.0
  F  F221  1  0.54009136  0.77656056  0.15583720  1.0
  F  F222  1  0.09539400  0.10119288  0.21594755  1.0
  F  F223  1  0.15377239  0.14934901  0.03326783  1.0
  F  F224  1  0.46510516  0.46862274  0.84872480  1.0
  F  F225  1  0.28742235  0.28145211  0.90100364  1.0
  F  F226  1  0.96185642  0.72690492  0.84220754  1.0
  F  F227  1  0.78798155  0.02461814  0.90797182  1.0
