# generated using pymatgen
data_Zn4H33C33N3O16
_symmetry_space_group_name_H-M   'P 1'
_cell_length_a   16.20972688
_cell_length_b   16.37687914
_cell_length_c   16.97066695
_cell_angle_alpha   90.66006501
_cell_angle_beta   117.96598976
_cell_angle_gamma   119.50521520
_symmetry_Int_Tables_number   1
_chemical_formula_structural   Zn4H33C33N3O16
_chemical_formula_sum   'Zn8 H66 C66 N6 O32'
_cell_volume   3286.18742625
_cell_formula_units_Z   2
loop_
 _symmetry_equiv_pos_site_id
 _symmetry_equiv_pos_as_xyz
  1  'x, y, z'
loop_
 _atom_site_type_symbol
 _atom_site_label
 _atom_site_symmetry_multiplicity
 _atom_site_fract_x
 _atom_site_fract_y
 _atom_site_fract_z
 _atom_site_occupancy
  Zn  Zn0  1  0.07248215  0.04734356  0.12459526  1.0
  Zn  Zn1  1  0.06807913  0.03108851  0.93809851  1.0
  Zn  Zn2  1  0.86688457  0.02908349  0.93630296  1.0
  Zn  Zn3  1  0.88113725  0.84214413  0.96150254  1.0
  Zn  Zn4  1  0.89873919  0.46092897  0.35299736  1.0
  Zn  Zn5  1  0.87148101  0.45059908  0.53405645  1.0
  Zn  Zn6  1  0.06436714  0.64175720  0.53552851  1.0
  Zn  Zn7  1  0.08245212  0.46134574  0.54561853  1.0
  H  H8  1  0.52456892  0.48307467  0.50060786  1.0
  H  H9  1  0.51694536  0.42227271  0.58481930  1.0
  H  H10  1  0.40138519  0.36387741  0.46474390  1.0
  H  H11  1  0.52136014  0.29299960  0.51166829  1.0
  H  H12  1  0.64109209  0.41252881  0.54184039  1.0
  H  H13  1  0.62549744  0.48345708  0.40604923  1.0
  H  H14  1  0.41715667  0.43305074  0.32650842  1.0
  H  H15  1  0.48328428  0.48833810  0.26592733  1.0
  H  H16  1  0.28008535  0.32572977  0.15637158  1.0
  H  H17  1  0.47604761  0.20278966  0.22593137  1.0
  H  H18  1  0.56071740  0.39523575  0.22952871  1.0
  H  H19  1  0.15893550  0.09160332  0.47475853  1.0
  H  H20  1  0.29845112  0.18480161  0.56939256  1.0
  H  H21  1  0.25690010  0.18271928  0.45178194  1.0
  H  H22  1  0.26473015  0.31616411  0.53609889  1.0
  H  H23  1  0.16137345  0.22586446  0.55479420  1.0
  H  H24  1  0.98035103  0.18913732  0.44962113  1.0
  H  H25  1  0.95352543  0.03140655  0.37350633  1.0
  H  H26  1  0.82977185  0.03016567  0.32384318  1.0
  H  H27  1  0.85958971  0.97878489  0.19672795  1.0
  H  H28  1  0.01180303  0.28768321  0.22813126  1.0
  H  H29  1  0.85193220  0.18367469  0.26778151  1.0
  H  H30  1  0.43200771  0.05762293  0.50379988  1.0
  H  H31  1  0.43984301  0.10368646  0.60405254  1.0
  H  H32  1  0.32977502  0.07949596  0.48876292  1.0
  H  H33  1  0.26072426  0.94816781  0.56141879  1.0
  H  H34  1  0.35718720  0.92051648  0.57039409  1.0
  H  H35  1  0.28866889  0.79589528  0.44033543  1.0
  H  H36  1  0.36603508  0.94023611  0.37688903  1.0
  H  H37  1  0.30733608  0.82369347  0.30501169  1.0
  H  H38  1  0.23462679  0.92684623  0.21203396  1.0
  H  H39  1  0.96503131  0.74003031  0.25044070  1.0
  H  H40  1  0.10141940  0.68641102  0.25856916  1.0
  H  H41  1  0.41382617  0.43409411  0.92606488  1.0
  H  H42  1  0.45385235  0.41095670  0.85179460  1.0
  H  H43  1  0.34465528  0.31065669  0.85841761  1.0
  H  H44  1  0.26653495  0.35160113  0.70911382  1.0
  H  H45  1  0.32821164  0.47297179  0.77494677  1.0
  H  H46  1  0.21276756  0.49586366  0.81045215  1.0
  H  H47  1  0.29805673  0.45037224  0.96094950  1.0
  H  H48  1  0.20515960  0.48204747  0.95166313  1.0
  H  H49  1  0.15864447  0.31774673  0.99375723  1.0
  H  H50  1  0.92618637  0.19792484  0.69503889  1.0
  H  H51  1  0.00818403  0.38062955  0.79501230  1.0
  H  H52  1  0.09703129  0.06137333  0.64849174  1.0
  H  H53  1  0.23118637  0.10440565  0.66813274  1.0
  H  H54  1  0.19958993  0.06047272  0.75229259  1.0
  H  H55  1  0.19275821  0.93621108  0.65668041  1.0
  H  H56  1  0.08632364  0.93102891  0.55182326  1.0
  H  H57  1  0.90150992  0.79588795  0.49872391  1.0
  H  H58  1  0.89488567  0.92827378  0.57626440  1.0
  H  H59  1  0.76637042  0.81038723  0.51689538  1.0
  H  H60  1  0.83233767  0.89242042  0.68941623  1.0
  H  H61  1  0.95565155  0.70697401  0.74328548  1.0
  H  H62  1  0.78571270  0.66698101  0.56916561  1.0
  H  H63  1  0.50720383  0.03351162  0.95227644  1.0
  H  H64  1  0.48021270  0.10500714  0.87883041  1.0
  H  H65  1  0.57672869  0.07530080  0.89094103  1.0
  H  H66  1  0.38866339  0.97141093  0.73658732  1.0
  H  H67  1  0.31942978  0.92479193  0.79748395  1.0
  H  H68  1  0.30077353  0.77803721  0.83443208  1.0
  H  H69  1  0.49933720  0.89541395  0.98814511  1.0
  H  H70  1  0.43549512  0.76916805  0.97792627  1.0
  H  H71  1  0.64745320  0.86007466  0.02577346  1.0
  H  H72  1  0.47418884  0.73786446  0.72817955  1.0
  H  H73  1  0.37579941  0.66056364  0.82479789  1.0
  C  C74  1  0.49397171  0.41032951  0.51163686  1.0
  C  C75  1  0.54797221  0.36300549  0.49547130  1.0
  C  C76  1  0.54959331  0.41226793  0.35278423  1.0
  C  C77  1  0.45168035  0.42208516  0.28790477  1.0
  C  C78  1  0.35835680  0.33116892  0.20343115  1.0
  C  C79  1  0.36492927  0.25414078  0.18904015  1.0
  C  C80  1  0.26228035  0.15865307  0.11604507  1.0
  C  C81  1  0.47075882  0.25806445  0.25626902  1.0
  C  C82  1  0.57034919  0.36652792  0.28902660  1.0
  C  C83  1  0.68625652  0.38447892  0.34084392  1.0
  C  C84  1  0.47608406  0.24645659  0.34895339  1.0
  C  C85  1  0.22792537  0.16997992  0.50010111  1.0
  C  C86  1  0.19192507  0.23859804  0.50745613  1.0
  C  C87  1  0.98443927  0.17789890  0.38793884  1.0
  C  C88  1  0.91333742  0.06747784  0.33288023  1.0
  C  C89  1  0.90000083  0.05362371  0.23889305  1.0
  C  C90  1  0.94359427  0.13049519  0.20908822  1.0
  C  C91  1  0.94816373  0.11485610  0.12504435  1.0
  C  C92  1  0.00482144  0.23565600  0.26849588  1.0
  C  C93  1  0.94380299  0.22945744  0.31819266  1.0
  C  C94  1  0.97456463  0.32855182  0.36387102  1.0
  C  C95  1  0.12240470  0.26709247  0.35292258  1.0
  C  C96  1  0.38139844  0.05327678  0.53146584  1.0
  C  C97  1  0.30643868  0.94850382  0.52972910  1.0
  C  C98  1  0.23626209  0.81649226  0.38803970  1.0
  C  C99  1  0.28600352  0.86766153  0.33129315  1.0
  C  C100  1  0.20446837  0.88119259  0.25107899  1.0
  C  C101  1  0.09914059  0.84333151  0.22992746  1.0
  C  C102  1  0.02512690  0.86639675  0.15505272  1.0
  C  C103  1  0.05727951  0.78508032  0.28679881  1.0
  C  C104  1  0.11308431  0.72751270  0.31855880  1.0
  C  C105  1  0.06432602  0.65629754  0.36479688  1.0
  C  C106  1  0.11608756  0.86085456  0.38213303  1.0
  C  C107  1  0.38154914  0.38757464  0.85806975  1.0
  C  C108  1  0.29342957  0.39613774  0.77585372  1.0
  C  C109  1  0.17116624  0.42161132  0.81694289  1.0
  C  C110  1  0.20886947  0.42598255  0.91945905  1.0
  C  C111  1  0.13588036  0.32655957  0.92439332  1.0
  C  C112  1  0.04714563  0.24821291  0.84711983  1.0
  C  C113  1  0.98582074  0.14975997  0.85847809  1.0
  C  C114  1  0.01310247  0.25780028  0.74956500  1.0
  C  C115  1  0.03969283  0.36311577  0.75729315  1.0
  C  C116  1  0.99414047  0.38150900  0.66359827  1.0
  C  C117  1  0.09895849  0.26469154  0.72837822  1.0
  C  C118  1  0.16432854  0.04854407  0.67672128  1.0
  C  C119  1  0.12210251  0.94496953  0.62765775  1.0
  C  C120  1  0.91505754  0.80698044  0.56875640  1.0
  C  C121  1  0.85459427  0.85159142  0.57803668  1.0
  C  C122  1  0.85917932  0.85137754  0.66857972  1.0
  C  C123  1  0.90492357  0.81057973  0.72773643  1.0
  C  C124  1  0.93293659  0.83315868  0.82584917  1.0
  C  C125  1  0.94904400  0.75797222  0.70347952  1.0
  C  C126  1  0.87615056  0.71100596  0.59542716  1.0
  C  C127  1  0.90489980  0.64552829  0.56643694  1.0
  C  C128  1  0.06397602  0.83860921  0.71870360  1.0
  C  C129  1  0.49687092  0.04718578  0.88607108  1.0
  C  C130  1  0.39906306  0.95382128  0.80160055  1.0
  C  C131  1  0.38036982  0.79683762  0.84349953  1.0
  C  C132  1  0.47189218  0.82454667  0.94699490  1.0
  C  C133  1  0.57194337  0.83156751  0.95561360  1.0
  C  C134  1  0.57444838  0.81122598  0.87992762  1.0
  C  C135  1  0.68299000  0.83890265  0.89243846  1.0
  C  C136  1  0.47263706  0.77493536  0.78106721  1.0
  C  C137  1  0.36758191  0.71251921  0.78650969  1.0
  C  C138  1  0.25757713  0.65317348  0.69115328  1.0
  C  C139  1  0.46543251  0.86372037  0.75899180  1.0
  N  N140  1  0.51737095  0.33821466  0.39903707  1.0
  N  N141  1  0.10282104  0.22748343  0.41736396  1.0
  N  N142  1  0.22071639  0.87840762  0.43525216  1.0
  N  N143  1  0.19139291  0.36008761  0.77546653  1.0
  N  N144  1  0.03709940  0.86729164  0.64029854  1.0
  N  N145  1  0.41690225  0.87499309  0.80194470  1.0
  O  O146  1  0.97085893  0.98685960  0.98787776  1.0
  O  O147  1  0.22013020  0.15191867  0.02911111  1.0
  O  O148  1  0.22040380  0.08810950  0.14690065  1.0
  O  O149  1  0.71972928  0.36519814  0.41826250  1.0
  O  O150  1  0.74205822  0.41939540  0.30211123  1.0
  O  O151  1  0.44801260  0.17101173  0.37173344  1.0
  O  O152  1  0.85718871  0.06688596  0.04385416  1.0
  O  O153  1  0.04785263  0.15075485  0.14205641  1.0
  O  O154  1  0.06342413  0.37920944  0.44659807  1.0
  O  O155  1  0.90691881  0.35242365  0.31454128  1.0
  O  O156  1  0.21384192  0.31618355  0.36001083  1.0
  O  O157  1  0.96284421  0.80890533  0.07106411  1.0
  O  O158  1  0.03098366  0.94382948  0.18146361  1.0
  O  O159  1  0.11930174  0.68672880  0.45430164  1.0
  O  O160  1  0.97156072  0.57251832  0.31089343  1.0
  O  O161  1  0.07701304  0.89836782  0.40436973  1.0
  O  O162  1  0.92334420  0.13863533  0.88887032  1.0
  O  O163  1  0.00201976  0.08553437  0.83912425  1.0
  O  O164  1  0.02632066  0.36993635  0.61141811  1.0
  O  O165  1  0.92648499  0.40826732  0.64430433  1.0
  O  O166  1  0.08798614  0.19882874  0.68055347  1.0
  O  O167  1  0.85612621  0.78435209  0.84226200  1.0
  O  O168  1  0.03582393  0.90361518  0.88777130  1.0
  O  O169  1  0.97067693  0.68233258  0.53683243  1.0
  O  O170  1  0.86242689  0.55968226  0.57548094  1.0
  O  O171  1  0.15925140  0.87064724  0.78735754  1.0
  O  O172  1  0.73392078  0.80160468  0.94259586  1.0
  O  O173  1  0.71883275  0.90147579  0.85259396  1.0
  O  O174  1  0.19758422  0.68788651  0.66131210  1.0
  O  O175  1  0.23381001  0.57190582  0.64918125  1.0
  O  O176  1  0.49715348  0.91389718  0.71333721  1.0
  O  O177  1  0.97444499  0.49752575  0.49040159  1.0
