# generated using pymatgen
data_ZnH10(C7O2)2
_symmetry_space_group_name_H-M   'P 1'
_cell_length_a   9.91141721
_cell_length_b   18.31311389
_cell_length_c   18.34642933
_cell_angle_alpha   90.59132209
_cell_angle_beta   89.98772386
_cell_angle_gamma   89.98590449
_symmetry_Int_Tables_number   1
_chemical_formula_structural   ZnH10(C7O2)2
_chemical_formula_sum   'Zn4 H40 C56 O16'
_cell_volume   3329.86290615
_cell_formula_units_Z   4
loop_
 _symmetry_equiv_pos_site_id
 _symmetry_equiv_pos_as_xyz
  1  'x, y, z'
loop_
 _atom_site_type_symbol
 _atom_site_label
 _atom_site_symmetry_multiplicity
 _atom_site_fract_x
 _atom_site_fract_y
 _atom_site_fract_z
 _atom_site_occupancy
  Zn  Zn0  1  0.39850823  0.99776877  0.50210087  1.0
  Zn  Zn1  1  0.66628616  0.00695276  0.49289629  1.0
  Zn  Zn2  1  0.60140746  0.50274395  0.99712111  1.0
  Zn  Zn3  1  0.33360354  0.49349035  0.00639329  1.0
  H  H4  1  0.63788810  0.34378499  0.84498475  1.0
  H  H5  1  0.20790579  0.32986618  0.83750505  1.0
  H  H6  1  0.36180584  0.15625257  0.65458923  1.0
  H  H7  1  0.79172555  0.17079882  0.66155167  1.0
  H  H8  1  0.63784202  0.65530354  0.15560980  1.0
  H  H9  1  0.20790712  0.66219104  0.17031774  1.0
  H  H10  1  0.36167920  0.84603998  0.34289654  1.0
  H  H11  1  0.79167971  0.83806232  0.32931022  1.0
  H  H12  1  0.68497448  0.66858906  0.83085382  1.0
  H  H13  1  0.25796842  0.64746769  0.85299704  1.0
  H  H14  1  0.31496762  0.83135100  0.66814990  1.0
  H  H15  1  0.74199754  0.85340162  0.64674874  1.0
  H  H16  1  0.33652842  0.33775578  0.16225732  1.0
  H  H17  1  0.76697823  0.34478849  0.15530837  1.0
  H  H18  1  0.66424317  0.16262689  0.33669716  1.0
  H  H19  1  0.23372449  0.15625462  0.34422465  1.0
  H  H20  1  0.87756460  0.22615744  0.79463149  1.0
  H  H21  1  0.81002279  0.31480036  0.80727176  1.0
  H  H22  1  0.88520574  0.28991648  0.72311740  1.0
  H  H23  1  0.11793588  0.20600102  0.77534817  1.0
  H  H24  1  0.18960947  0.18913949  0.68843370  1.0
  H  H25  1  0.11821248  0.27539164  0.70916043  1.0
  H  H26  1  0.88252831  0.77628725  0.20637799  1.0
  H  H27  1  0.81002826  0.68978420  0.18772129  1.0
  H  H28  1  0.88047721  0.70872354  0.27442750  1.0
  H  H29  1  0.12270022  0.79632727  0.22583348  1.0
  H  H30  1  0.18946588  0.80753689  0.31465174  1.0
  H  H31  1  0.11372497  0.72380734  0.28842969  1.0
  H  H32  1  0.87689627  0.73257707  0.69604546  1.0
  H  H33  1  0.83517649  0.71638764  0.78817056  1.0
  H  H34  1  0.88066680  0.80516016  0.76024958  1.0
  H  H35  1  0.12284766  0.69667700  0.73286077  1.0
  H  H36  1  0.16454946  0.78887606  0.71615176  1.0
  H  H37  1  0.11975161  0.76133621  0.80501854  1.0
  H  H38  1  0.11904132  0.20912077  0.22216687  1.0
  H  H39  1  0.17446974  0.29874664  0.20318312  1.0
  H  H40  1  0.11805989  0.27650845  0.29171176  1.0
  H  H41  1  0.87935169  0.21949997  0.20842736  1.0
  H  H42  1  0.82659587  0.20557953  0.29935963  1.0
  H  H43  1  0.88494641  0.29240943  0.27209865  1.0
  C  C44  1  0.46140131  0.09772129  0.40218292  1.0
  C  C45  1  0.58068364  0.10204668  0.59452589  1.0
  C  C46  1  0.50736961  0.90363578  0.59605942  1.0
  C  C47  1  0.58066396  0.90537320  0.39777960  1.0
  C  C48  1  0.49247652  0.59665997  0.90312145  1.0
  C  C49  1  0.41902338  0.39828710  0.90484931  1.0
  C  C50  1  0.53916132  0.40293777  0.09704635  1.0
  C  C51  1  0.41906513  0.59537085  0.10127849  1.0
  C  C52  1  0.54901218  0.31879550  0.82067174  1.0
  C  C53  1  0.30493465  0.31102758  0.81639150  1.0
  C  C54  1  0.30981434  0.25898381  0.76129393  1.0
  C  C55  1  0.43866341  0.23476927  0.73448295  1.0
  C  C56  1  0.45063937  0.18133742  0.67885486  1.0
  C  C57  1  0.69470578  0.18941545  0.68286119  1.0
  C  C58  1  0.68979482  0.24142383  0.73798252  1.0
  C  C59  1  0.56094980  0.26543432  0.76496777  1.0
  C  C60  1  0.42396846  0.34131974  0.84619399  1.0
  C  C61  1  0.57568510  0.15892316  0.65325370  1.0
  C  C62  1  0.54898151  0.67957529  0.18069254  1.0
  C  C63  1  0.30491804  0.68356092  0.18885878  1.0
  C  C64  1  0.30977954  0.73876447  0.24079458  1.0
  C  C65  1  0.43862513  0.76580777  0.26471552  1.0
  C  C66  1  0.45054275  0.82155992  0.31801420  1.0
  C  C67  1  0.69466374  0.81704744  0.31039144  1.0
  C  C68  1  0.68976693  0.76201025  0.25827897  1.0
  C  C69  1  0.56092334  0.73523943  0.23409806  1.0
  C  C70  1  0.42396925  0.65397430  0.15829166  1.0
  C  C71  1  0.57561858  0.84689654  0.34065765  1.0
  C  C72  1  0.58497808  0.68588612  0.81380542  1.0
  C  C73  1  0.34248932  0.67410562  0.82612740  1.0
  C  C74  1  0.31916805  0.72636100  0.77390742  1.0
  C  C75  1  0.43217204  0.76056541  0.73936192  1.0
  C  C76  1  0.41501437  0.81433534  0.68536899  1.0
  C  C77  1  0.65749085  0.82654451  0.67343881  1.0
  C  C78  1  0.68085550  0.77429080  0.72566697  1.0
  C  C79  1  0.56786977  0.73984412  0.75999514  1.0
  C  C80  1  0.47468004  0.65349646  0.84635815  1.0
  C  C81  1  0.52524982  0.84684599  0.65288949  1.0
  C  C82  1  0.43182626  0.31711307  0.18288631  1.0
  C  C83  1  0.67615648  0.32110944  0.17890422  1.0
  C  C84  1  0.68632528  0.26812644  0.23175991  1.0
  C  C85  1  0.56547979  0.23770071  0.26213734  1.0
  C  C86  1  0.56893921  0.18342807  0.31622558  1.0
  C  C87  1  0.32456952  0.17975176  0.32047997  1.0
  C  C88  1  0.31442293  0.23268704  0.26757440  1.0
  C  C89  1  0.43531792  0.26295939  0.23708374  1.0
  C  C90  1  0.54948460  0.34582251  0.15414305  1.0
  C  C91  1  0.45123946  0.15483094  0.34505346  1.0
  C  C92  1  0.82141044  0.27013898  0.76773431  1.0
  C  C93  1  0.17814019  0.23034400  0.73153771  1.0
  C  C94  1  0.82145577  0.73218632  0.22965174  1.0
  C  C95  1  0.17815425  0.76858324  0.26949536  1.0
  C  C96  1  0.82504038  0.75568734  0.74401242  1.0
  C  C97  1  0.17493074  0.74481153  0.75555178  1.0
  C  C98  1  0.17527755  0.25604032  0.24441035  1.0
  C  C99  1  0.82553934  0.24467013  0.25470748  1.0
  O  O100  1  0.35131295  0.07127089  0.42870255  1.0
  O  O101  1  0.57958685  0.07857620  0.42130168  1.0
  O  O102  1  0.69637486  0.08323765  0.56802286  1.0
  O  O103  1  0.46823153  0.07523226  0.57412272  1.0
  O  O104  1  0.61464702  0.93054296  0.56929800  1.0
  O  O105  1  0.38663151  0.92217736  0.57739171  1.0
  O  O106  1  0.46823320  0.92566751  0.42471666  1.0
  O  O107  1  0.69638139  0.93174267  0.41669836  1.0
  O  O108  1  0.61322578  0.57799434  0.92163360  1.0
  O  O109  1  0.38518696  0.56988598  0.92999760  1.0
  O  O110  1  0.30335334  0.41708651  0.93140243  1.0
  O  O111  1  0.53146440  0.42517966  0.92513413  1.0
  O  O112  1  0.42094651  0.42206396  0.07797925  1.0
  O  O113  1  0.64918813  0.42944209  0.07049434  1.0
  O  O114  1  0.53150697  0.57522629  0.07423932  1.0
  O  O115  1  0.30343752  0.56872815  0.08257118  1.0
