# generated using pymatgen
data_ZnH22C28Br3N3O4
_symmetry_space_group_name_H-M   'P 1'
_cell_length_a   15.60081479
_cell_length_b   15.95099813
_cell_length_c   17.12616591
_cell_angle_alpha   88.16460551
_cell_angle_beta   89.07121164
_cell_angle_gamma   70.84121956
_symmetry_Int_Tables_number   1
_chemical_formula_structural   ZnH22C28Br3N3O4
_chemical_formula_sum   'Zn2 H44 C56 Br6 N6 O8'
_cell_volume   4023.63247536
_cell_formula_units_Z   2
loop_
 _symmetry_equiv_pos_site_id
 _symmetry_equiv_pos_as_xyz
  1  'x, y, z'
loop_
 _atom_site_type_symbol
 _atom_site_label
 _atom_site_symmetry_multiplicity
 _atom_site_fract_x
 _atom_site_fract_y
 _atom_site_fract_z
 _atom_site_occupancy
  Zn  Zn0  1  0.49823821  0.41205179  0.49362110  1.0
  Zn  Zn1  1  0.50373693  0.58746998  0.50415709  1.0
  H  H2  1  0.57958034  0.24723411  0.56649253  1.0
  H  H3  1  0.42979953  0.75037969  0.42542713  1.0
  H  H4  1  0.58202390  0.08732458  0.56925392  1.0
  H  H5  1  0.42094439  0.91200017  0.42730137  1.0
  H  H6  1  0.22821466  0.46791738  0.52833169  1.0
  H  H7  1  0.77336107  0.53197992  0.51018551  1.0
  H  H8  1  0.20253965  0.74268806  0.51197905  1.0
  H  H9  1  0.79784469  0.25774713  0.52446161  1.0
  H  H10  1  0.96355203  0.21691350  0.55043654  1.0
  H  H11  1  0.03424572  0.78470550  0.52230243  1.0
  H  H12  1  0.17164173  0.37934011  0.56621763  1.0
  H  H13  1  0.82448938  0.62388831  0.53270967  1.0
  H  H14  1  0.60996141  0.45524731  0.09472650  1.0
  H  H15  1  0.37008915  0.58157169  0.89192806  1.0
  H  H16  1  0.62651971  0.37340263  0.89411675  1.0
  H  H17  1  0.32897109  0.60790261  0.12001256  1.0
  H  H18  1  0.80898469  0.39674442  0.34413869  1.0
  H  H19  1  0.84583420  0.41339555  0.24804364  1.0
  H  H20  1  0.84204824  0.49100174  0.32127500  1.0
  H  H21  1  0.70870634  0.54896151  0.22867288  1.0
  H  H22  1  0.67262849  0.53773148  0.32549646  1.0
  H  H23  1  0.65201988  0.39463308  0.29672087  1.0
  H  H24  1  0.69969420  0.39537887  0.20245115  1.0
  H  H25  1  0.29671317  0.74517039  0.62123744  1.0
  H  H26  1  0.22062065  0.77174658  0.70206398  1.0
  H  H27  1  0.29895030  0.82999086  0.68548530  1.0
  H  H28  1  0.35900461  0.71791771  0.79291145  1.0
  H  H29  1  0.42912394  0.68648387  0.70971121  1.0
  H  H30  1  0.34048920  0.58405244  0.67538559  1.0
  H  H31  1  0.28185595  0.60978554  0.76518013  1.0
  H  H32  1  0.78869423  0.20111380  0.69178918  1.0
  H  H33  1  0.83714812  0.28664312  0.69800592  1.0
  H  H34  1  0.86478052  0.19816773  0.76875086  1.0
  H  H35  1  0.75259377  0.33720256  0.82249172  1.0
  H  H36  1  0.70668459  0.24997243  0.82155845  1.0
  H  H37  1  0.62602325  0.31092433  0.69667681  1.0
  H  H38  1  0.67563198  0.39435280  0.69229268  1.0
  H  H39  1  0.14891190  0.64104622  0.34239085  1.0
  H  H40  1  0.17019170  0.74337681  0.34106310  1.0
  H  H41  1  0.09029566  0.72740318  0.27540436  1.0
  H  H42  1  0.23527582  0.71368025  0.20377640  1.0
  H  H43  1  0.21554026  0.61100599  0.20678094  1.0
  H  H44  1  0.31800746  0.56385901  0.32481598  1.0
  H  H45  1  0.33944229  0.66450071  0.31878489  1.0
  C  C46  1  0.49689836  0.47551999  0.65026175  1.0
  C  C47  1  0.49896649  0.52332918  0.34843769  1.0
  C  C48  1  0.09903421  0.39803684  0.55616748  1.0
  C  C49  1  0.89811977  0.60443915  0.53327682  1.0
  C  C50  1  0.05911038  0.33325890  0.55873906  1.0
  C  C51  1  0.93788017  0.66922908  0.53239588  1.0
  C  C52  1  0.49601836  0.47392891  0.73798417  1.0
  C  C53  1  0.49000970  0.52937803  0.26110164  1.0
  C  C54  1  0.42314609  0.53501546  0.77791709  1.0
  C  C55  1  0.56568532  0.48636854  0.21371635  1.0
  C  C56  1  0.42499254  0.53512566  0.85929327  1.0
  C  C57  1  0.55348298  0.48832287  0.13323115  1.0
  C  C58  1  0.49896271  0.47707109  0.90018005  1.0
  C  C59  1  0.46793581  0.53103873  0.10028635  1.0
  C  C60  1  0.57047252  0.41675550  0.85959165  1.0
  C  C61  1  0.39413274  0.57516692  0.14800916  1.0
  C  C62  1  0.57063566  0.41417300  0.77834421  1.0
  C  C63  1  0.40363444  0.57415321  0.22897919  1.0
  C  C64  1  0.46777882  0.77447669  0.46702965  1.0
  C  C65  1  0.53554324  0.22493133  0.52957640  1.0
  C  C66  1  0.46304410  0.86238414  0.46813409  1.0
  C  C67  1  0.53645724  0.13803394  0.53134097  1.0
  C  C68  1  0.67666483  0.42637346  0.50302316  1.0
  C  C69  1  0.32475494  0.57505795  0.50829062  1.0
  C  C70  1  0.51271855  0.88834944  0.52465310  1.0
  C  C71  1  0.47804614  0.11463286  0.48142646  1.0
  C  C72  1  0.56714873  0.82412580  0.57727696  1.0
  C  C73  1  0.41901277  0.18038736  0.43283491  1.0
  C  C74  1  0.56969724  0.73547596  0.57044714  1.0
  C  C75  1  0.42317746  0.26718335  0.43446133  1.0
  C  C76  1  0.77684948  0.39846453  0.51663304  1.0
  C  C77  1  0.22404421  0.60195904  0.51933837  1.0
  C  C78  1  0.92198893  0.28621997  0.54173904  1.0
  C  C79  1  0.07670920  0.71517429  0.52449435  1.0
  C  C80  1  0.83024698  0.30853844  0.52740266  1.0
  C  C81  1  0.16978016  0.69219832  0.51868286  1.0
  C  C82  1  0.81704729  0.46385990  0.52034600  1.0
  C  C83  1  0.18374216  0.53661611  0.52879941  1.0
  C  C84  1  0.91023313  0.44382637  0.53488974  1.0
  C  C85  1  0.08897451  0.55746535  0.53572250  1.0
  C  C86  1  0.96425631  0.35216790  0.54555602  1.0
  C  C87  1  0.03408687  0.64943347  0.53144235  1.0
  C  C88  1  0.95152090  0.51278373  0.53694569  1.0
  C  C89  1  0.04682699  0.48908272  0.54290579  1.0
  C  C90  1  0.65831319  0.43848639  0.24756803  1.0
  C  C91  1  0.70911052  0.49987715  0.27556136  1.0
  C  C92  1  0.80678547  0.44757377  0.29855392  1.0
  C  C93  1  0.34658006  0.60390764  0.73529937  1.0
  C  C94  1  0.36052988  0.69519068  0.73266123  1.0
  C  C95  1  0.29024066  0.76445951  0.68264801  1.0
  C  C96  1  0.65041571  0.35331918  0.73391864  1.0
  C  C97  1  0.72967629  0.29541836  0.78334305  1.0
  C  C98  1  0.80949124  0.24234562  0.73294578  1.0
  C  C99  1  0.32369718  0.61564834  0.28253688  1.0
  C  C100  1  0.23180403  0.65914949  0.24355237  1.0
  C  C101  1  0.15606602  0.69473800  0.30363173  1.0
  Br  Br102  1  0.13496988  0.21390315  0.58044790  1.0
  Br  Br103  1  0.85989794  0.79003257  0.53002951  1.0
  Br  Br104  1  0.63546565  0.85703364  0.65262549  1.0
  Br  Br105  1  0.33540626  0.15117314  0.37051208  1.0
  Br  Br106  1  0.64462594  0.64615106  0.63695856  1.0
  Br  Br107  1  0.34813997  0.35690358  0.36844114  1.0
  N  N108  1  0.51128481  0.47535921  0.98163984  1.0
  N  N109  1  0.45023593  0.53231597  0.01953037  1.0
  N  N110  1  0.52012013  0.71223524  0.51743108  1.0
  N  N111  1  0.48042386  0.28806614  0.48156878  1.0
  N  N112  1  0.50672198  0.97766140  0.53409861  1.0
  N  N113  1  0.48156984  0.02601672  0.47327269  1.0
  O  O114  1  0.49612769  0.40662919  0.61540464  1.0
  O  O115  1  0.49299976  0.59369444  0.38436461  1.0
  O  O116  1  0.49944095  0.54751814  0.61745740  1.0
  O  O117  1  0.51015668  0.44706094  0.37974819  1.0
  O  O118  1  0.63893557  0.36654759  0.50406946  1.0
  O  O119  1  0.36165502  0.63550323  0.50707142  1.0
  O  O120  1  0.63636578  0.50944434  0.49254678  1.0
  O  O121  1  0.36602006  0.49231460  0.50082537  1.0
