# generated using pymatgen
data_MnH(CO)5
_symmetry_space_group_name_H-M   'P 1'
_cell_length_a   7.03511686
_cell_length_b   15.35872478
_cell_length_c   15.36139320
_cell_angle_alpha   117.69784476
_cell_angle_beta   98.79242561
_cell_angle_gamma   98.77516309
_symmetry_Int_Tables_number   1
_chemical_formula_structural   MnH(CO)5
_chemical_formula_sum   'Mn6 H6 C30 O30'
_cell_volume   1404.11699818
_cell_formula_units_Z   6
loop_
 _symmetry_equiv_pos_site_id
 _symmetry_equiv_pos_as_xyz
  1  'x, y, z'
loop_
 _atom_site_type_symbol
 _atom_site_label
 _atom_site_symmetry_multiplicity
 _atom_site_fract_x
 _atom_site_fract_y
 _atom_site_fract_z
 _atom_site_occupancy
  Mn  Mn0  1  0.47222915  0.26078162  0.58775908  1.0
  Mn  Mn1  1  0.21153962  0.32697885  0.73920571  1.0
  Mn  Mn2  1  0.88450999  0.41228527  0.67312269  1.0
  Mn  Mn3  1  0.52777547  0.73921777  0.41223972  1.0
  Mn  Mn4  1  0.78846365  0.67302358  0.26079701  1.0
  Mn  Mn5  1  0.11549358  0.58771488  0.32687703  1.0
  H  H6  1  0.80306317  0.44223066  0.46553962  1.0
  H  H7  1  0.36079909  0.02318458  0.55766761  1.0
  H  H8  1  0.33752765  0.53436943  0.97673689  1.0
  H  H9  1  0.19693532  0.55776797  0.53445904  1.0
  H  H10  1  0.63920236  0.97681708  0.44233463  1.0
  H  H11  1  0.66247380  0.46563224  0.02326274  1.0
  C  C12  1  0.25869454  0.43689005  0.60752213  1.0
  C  C13  1  0.82175139  0.17065364  0.56313071  1.0
  C  C14  1  0.65106633  0.39252725  0.82938991  1.0
  C  C15  1  0.74130289  0.56310933  0.39247747  1.0
  C  C16  1  0.17825149  0.82934802  0.43687033  1.0
  C  C17  1  0.34893474  0.60747366  0.17060934  1.0
  C  C18  1  0.38527944  0.46613650  0.55177930  1.0
  C  C19  1  0.91918607  0.08565579  0.53388546  1.0
  C  C20  1  0.83346947  0.44823555  0.91434471  1.0
  C  C21  1  0.61472049  0.53386213  0.44821946  1.0
  C  C22  1  0.08081280  0.91434360  0.46611488  1.0
  C  C23  1  0.16652872  0.55176536  0.08565434  1.0
  C  C24  1  0.56031623  0.43198375  0.53185621  1.0
  C  C25  1  0.12835315  0.09986446  0.56801142  1.0
  C  C26  1  0.02844913  0.46807795  0.90014916  1.0
  C  C27  1  0.43968225  0.56801488  0.46814245  1.0
  C  C28  1  0.87164753  0.90013568  0.43198941  1.0
  C  C29  1  0.97155087  0.53192372  0.09985037  1.0
  C  C30  1  0.66929289  0.46755007  0.48063171  1.0
  C  C31  1  0.20171887  0.01303019  0.53238640  1.0
  C  C32  1  0.18864672  0.51928054  0.98695590  1.0
  C  C33  1  0.33070560  0.53244856  0.51936630  1.0
  C  C34  1  0.79828258  0.98697148  0.46761584  1.0
  C  C35  1  0.81135329  0.48072113  0.01304298  1.0
  C  C36  1  0.28044995  0.06651910  0.35282553  1.0
  C  C37  1  0.21438166  0.28620063  0.93342088  1.0
  C  C38  1  0.92814996  0.64716070  0.71373389  1.0
  C  C39  1  0.71954664  0.93347572  0.64717189  1.0
  C  C40  1  0.78562055  0.71380255  0.06658277  1.0
  C  C41  1  0.07184164  0.35283564  0.28626843  1.0
  O  O42  1  0.30815703  0.37777868  0.64021107  1.0
  O  O43  1  0.93019706  0.26242565  0.62220483  1.0
  O  O44  1  0.66779776  0.35971371  0.73759947  1.0
  O  O45  1  0.69184222  0.62222147  0.35978836  1.0
  O  O46  1  0.06980507  0.73757449  0.37779479  1.0
  O  O47  1  0.33220293  0.64028643  0.26240071  1.0
  O  O48  1  0.10489830  0.47063200  0.62260674  1.0
  O  O49  1  0.63422256  0.15197604  0.52936125  1.0
  O  O50  1  0.48223274  0.37757843  0.84809230  1.0
  O  O51  1  0.89509913  0.52936739  0.37739090  1.0
  O  O52  1  0.36577995  0.84802487  0.47064006  1.0
  O  O53  1  0.51776726  0.62242324  0.15190723  1.0
  O  O54  1  0.62786081  0.36897682  0.55995925  1.0
  O  O55  1  0.25886921  0.19092277  0.63107236  1.0
  O  O56  1  0.06787972  0.44003437  0.80907996  1.0
  O  O57  1  0.37213881  0.63102409  0.44004120  1.0
  O  O58  1  0.74113224  0.80907890  0.36892988  1.0
  O  O59  1  0.93211991  0.55996654  0.19091985  1.0
  O  O60  1  0.29285773  0.98340886  0.30221549  1.0
  O  O61  1  0.30974922  0.31871548  0.01656085  1.0
  O  O62  1  0.99107622  0.69769582  0.68113171  1.0
  O  O63  1  0.70714105  0.01658749  0.69778213  1.0
  O  O64  1  0.69025404  0.68128694  0.98344187  1.0
  O  O65  1  0.00891872  0.30230432  0.31887327  1.0
  O  O66  1  0.26608161  0.15028094  0.40202714  1.0
  O  O67  1  0.11631585  0.25162789  0.84964730  1.0
  O  O68  1  0.86467351  0.59802182  0.74838601  1.0
  O  O69  1  0.73391210  0.84971389  0.59797073  1.0
  O  O70  1  0.88368636  0.74837530  0.15035699  1.0
  O  O71  1  0.13531982  0.40197224  0.25161148  1.0
