# generated using pymatgen
data_Al3H21C48NO16
_symmetry_space_group_name_H-M   'P 1'
_cell_length_a   12.39710571
_cell_length_b   12.44094716
_cell_length_c   27.80622172
_cell_angle_alpha   89.49487708
_cell_angle_beta   88.81422020
_cell_angle_gamma   60.76627675
_symmetry_Int_Tables_number   1
_chemical_formula_structural   Al3H21C48NO16
_chemical_formula_sum   'Al6 H42 C96 N2 O32'
_cell_volume   3741.57763540
_cell_formula_units_Z   2
loop_
 _symmetry_equiv_pos_site_id
 _symmetry_equiv_pos_as_xyz
  1  'x, y, z'
loop_
 _atom_site_type_symbol
 _atom_site_label
 _atom_site_symmetry_multiplicity
 _atom_site_fract_x
 _atom_site_fract_y
 _atom_site_fract_z
 _atom_site_occupancy
  Al  Al0  1  0.18894841  0.41084291  0.49607492  1.0
  Al  Al1  1  0.92372020  0.65639858  0.49955007  1.0
  Al  Al2  1  0.92791820  0.41381213  0.49987638  1.0
  Al  Al3  1  0.15899962  0.91612755  0.98393318  1.0
  Al  Al4  1  0.41960799  0.91266358  0.98311802  1.0
  Al  Al5  1  0.42472768  0.66938170  0.98324416  1.0
  H  H6  1  0.70965775  0.82937935  0.21064494  1.0
  H  H7  1  0.53034655  0.85976906  0.28224115  1.0
  H  H8  1  0.88468292  0.61241262  0.25770048  1.0
  H  H9  1  0.81158988  0.47129716  0.20068932  1.0
  H  H10  1  0.63226644  0.50180524  0.27230871  1.0
  H  H11  1  0.45730479  0.71870927  0.22526721  1.0
  H  H12  1  0.97402362  0.19666486  0.20541588  1.0
  H  H13  1  0.11032665  0.01601637  0.27583962  1.0
  H  H14  1  0.00266918  0.37326111  0.25978867  1.0
  H  H15  1  0.22388839  0.31210903  0.20647208  1.0
  H  H16  1  0.36037351  0.13127417  0.27685497  1.0
  H  H17  1  0.33162670  0.95472414  0.22250626  1.0
  H  H18  1  0.33258181  0.46108472  0.21743941  1.0
  H  H19  1  0.35569017  0.62491120  0.28158078  1.0
  H  H20  1  0.10729051  0.51328110  0.26480868  1.0
  H  H21  1  0.97688115  0.70940029  0.19858792  1.0
  H  H22  1  0.99997385  0.87333550  0.26265759  1.0
  H  H23  1  0.22555795  0.82088182  0.21525924  1.0
  H  H24  1  0.57486351  0.88611703  0.85596069  1.0
  H  H25  1  0.68137050  0.81983913  0.61468312  1.0
  H  H26  1  0.58513678  0.97516991  0.77581901  1.0
  H  H27  1  0.61517456  0.95396239  0.68817357  1.0
  H  H28  1  0.66118718  0.50745241  0.86633273  1.0
  H  H29  1  0.73065543  0.37293538  0.79327237  1.0
  H  H30  1  0.75980927  0.35197491  0.70507192  1.0
  H  H31  1  0.76885440  0.44087632  0.62556029  1.0
  H  H32  1  0.05854092  0.07255226  0.86247135  1.0
  H  H33  1  0.97174877  0.21490053  0.62594327  1.0
  H  H34  1  0.94053323  0.09880202  0.78781296  1.0
  H  H35  1  0.91336127  0.14604678  0.70060018  1.0
  H  H36  1  0.37774704  0.12240151  0.85975182  1.0
  H  H37  1  0.44316106  0.18297788  0.78376395  1.0
  H  H38  1  0.29085058  0.26333310  0.62033321  1.0
  H  H39  1  0.41969651  0.57691794  0.84593613  1.0
  H  H40  1  0.31809803  0.52880519  0.61056629  1.0
  H  H41  1  0.50083700  0.50289249  0.76341536  1.0
  H  H42  1  0.46492997  0.48913234  0.67727597  1.0
  H  H43  1  0.87870018  0.79833609  0.80764216  1.0
  H  H44  1  0.84514437  0.78583754  0.72207353  1.0
  H  H45  1  0.92607391  0.73064250  0.63821465  1.0
  H  H46  1  0.38997484  0.31843629  0.46312359  1.0
  H  H47  1  0.95309261  0.96741868  0.00240822  1.0
  C  C48  1  0.09767371  0.63033200  0.43029598  1.0
  C  C49  1  0.78941262  0.60275962  0.43053077  1.0
  C  C50  1  0.10079335  0.27539521  0.43059738  1.0
  C  C51  1  0.09726544  0.61581461  0.56856373  1.0
  C  C52  1  0.77408408  0.60544510  0.56467835  1.0
  C  C53  1  0.10584781  0.28533961  0.56844522  1.0
  C  C54  1  0.59271903  0.77370861  0.26366749  1.0
  C  C55  1  0.69260833  0.75658394  0.22471830  1.0
  C  C56  1  0.60643964  0.70398932  0.09966724  1.0
  C  C57  1  0.73984411  0.62621278  0.38288685  1.0
  C  C58  1  0.55245938  0.69506783  0.23301299  1.0
  C  C59  1  0.65208327  0.67839679  0.19252161  1.0
  C  C60  1  0.64941099  0.57454415  0.25824158  1.0
  C  C61  1  0.69007499  0.65267932  0.29040205  1.0
  C  C62  1  0.74933143  0.55735762  0.21928329  1.0
  C  C63  1  0.78959344  0.63604818  0.24989918  1.0
  C  C64  1  0.62900283  0.69162977  0.14252047  1.0
  C  C65  1  0.71463721  0.63914514  0.34028074  1.0
  C  C66  1  0.13562571  0.08145298  0.25988185  1.0
  C  C67  1  0.05942678  0.18233417  0.22184056  1.0
  C  C68  1  0.21848006  0.10010831  0.09962264  1.0
  C  C69  1  0.11989557  0.22426425  0.38303783  1.0
  C  C70  1  0.25839011  0.04770154  0.23155674  1.0
  C  C71  1  0.18236033  0.14844761  0.19222875  1.0
  C  C72  1  0.27494972  0.14564935  0.26044072  1.0
  C  C73  1  0.15211692  0.17950453  0.29009173  1.0
  C  C74  1  0.19870379  0.24658960  0.22242914  1.0
  C  C75  1  0.07594825  0.28028839  0.25076258  1.0
  C  C76  1  0.20138279  0.12600442  0.14225667  1.0
  C  C77  1  0.13440797  0.20068335  0.34017085  1.0
  C  C78  1  0.27206689  0.64364788  0.26248564  1.0
  C  C79  1  0.25870551  0.55254653  0.22793394  1.0
  C  C80  1  0.22254323  0.66709033  0.09791996  1.0
  C  C81  1  0.11360432  0.66540172  0.38241151  1.0
  C  C82  1  0.19917467  0.75271689  0.22704882  1.0
  C  C83  1  0.18645958  0.66099579  0.19119775  1.0
  C  C84  1  0.07389672  0.78186077  0.25220439  1.0
  C  C85  1  0.14602895  0.67347539  0.28895247  1.0
  C  C86  1  0.06054814  0.69072432  0.21763505  1.0
  C  C87  1  0.13346269  0.58167391  0.25309179  1.0
  C  C88  1  0.20627140  0.66100103  0.14100529  1.0
  C  C89  1  0.12730745  0.67315183  0.33921945  1.0
  C  C90  1  0.68831203  0.74389027  0.63674546  1.0
  C  C91  1  0.66214425  0.76069844  0.68633781  1.0
  C  C92  1  0.62509927  0.78641381  0.78832819  1.0
  C  C93  1  0.60934896  0.88772805  0.75863087  1.0
  C  C94  1  0.62581123  0.87597526  0.70984448  1.0
  C  C95  1  0.60414966  0.79804204  0.83828381  1.0
  C  C96  1  0.61488425  0.69850464  0.86583091  1.0
  C  C97  1  0.73793290  0.52951008  0.64300238  1.0
  C  C98  1  0.71560081  0.54169090  0.69281760  1.0
  C  C99  1  0.67884673  0.65789795  0.71512814  1.0
  C  C100  1  0.73289317  0.43984360  0.72245262  1.0
  C  C101  1  0.71638210  0.45162712  0.77120012  1.0
  C  C102  1  0.67827178  0.56740292  0.79460200  1.0
  C  C103  1  0.66083010  0.67052955  0.76588109  1.0
  C  C104  1  0.65317862  0.58374969  0.84422726  1.0
  C  C105  1  0.72734618  0.62876754  0.61532639  1.0
  C  C106  1  0.04942176  0.21271532  0.64447920  1.0
  C  C107  1  0.06742877  0.18219267  0.69337206  1.0
  C  C108  1  0.09991859  0.12679971  0.79313274  1.0
  C  C109  1  0.00184809  0.12373124  0.76790037  1.0
  C  C110  1  0.98709496  0.14981228  0.71997437  1.0
  C  C111  1  0.11934096  0.09745281  0.84213678  1.0
  C  C112  1  0.21929131  0.09529716  0.86556435  1.0
  C  C113  1  0.23108997  0.23980556  0.64167694  1.0
  C  C114  1  0.25135387  0.21271124  0.69074843  1.0
  C  C115  1  0.16758094  0.18431171  0.71737365  1.0
  C  C116  1  0.35235934  0.20857738  0.71741129  1.0
  C  C117  1  0.36588420  0.18361713  0.76560436  1.0
  C  C118  1  0.28243634  0.15713669  0.79208612  1.0
  C  C119  1  0.18268102  0.15679034  0.76733811  1.0
  C  C120  1  0.29987626  0.12578638  0.84094911  1.0
  C  C121  1  0.13009212  0.24169414  0.61921633  1.0
  C  C122  1  0.24151382  0.57799227  0.63600321  1.0
  C  C123  1  0.26444664  0.58559270  0.68470768  1.0
  C  C124  1  0.30647281  0.60014179  0.78415162  1.0
  C  C125  1  0.40704359  0.54158046  0.75031102  1.0
  C  C126  1  0.38727852  0.53457146  0.70259074  1.0
  C  C127  1  0.32611599  0.61109399  0.83301534  1.0
  C  C128  1  0.22721997  0.67131355  0.86531247  1.0
  C  C129  1  0.01976490  0.69099562  0.65167484  1.0
  C  C130  1  0.03904018  0.69557967  0.70089979  1.0
  C  C131  1  0.16226491  0.64411435  0.71785475  1.0
  C  C132  1  0.93877769  0.74920684  0.73503610  1.0
  C  C133  1  0.95743146  0.75587471  0.78280948  1.0
  C  C134  1  0.07988712  0.71027578  0.80063499  1.0
  C  C135  1  0.18281857  0.65130810  0.76759564  1.0
  C  C136  1  0.10600552  0.71856396  0.84900414  1.0
  C  C137  1  0.12026191  0.63165277  0.61963558  1.0
  C  C138  1  0.24060026  0.04681498  0.05237823  1.0
  C  C139  1  0.55924165  0.72713598  0.05166049  1.0
  C  C140  1  0.24565439  0.69559302  0.04994355  1.0
  C  C141  1  0.24476358  0.04830298  0.91576018  1.0
  C  C142  1  0.57012642  0.71994718  0.91677461  1.0
  C  C143  1  0.25194455  0.70285124  0.91403613  1.0
  N  N144  1  0.44893123  0.22896350  0.69450319  1.0
  N  N145  1  0.00260449  0.77299646  0.88425865  1.0
  O  O146  1  0.17825956  0.30586448  0.44455993  1.0
  O  O147  1  0.17577781  0.52268051  0.44292743  1.0
  O  O148  1  0.00324670  0.70824377  0.45543109  1.0
  O  O149  1  0.81312186  0.68326263  0.44839140  1.0
  O  O150  1  0.81137218  0.50118469  0.45040671  1.0
  O  O151  1  0.00316532  0.29073375  0.45412774  1.0
  O  O152  1  0.18397310  0.30770224  0.54758601  1.0
  O  O153  1  0.18061184  0.52503006  0.54570243  1.0
  O  O154  1  0.99057428  0.69370201  0.55180004  1.0
  O  O155  1  0.79234795  0.68711919  0.54347786  1.0
  O  O156  1  0.80195435  0.50090544  0.54611737  1.0
  O  O157  1  0.00374734  0.30250246  0.55010834  1.0
  O  O158  1  0.01137610  0.49455403  0.49830336  1.0
  O  O159  1  0.16467681  0.79589526  0.03218404  1.0
  O  O160  1  0.16678142  0.01097587  0.03894535  1.0
  O  O161  1  0.33634907  0.03561245  0.02871432  1.0
  O  O162  1  0.53491178  0.83047333  0.03262653  1.0
  O  O163  1  0.53950546  0.64538009  0.03256353  1.0
  O  O164  1  0.35006626  0.61899943  0.03000530  1.0
  O  O165  1  0.17512890  0.80785308  0.92995835  1.0
  O  O166  1  0.16556016  0.02814868  0.93688442  1.0
  O  O167  1  0.34962540  0.02551711  0.93319974  1.0
  O  O168  1  0.54544218  0.82204121  0.93653586  1.0
  O  O169  1  0.55019149  0.63794255  0.93693318  1.0
  O  O170  1  0.35306599  0.62500055  0.93424511  1.0
  O  O171  1  0.33669289  0.83119851  0.98368505  1.0
  O  O172  1  0.42417445  0.29249162  0.65756248  1.0
  O  O173  1  0.55204387  0.18083190  0.71390676  1.0
  O  O174  1  0.91632533  0.87752518  0.87601478  1.0
  O  O175  1  0.00795393  0.70766028  0.91902299  1.0
  O  O176  1  0.35096084  0.33277421  0.49462022  1.0
  O  O177  1  0.99743353  0.99644064  0.98195785  1.0
