# generated using pymatgen
data_ZnH10C26N2(ClO3)2
_symmetry_space_group_name_H-M   'P 1'
_cell_length_a   14.78389150
_cell_length_b   16.14051024
_cell_length_c   23.75803769
_cell_angle_alpha   90.02556514
_cell_angle_beta   89.98503290
_cell_angle_gamma   89.56535877
_symmetry_Int_Tables_number   1
_chemical_formula_structural   ZnH10C26N2(ClO3)2
_chemical_formula_sum   'Zn2 H20 C52 N4 Cl4 O12'
_cell_volume   5668.96843288
_cell_formula_units_Z   2
loop_
 _symmetry_equiv_pos_site_id
 _symmetry_equiv_pos_as_xyz
  1  'x, y, z'
loop_
 _atom_site_type_symbol
 _atom_site_label
 _atom_site_symmetry_multiplicity
 _atom_site_fract_x
 _atom_site_fract_y
 _atom_site_fract_z
 _atom_site_occupancy
  Zn  Zn0  1  0.59500537  0.49951464  0.49998588  1.0
  Zn  Zn1  1  0.40499925  0.50049706  0.50001018  1.0
  H  H2  1  0.43440031  0.69760893  0.94420586  1.0
  H  H3  1  0.56561023  0.30227451  0.05581040  1.0
  H  H4  1  0.05550428  0.53023004  0.59506549  1.0
  H  H5  1  0.94449900  0.46977671  0.40493141  1.0
  H  H6  1  0.94345959  0.63651179  0.52964727  1.0
  H  H7  1  0.05654301  0.36349496  0.47034921  1.0
  H  H8  1  0.94468696  0.39423868  0.56538427  1.0
  H  H9  1  0.05531699  0.60576868  0.43461220  1.0
  H  H10  1  0.35470770  0.50001660  0.21514922  1.0
  H  H11  1  0.64530322  0.49960476  0.78484388  1.0
  H  H12  1  0.35516475  0.49958520  0.32106070  1.0
  H  H13  1  0.64484722  0.50011050  0.67893957  1.0
  H  H14  1  0.64494768  0.50132185  0.32105264  1.0
  H  H15  1  0.35505478  0.49888874  0.67894805  1.0
  H  H16  1  0.64546701  0.50167601  0.21512336  1.0
  H  H17  1  0.35453493  0.49849616  0.78487354  1.0
  H  H18  1  0.59989867  0.04985397  0.57501212  1.0
  H  H19  1  0.40010866  0.95015524  0.42498435  1.0
  H  H20  1  0.34540653  0.05043152  0.51765918  1.0
  H  H21  1  0.65460149  0.94957460  0.48233603  1.0
  C  C22  1  0.49975356  0.66176361  0.50006625  1.0
  C  C23  1  0.50024429  0.33824626  0.49993317  1.0
  C  C24  1  0.41796100  0.50006557  0.23872123  1.0
  C  C25  1  0.58204607  0.49967104  0.76128030  1.0
  C  C26  1  0.41816497  0.49997413  0.29731064  1.0
  C  C27  1  0.58184133  0.49978788  0.70269004  1.0
  C  C28  1  0.50006717  0.50040405  0.32695846  1.0
  C  C29  1  0.49994319  0.49952461  0.67303844  1.0
  C  C30  1  0.58196906  0.50109148  0.29730045  1.0
  C  C31  1  0.41804139  0.49898154  0.70270024  1.0
  C  C32  1  0.58221060  0.50141675  0.23870087  1.0
  C  C33  1  0.41779390  0.49862221  0.76129602  1.0
  C  C34  1  0.50009311  0.50085123  0.20988480  1.0
  C  C35  1  0.49990933  0.49902728  0.79012262  1.0
  C  C36  1  0.55609281  0.02733981  0.54138354  1.0
  C  C37  1  0.44391520  0.97266878  0.45861252  1.0
  C  C38  1  0.47091660  0.97222114  0.55011092  1.0
  C  C39  1  0.52909073  0.02778745  0.44988430  1.0
  C  C40  1  0.49988728  0.75142242  0.49976215  1.0
  C  C41  1  0.50011057  0.24858807  0.50023433  1.0
  C  C42  1  0.58605431  0.97223259  0.49056289  1.0
  C  C43  1  0.41395504  0.02777723  0.50943106  1.0
  C  C44  1  0.50004586  0.50023712  0.39017118  1.0
  C  C45  1  0.49996224  0.49974668  0.60982530  1.0
  C  C46  1  0.50122459  0.91432504  0.49887595  1.0
  C  C47  1  0.49878408  0.08568726  0.50111842  1.0
  C  C48  1  0.50080752  0.82684110  0.49889051  1.0
  C  C49  1  0.49919846  0.17316749  0.50110428  1.0
  C  C50  1  0.96947818  0.57600224  0.51650652  1.0
  C  C51  1  0.03052511  0.42400389  0.48349037  1.0
  C  C52  1  0.02988821  0.51687499  0.55292405  1.0
  C  C53  1  0.97011372  0.48313115  0.44707242  1.0
  C  C54  1  0.02974955  0.55892840  0.46360325  1.0
  C  C55  1  0.97025306  0.44107835  0.53639323  1.0
  C  C56  1  0.09231736  0.49982176  0.50002852  1.0
  C  C57  1  0.90768660  0.50018499  0.49996711  1.0
  C  C58  1  0.18803592  0.49995563  0.50004321  1.0
  C  C59  1  0.81197142  0.50005172  0.49995158  1.0
  C  C60  1  0.52390205  0.42399874  0.87789239  1.0
  C  C61  1  0.47605979  0.57588302  0.12212219  1.0
  C  C62  1  0.47561825  0.57356643  0.87773018  1.0
  C  C63  1  0.52435037  0.42631220  0.12227767  1.0
  C  C64  1  0.47617482  0.57117579  0.94013635  1.0
  C  C65  1  0.52381278  0.42869163  0.05987318  1.0
  C  C66  1  0.50039439  0.49826168  0.96997159  1.0
  C  C67  1  0.49957359  0.50160829  0.03004383  1.0
  C  C68  1  0.52465816  0.42429520  0.94054351  1.0
  C  C69  1  0.47529294  0.57556677  0.05947275  1.0
  C  C70  1  0.45252395  0.64279130  0.96860593  1.0
  C  C71  1  0.54745824  0.35707861  0.03140570  1.0
  C  C72  1  0.45171087  0.64591243  0.02783171  1.0
  C  C73  1  0.54826185  0.35395566  0.97217740  1.0
  N  N74  1  0.49985937  0.49930067  0.85096941  1.0
  N  N75  1  0.50013155  0.50058532  0.14903802  1.0
  N  N76  1  0.26657062  0.50029894  0.50001185  1.0
  N  N77  1  0.73343129  0.49971216  0.49998547  1.0
  Cl  Cl78  1  0.42050634  0.73940340  0.05659491  1.0
  Cl  Cl79  1  0.57945961  0.26046595  0.94341546  1.0
  Cl  Cl80  1  0.43376937  0.93591120  0.61488262  1.0
  Cl  Cl81  1  0.56623797  0.06409491  0.38511175  1.0
  O  O82  1  0.57704863  0.62640782  0.50011325  1.0
  O  O83  1  0.42294855  0.37360268  0.49989880  1.0
  O  O84  1  0.42258741  0.62725457  0.50012975  1.0
  O  O85  1  0.57741179  0.37275652  0.49985663  1.0
  O  O86  1  0.57687659  0.50001253  0.41444256  1.0
  O  O87  1  0.42313268  0.50001775  0.58555181  1.0
  O  O88  1  0.42319591  0.50036826  0.41444759  1.0
  O  O89  1  0.57681495  0.49960438  0.58554931  1.0
  O  O90  1  0.54244690  0.36308751  0.84913774  1.0
  O  O91  1  0.45749668  0.63679432  0.15088190  1.0
  O  O92  1  0.45558607  0.63608487  0.85085544  1.0
  O  O93  1  0.54436091  0.36379199  0.14915662  1.0
