# generated using pymatgen
data_ZnH14(C2N)6
_symmetry_space_group_name_H-M   'P 1'
_cell_length_a   15.00585526
_cell_length_b   15.00589761
_cell_length_c   15.00576681
_cell_angle_alpha   107.80661258
_cell_angle_beta   110.34610162
_cell_angle_gamma   110.27355812
_symmetry_Int_Tables_number   1
_chemical_formula_structural   ZnH14(C2N)6
_chemical_formula_sum   'Zn4 H56 C48 N24'
_cell_volume   2599.47372332
_cell_formula_units_Z   4
loop_
 _symmetry_equiv_pos_site_id
 _symmetry_equiv_pos_as_xyz
  1  'x, y, z'
loop_
 _atom_site_type_symbol
 _atom_site_label
 _atom_site_symmetry_multiplicity
 _atom_site_fract_x
 _atom_site_fract_y
 _atom_site_fract_z
 _atom_site_occupancy
  Zn  Zn0  1  0.49999877  0.36412427  0.86412240  1.0
  Zn  Zn1  1  0.36336830  0.49999982  0.86336832  1.0
  Zn  Zn2  1  0.49999677  0.63587402  0.13587460  1.0
  Zn  Zn3  1  0.63662664  0.49999839  0.13662706  1.0
  H  H4  1  0.68692575  0.50697006  0.83494294  1.0
  H  H5  1  0.26324404  0.66005368  0.81560842  1.0
  H  H6  1  0.26331045  0.04795002  0.66514266  1.0
  H  H7  1  0.50394476  0.25330362  0.20518211  1.0
  H  H8  1  0.49645527  0.38066428  0.33919776  1.0
  H  H9  1  0.36389879  0.30102686  0.21671753  1.0
  H  H10  1  0.45961026  0.43403305  0.25099387  1.0
  H  H11  1  0.58431970  0.81054890  0.43859327  1.0
  H  H12  1  0.40681428  0.72818785  0.41340580  1.0
  H  H13  1  0.47337590  0.66870055  0.47797755  1.0
  H  H14  1  0.38280518  0.59817095  0.33486142  1.0
  H  H15  1  0.04811980  0.29876540  0.79481417  1.0
  H  H16  1  0.67202679  0.85198256  0.16506487  1.0
  H  H17  1  0.08430746  0.14718354  0.78328147  1.0
  H  H18  1  0.18303810  0.20861755  0.74900451  1.0
  H  H19  1  0.04146679  0.15726015  0.66080088  1.0
  H  H20  1  0.84443606  0.44763036  0.18438833  1.0
  H  H21  1  0.32796714  0.49303195  0.17995434  1.0
  H  H22  1  0.15556191  0.33994927  0.60318430  1.0
  H  H23  1  0.31307137  0.14801508  0.82004404  1.0
  H  H24  1  0.73675750  0.55236831  0.39680725  1.0
  H  H25  1  0.96989651  0.21720318  0.85523964  1.0
  H  H26  1  0.65452008  0.79454799  0.60414519  1.0
  H  H27  1  0.36196220  0.11465739  0.14476165  1.0
  H  H28  1  0.19039784  0.05036809  0.39585017  1.0
  H  H29  1  0.63803847  0.78279800  0.75269523  1.0
  H  H30  1  0.80959901  0.20545336  0.85997274  1.0
  H  H31  1  0.03009780  0.88534027  0.24730070  1.0
  H  H32  1  0.34548071  0.94962497  0.14002587  1.0
  H  H33  1  0.10575017  0.39846886  0.09302126  1.0
  H  H34  1  0.69972513  0.60558440  0.56748593  1.0
  H  H35  1  0.30544611  0.01273072  0.90697997  1.0
  H  H36  1  0.03810533  0.13224456  0.43251213  1.0
  H  H37  1  0.69455386  0.60153446  0.70728155  1.0
  H  H38  1  0.96189478  0.39441059  0.09414080  1.0
  H  H39  1  0.89424858  0.98726826  0.29272746  1.0
  H  H40  1  0.30027981  0.86776362  0.90586000  1.0
  H  H41  1  0.41569298  0.85427104  0.22623737  1.0
  H  H42  1  0.59319985  0.00658828  0.32137387  1.0
  H  H43  1  0.52662762  0.00460648  0.19533179  1.0
  H  H44  1  0.61719436  0.95205632  0.21535195  1.0
  H  H45  1  0.95187562  0.74669631  0.25064623  1.0
  H  H46  1  0.95853550  0.61933902  0.11579820  1.0
  H  H47  1  0.91569444  0.69897855  0.06287932  1.0
  H  H48  1  0.81696286  0.56596858  0.02557927  1.0
  H  H49  1  0.62804110  0.18944765  0.77376632  1.0
  H  H50  1  0.68521258  0.27180814  0.67862063  1.0
  H  H51  1  0.80927278  0.33129969  0.80467035  1.0
  H  H52  1  0.73668175  0.40182522  0.78462822  1.0
  H  H53  1  0.49605948  0.70123904  0.74935880  1.0
  H  H54  1  0.50355359  0.84274719  0.88421015  1.0
  H  H55  1  0.63610856  0.85281705  0.93712785  1.0
  H  H56  1  0.54039484  0.79138555  0.97442447  1.0
  H  H57  1  0.37196599  0.14573046  0.56141487  1.0
  H  H58  1  0.31479647  0.99341701  0.58661234  1.0
  H  H59  1  0.19073386  0.99539777  0.52202485  1.0
  C  C60  1  0.63559508  0.54220581  0.84042903  1.0
  C  C61  1  0.31090707  0.68845164  0.90206378  1.0
  C  C62  1  0.70177591  0.79516535  0.15957379  1.0
  C  C63  1  0.78637949  0.40883838  0.09793210  1.0
  C  C64  1  0.29822009  0.45779398  0.09338724  1.0
  C  C65  1  0.21361668  0.31155039  0.62245065  1.0
  C  C66  1  0.36440110  0.20483387  0.90661044  1.0
  C  C67  1  0.68909327  0.59115947  0.37754258  1.0
  C  C68  1  0.40524301  0.77853842  0.08240074  1.0
  C  C69  1  0.79814290  0.71135880  0.16654826  1.0
  C  C70  1  0.69613182  0.32283337  0.91759597  1.0
  C  C71  1  0.54481381  0.63159713  0.83345133  1.0
  C  C72  1  0.30386701  0.22146435  0.62670176  1.0
  C  C73  1  0.45518416  0.28863841  0.08678366  1.0
  C  C74  1  0.59475872  0.67716010  0.37329633  1.0
  C  C75  1  0.20185261  0.36840372  0.91321237  1.0
  C  C76  1  0.62397180  0.61816294  0.80813207  1.0
  C  C77  1  0.33988963  0.78298582  0.99058064  1.0
  C  C78  1  0.81002934  0.81583659  0.19187124  1.0
  C  C79  1  0.79239703  0.34930000  0.00941622  1.0
  C  C80  1  0.18996671  0.38183698  0.00580457  1.0
  C  C81  1  0.20760070  0.21701616  0.55689916  1.0
  C  C82  1  0.37602716  0.18416107  0.99419261  1.0
  C  C83  1  0.66011375  0.65069447  0.44309632  1.0
  C  C84  1  0.98553225  0.27351310  0.93287647  1.0
  C  C85  1  0.66850692  0.73308918  0.62089550  1.0
  C  C86  1  0.34063737  0.05265800  0.06712725  1.0
  C  C87  1  0.11219221  0.04760625  0.37910115  1.0
  C  C88  1  0.65936106  0.72648983  0.71202029  1.0
  C  C89  1  0.88780474  0.26690867  0.93541576  1.0
  C  C90  1  0.01446284  0.94733919  0.28797731  1.0
  C  C91  1  0.33149394  0.95238889  0.06458157  1.0
  C  C92  1  0.09187407  0.34847559  0.01352042  1.0
  C  C93  1  0.68066335  0.66418885  0.54905954  1.0
  C  C94  1  0.33495234  0.07835542  0.98647765  1.0
  C  C95  1  0.11513115  0.13160394  0.45093882  1.0
  C  C96  1  0.66504922  0.65152543  0.74340316  1.0
  C  C97  1  0.88486827  0.33581307  0.01647559  1.0
  C  C98  1  0.90812116  0.92164247  0.25660495  1.0
  C  C99  1  0.31934302  0.86840054  0.98352572  1.0
  C  C100  1  0.55396421  0.95912460  0.23282354  1.0
  C  C101  1  0.89382741  0.64020560  0.09250470  1.0
  C  C102  1  0.72629542  0.32113026  0.76717085  1.0
  C  C103  1  0.54770858  0.80132707  0.90750110  1.0
  C  C104  1  0.27370779  0.04087928  0.59484024  1.0
  C  C105  1  0.45229805  0.35979828  0.25362334  1.0
  C  C106  1  0.44604189  0.67886735  0.40516666  1.0
  C  C107  1  0.10617354  0.19867678  0.74637623  1.0
  N  N108  1  0.57037648  0.51352059  0.88115464  1.0
  N  N109  1  0.35391043  0.63255711  0.93703710  1.0
  N  N110  1  0.63236511  0.68922321  0.11884748  1.0
  N  N111  1  0.69551291  0.41687028  0.06295690  1.0
  N  N112  1  0.36763023  0.48647900  0.05685523  1.0
  N  N113  1  0.30448329  0.36744397  0.72135102  1.0
  N  N114  1  0.42962043  0.31077722  0.94314233  1.0
  N  N115  1  0.64608623  0.58312568  0.27864409  1.0
  N  N116  1  0.41247898  0.68840640  0.04824000  1.0
  N  N117  1  0.69172602  0.63759588  0.12437179  1.0
  N  N118  1  0.64016124  0.36423530  0.95175403  1.0
  N  N119  1  0.51322264  0.56735474  0.87562466  1.0
  N  N120  1  0.35983642  0.31159525  0.72407226  1.0
  N  N121  1  0.48677459  0.36240082  0.05413098  1.0
  N  N122  1  0.58751791  0.63575947  0.27592446  1.0
  N  N123  1  0.30826848  0.43264513  0.94586656  1.0
  N  N124  1  0.46577688  0.85063142  0.19542927  1.0
  N  N125  1  0.87895426  0.68125947  0.18560099  1.0
  N  N126  1  0.65519885  0.27033653  0.80456671  1.0
  N  N127  1  0.49566657  0.69336036  0.81440284  1.0
  N  N128  1  0.34480208  0.14937046  0.61514210  1.0
  N  N129  1  0.50433893  0.31874081  0.19769580  1.0
  N  N130  1  0.53423075  0.72965984  0.38486238  1.0
  N  N131  1  0.12104323  0.30664372  0.80230168  1.0
