# generated using pymatgen
data_AlH7C12O6F
_symmetry_space_group_name_H-M   'P 1'
_cell_length_a   6.69435456
_cell_length_b   11.15139311
_cell_length_c   15.32732116
_cell_angle_alpha   91.67200469
_cell_angle_beta   102.55231002
_cell_angle_gamma   106.58969256
_symmetry_Int_Tables_number   1
_chemical_formula_structural   AlH7C12O6F
_chemical_formula_sum   'Al2 H14 C24 O12 F2'
_cell_volume   1065.26440390
_cell_formula_units_Z   2
loop_
 _symmetry_equiv_pos_site_id
 _symmetry_equiv_pos_as_xyz
  1  'x, y, z'
loop_
 _atom_site_type_symbol
 _atom_site_label
 _atom_site_symmetry_multiplicity
 _atom_site_fract_x
 _atom_site_fract_y
 _atom_site_fract_z
 _atom_site_occupancy
  Al  Al0  1  0.00074293  0.50084821  0.50490543  1.0
  Al  Al1  1  0.49842596  0.49610676  0.50549350  1.0
  H  H2  1  0.14488142  0.35422347  0.43981334  1.0
  H  H3  1  0.84753705  0.63843561  0.57637820  1.0
  H  H4  1  0.19780245  0.47829369  0.06662588  1.0
  H  H5  1  0.76043798  0.45569318  0.94218992  1.0
  H  H6  1  0.09106109  0.53228492  0.77764611  1.0
  H  H7  1  0.17411867  0.54824720  0.94243966  1.0
  H  H8  1  0.94734474  0.54426887  0.23544877  1.0
  H  H9  1  0.87067885  0.54666053  0.07163626  1.0
  H  H10  1  0.14517630  0.10039837  0.35609027  1.0
  H  H11  1  0.07394407  0.11969349  0.46052674  1.0
  H  H12  1  0.94703459  0.88461845  0.46187748  1.0
  H  H13  1  0.02095466  0.86571163  0.35855227  1.0
  H  H14  1  0.30737390  0.49637489  0.30170703  1.0
  H  H15  1  0.66031434  0.44956702  0.70786215  1.0
  C  C16  1  0.64839445  0.27295983  0.50485714  1.0
  C  C17  1  0.67224235  0.51118604  0.34279443  1.0
  C  C18  1  0.35862679  0.72433337  0.51283413  1.0
  C  C19  1  0.32933413  0.49064241  0.66786314  1.0
  C  C20  1  0.62206572  0.51691945  0.24516692  1.0
  C  C21  1  0.38000553  0.49211412  0.76603873  1.0
  C  C22  1  0.40931698  0.50185903  0.19575671  1.0
  C  C23  1  0.36482598  0.49677032  0.10195929  1.0
  C  C24  1  0.57169776  0.47104355  0.81435013  1.0
  C  C25  1  0.61481604  0.47602921  0.90818902  1.0
  C  C26  1  0.23887948  0.51763042  0.81474645  1.0
  C  C27  1  0.28468332  0.52425441  0.90742637  1.0
  C  C28  1  0.78421535  0.53233211  0.19787501  1.0
  C  C29  1  0.73958072  0.53123502  0.10542779  1.0
  C  C30  1  0.52678493  0.51082550  0.05536122  1.0
  C  C31  1  0.47514813  0.50362526  0.95610741  1.0
  C  C32  1  0.57874701  0.13512018  0.51111809  1.0
  C  C33  1  0.43296447  0.86355764  0.51601838  1.0
  C  C34  1  0.36758447  0.06183007  0.47453667  1.0
  C  C35  1  0.64483386  0.93701824  0.55576050  1.0
  C  C36  1  0.29777924  0.93194681  0.47650757  1.0
  C  C37  1  0.71531650  0.06763507  0.55329003  1.0
  C  C38  1  0.15036595  0.06755667  0.42320496  1.0
  C  C39  1  0.07135988  0.91974959  0.42476741  1.0
  O  O40  1  0.84501065  0.32748348  0.50846560  1.0
  O  O41  1  0.52200342  0.51345183  0.38349124  1.0
  O  O42  1  0.49915212  0.66666667  0.51919511  1.0
  O  O43  1  0.15357426  0.50747507  0.62759644  1.0
  O  O44  1  0.15777900  0.67352626  0.50204318  1.0
  O  O45  1  0.47240205  0.47465041  0.62715892  1.0
  O  O46  1  0.49971359  0.32528457  0.49408762  1.0
  O  O47  1  0.85377115  0.50122341  0.38218758  1.0
  O  O48  1  0.20103098  0.44276054  0.46156289  1.0
  O  O49  1  0.79561102  0.55277736  0.54812794  1.0
  O  O50  1  0.24382941  0.48834670  0.23552530  1.0
  O  O51  1  0.71632978  0.44532538  0.77345350  1.0
  F  F52  1  0.79150702  0.88431727  0.60037598  1.0
  F  F53  1  0.92166084  0.12714046  0.59554540  1.0
