# generated using pymatgen
data_Al6H33C78(O6F)5
_symmetry_space_group_name_H-M   'P 1'
_cell_length_a   12.13565742
_cell_length_b   12.47963876
_cell_length_c   28.01546629
_cell_angle_alpha   88.78655256
_cell_angle_beta   89.97030091
_cell_angle_gamma   61.58031610
_symmetry_Int_Tables_number   1
_chemical_formula_structural   Al6H33C78(O6F)5
_chemical_formula_sum   'Al6 H33 C78 O30 F5'
_cell_volume   3730.51332866
_cell_formula_units_Z   1
loop_
 _symmetry_equiv_pos_site_id
 _symmetry_equiv_pos_as_xyz
  1  'x, y, z'
loop_
 _atom_site_type_symbol
 _atom_site_label
 _atom_site_symmetry_multiplicity
 _atom_site_fract_x
 _atom_site_fract_y
 _atom_site_fract_z
 _atom_site_occupancy
  Al  Al0  1  0.39839741  0.40710100  0.49519015  1.0
  Al  Al1  1  0.66412846  0.40487590  0.49812209  1.0
  Al  Al2  1  0.43097948  0.64797235  0.49666849  1.0
  Al  Al3  1  0.92217202  0.92888213  0.98279050  1.0
  Al  Al4  1  0.91378542  0.67471107  0.98198795  1.0
  Al  Al5  1  0.66986465  0.90884569  0.98121904  1.0
  H  H6  1  0.77687224  0.73979342  0.29106298  1.0
  H  H7  1  0.61345949  0.99458084  0.21347763  1.0
  H  H8  1  0.72369437  0.27101072  0.18463594  1.0
  H  H9  1  0.71975522  0.30878907  0.27169149  1.0
  H  H10  1  0.79622805  0.42458072  0.62525276  1.0
  H  H11  1  0.70291041  0.86817451  0.83753775  1.0
  H  H12  1  0.82354933  0.45191420  0.71147835  1.0
  H  H13  1  0.70946752  0.48700509  0.78676395  1.0
  H  H14  1  0.73509869  0.51521249  0.87225414  1.0
  H  H15  1  0.53606338  0.82697795  0.69824238  1.0
  H  H16  1  0.78522972  0.76274244  0.20316521  1.0
  H  H17  1  0.51043540  0.79880865  0.61255325  1.0
  H  H18  1  0.32901246  0.74942673  0.62663393  1.0
  H  H19  1  0.18782240  0.49715197  0.77569421  1.0
  H  H20  1  0.12301555  0.52338173  0.86087321  1.0
  H  H21  1  0.11200927  0.87194823  0.76729846  1.0
  H  H22  1  0.05341162  0.89450639  0.85322113  1.0
  H  H23  1  0.09502326  0.55609064  0.70147902  1.0
  H  H24  1  0.41632194  0.31157864  0.62468266  1.0
  H  H25  1  0.55948180  0.58189867  0.18518052  1.0
  H  H26  1  0.50969938  0.09991570  0.77118504  1.0
  H  H27  1  0.53440668  0.05110930  0.85844819  1.0
  H  H28  1  0.82349521  0.13598033  0.71212613  1.0
  H  H29  1  0.81466476  0.18259226  0.62486305  1.0
  H  H30  1  0.29748802  0.75537874  0.27094979  1.0
  H  H31  1  0.26653084  0.75146865  0.18308579  1.0
  H  H32  1  0.02956471  0.58603303  0.20824049  1.0
  H  H33  1  0.05984721  0.59079511  0.29605477  1.0
  H  H34  1  0.61088184  0.03145431  0.30049120  1.0
  H  H35  1  0.74218100  0.29970151  0.74994457  1.0
  H  H36  1  0.81968554  0.26510698  0.85511342  1.0
  H  H37  1  0.28413765  0.31722904  0.46403679  1.0
  H  H38  1  0.01827375  0.03688029  0.01352568  1.0
  C  C39  1  0.62072659  0.27285402  0.42985739  1.0
  C  C40  1  0.60758556  0.61687912  0.20775031  1.0
  C  C41  1  0.60527089  0.60460565  0.25688577  1.0
  C  C42  1  0.66507957  0.64770895  0.28840244  1.0
  C  C43  1  0.67325233  0.67422751  0.18773856  1.0
  C  C44  1  0.67922133  0.68620520  0.13748906  1.0
  C  C45  1  0.65868819  0.63262410  0.33836484  1.0
  C  C46  1  0.68676687  0.69619483  0.09439336  1.0
  C  C47  1  0.22629632  0.66211597  0.38124197  1.0
  C  C48  1  0.23859268  0.71914362  0.25687731  1.0
  C  C49  1  0.22200855  0.71629183  0.20809666  1.0
  C  C50  1  0.62578506  0.59397527  0.42941059  1.0
  C  C51  1  0.08770508  0.62325236  0.22225369  1.0
  C  C52  1  0.10414870  0.62625392  0.27106392  1.0
  C  C53  1  0.18022231  0.67385791  0.28905961  1.0
  C  C54  1  0.14641868  0.66823432  0.19006561  1.0
  C  C55  1  0.12663123  0.66920008  0.14036396  1.0
  C  C56  1  0.20251147  0.67088621  0.33864537  1.0
  C  C57  1  0.10665085  0.67565226  0.09751938  1.0
  C  C58  1  0.65250093  0.22105078  0.38326260  1.0
  C  C59  1  0.63594706  0.08320907  0.27496771  1.0
  C  C60  1  0.63720682  0.06282341  0.22646187  1.0
  C  C61  1  0.27886755  0.62695767  0.42843920  1.0
  C  C62  1  0.69901265  0.21900812  0.21018324  1.0
  C  C63  1  0.69754513  0.23960592  0.25867405  1.0
  C  C64  1  0.66609179  0.17199757  0.29184717  1.0
  C  C65  1  0.66921951  0.13000619  0.19327850  1.0
  C  C66  1  0.67487163  0.10550619  0.14401227  1.0
  C  C67  1  0.66090565  0.19638229  0.34110031  1.0
  C  C68  1  0.68378520  0.08109249  0.10182317  1.0
  C  C69  1  0.65285646  0.61025850  0.61337061  1.0
  C  C70  1  0.74054465  0.51251985  0.64162002  1.0
  C  C71  1  0.75413211  0.52804557  0.68992743  1.0
  C  C72  1  0.60458249  0.28175282  0.56768290  1.0
  C  C73  1  0.68197194  0.64152491  0.71120556  1.0
  C  C74  1  0.59457973  0.73899349  0.68242572  1.0
  C  C75  1  0.57970924  0.72348178  0.63436119  1.0
  C  C76  1  0.69628225  0.76340028  0.77923617  1.0
  C  C77  1  0.70447427  0.78396280  0.82715010  1.0
  C  C78  1  0.72395100  0.58552312  0.84600029  1.0
  C  C79  1  0.71094524  0.56958622  0.79764160  1.0
  C  C80  1  0.69641724  0.65805966  0.76253878  1.0
  C  C81  1  0.71787655  0.69444847  0.86109604  1.0
  C  C82  1  0.24271476  0.63554890  0.61517932  1.0
  C  C83  1  0.62905833  0.59049294  0.56326659  1.0
  C  C84  1  0.27699763  0.70751670  0.64294356  1.0
  C  C85  1  0.24866890  0.72180907  0.69092665  1.0
  C  C86  1  0.18366377  0.66829495  0.71424898  1.0
  C  C87  1  0.14835092  0.59771686  0.68602354  1.0
  C  C88  1  0.17789765  0.58145573  0.63800281  1.0
  C  C89  1  0.15595695  0.58515539  0.79231622  1.0
  C  C90  1  0.12160173  0.59875877  0.84003666  1.0
  C  C91  1  0.08279753  0.80836010  0.83546637  1.0
  C  C92  1  0.11590151  0.79496080  0.78768459  1.0
  C  C93  1  0.15257375  0.68321531  0.76534958  1.0
  C  C94  1  0.28643870  0.61168033  0.56505537  1.0
  C  C95  1  0.08493097  0.71060644  0.86183236  1.0
  C  C96  1  0.61549803  0.24939893  0.61954227  1.0
  C  C97  1  0.50524777  0.27491414  0.64404285  1.0
  C  C98  1  0.51121198  0.25551747  0.69298269  1.0
  C  C99  1  0.62366371  0.20720235  0.71943825  1.0
  C  C100  1  0.73333379  0.17969106  0.69333566  1.0
  C  C101  1  0.72967292  0.20234364  0.64436945  1.0
  C  C102  1  0.69982124  0.21919228  0.80066818  1.0
  C  C103  1  0.71631906  0.18988851  0.84987515  1.0
  C  C104  1  0.57979824  0.09916306  0.84169350  1.0
  C  C105  1  0.65101043  0.61816217  0.38115994  1.0
  C  C106  1  0.56560493  0.12698046  0.79323374  1.0
  C  C107  1  0.62863296  0.18485280  0.77149758  1.0
  C  C108  1  0.65883814  0.12534199  0.87037485  1.0
  C  C109  1  0.05779341  0.70557567  0.04958431  1.0
  C  C110  1  0.71413568  0.71612769  0.04596646  1.0
  C  C111  1  0.71200532  0.03544839  0.05412358  1.0
  C  C112  1  0.04124692  0.73071386  0.91192346  1.0
  C  C113  1  0.73031165  0.71936349  0.91214164  1.0
  C  C114  1  0.69362908  0.06720085  0.91864915  1.0
  C  C115  1  0.72975899  0.70546685  0.26760699  1.0
  C  C116  1  0.73424676  0.71838351  0.21839849  1.0
  O  O117  1  0.29926906  0.52306560  0.44370218  1.0
  O  O118  1  0.70425306  0.48927966  0.54427076  1.0
  O  O119  1  0.53004109  0.67331583  0.54243739  1.0
  O  O120  1  0.31538618  0.68959892  0.54548084  1.0
  O  O121  1  0.49923747  0.48780146  0.49631044  1.0
  O  O122  1  0.81455247  0.02028446  0.03685860  1.0
  O  O123  1  0.03340097  0.80942342  0.03319028  1.0
  O  O124  1  0.03769556  0.62539181  0.02831580  1.0
  O  O125  1  0.82284789  0.64183457  0.03120124  1.0
  O  O126  1  0.63168790  0.80945549  0.02279213  1.0
  O  O127  1  0.63213856  0.00999288  0.03393122  1.0
  O  O128  1  0.51065740  0.30522548  0.44378073  1.0
  O  O129  1  0.80069033  0.03912442  0.93517756  1.0
  O  O130  1  0.01718569  0.83115666  0.93002353  1.0
  O  O131  1  0.02649102  0.64521738  0.93300538  1.0
  O  O132  1  0.82141836  0.63721850  0.93676355  1.0
  O  O133  1  0.65324005  0.82449218  0.92711322  1.0
  O  O134  1  0.61402740  0.03969239  0.93922837  1.0
  O  O135  1  0.83458096  0.83528767  0.98313795  1.0
  O  O136  1  0.70569111  0.28640097  0.45273237  1.0
  O  O137  1  0.70162208  0.49132298  0.44866860  1.0
  O  O138  1  0.52507457  0.67531428  0.44779944  1.0
  O  O139  1  0.30559849  0.70166336  0.45043842  1.0
  O  O140  1  0.29886745  0.51600018  0.54616045  1.0
  O  O141  1  0.50425392  0.30272042  0.54674977  1.0
  O  O142  1  0.69595055  0.29201935  0.54837866  1.0
  O  O143  1  0.75877388  0.28378399  0.78425985  1.0
  O  O144  1  0.78592634  0.22529076  0.87652636  1.0
  O  O145  1  0.30927435  0.33063615  0.49510152  1.0
  O  O146  1  0.00665186  0.00994488  0.98275835  1.0
  F  F147  1  0.68998341  0.85025076  0.74718028  1.0
  F  F148  1  0.28977483  0.78836623  0.71649784  1.0
  F  F149  1  0.13920966  0.51321844  0.61328073  1.0
  F  F150  1  0.40178897  0.28653101  0.71637112  1.0
  F  F151  1  0.54259567  0.54824332  0.27570374  1.0
