# generated using pymatgen
data_CuH46C66S2(N2O3)2
_symmetry_space_group_name_H-M   'P 1'
_cell_length_a   9.01522283
_cell_length_b   18.32564484
_cell_length_c   18.32560784
_cell_angle_alpha   97.70896659
_cell_angle_beta   95.41415829
_cell_angle_gamma   95.41397313
_symmetry_Int_Tables_number   1
_chemical_formula_structural   CuH46C66S2(N2O3)2
_chemical_formula_sum   'Cu2 H92 C132 S4 N8 O12'
_cell_volume   2969.19974587
_cell_formula_units_Z   2
loop_
 _symmetry_equiv_pos_site_id
 _symmetry_equiv_pos_as_xyz
  1  'x, y, z'
loop_
 _atom_site_type_symbol
 _atom_site_label
 _atom_site_symmetry_multiplicity
 _atom_site_fract_x
 _atom_site_fract_y
 _atom_site_fract_z
 _atom_site_occupancy
  Cu  Cu0  1  0.74999938  0.26624694  0.73375320  1.0
  Cu  Cu1  1  0.24999686  0.73375365  0.26624545  1.0
  H  H2  1  0.77196962  0.43322430  0.88252212  1.0
  H  H3  1  0.72802741  0.11747923  0.56677500  1.0
  H  H4  1  0.22802316  0.56677573  0.11747739  1.0
  H  H5  1  0.27197352  0.88252249  0.43322511  1.0
  H  H6  1  0.88781569  0.54349900  0.97215315  1.0
  H  H7  1  0.61218107  0.02784820  0.45649958  1.0
  H  H8  1  0.11218121  0.45649938  0.02784796  1.0
  H  H9  1  0.38781495  0.97215129  0.54350164  1.0
  H  H10  1  0.73829746  0.60442697  0.06390214  1.0
  H  H11  1  0.76170149  0.93609939  0.39557258  1.0
  H  H12  1  0.26169978  0.39557307  0.93609866  1.0
  H  H13  1  0.23829652  0.06389899  0.60442857  1.0
  H  H14  1  0.42527455  0.22363868  0.75336542  1.0
  H  H15  1  0.07472055  0.24663326  0.77635793  1.0
  H  H16  1  0.57472456  0.77635971  0.24663251  1.0
  H  H17  1  0.92527334  0.75336678  0.22364053  1.0
  H  H18  1  0.26409103  0.10786183  0.76235300  1.0
  H  H19  1  0.23590918  0.23764813  0.89213522  1.0
  H  H20  1  0.73590932  0.89213712  0.23764561  1.0
  H  H21  1  0.76408886  0.76235580  0.10786287  1.0
  H  H22  1  0.37768675  0.98891962  0.75664213  1.0
  H  H23  1  0.12231690  0.24336027  0.01107895  1.0
  H  H24  1  0.62231359  0.01107933  0.24335539  1.0
  H  H25  1  0.87768506  0.75664643  0.98892079  1.0
  H  H26  1  0.80221039  0.11097266  0.73643447  1.0
  H  H27  1  0.69778930  0.26356403  0.88902757  1.0
  H  H28  1  0.19779218  0.88902629  0.26356424  1.0
  H  H29  1  0.30220683  0.73643600  0.11097318  1.0
  H  H30  1  0.79272198  0.98017438  0.72466158  1.0
  H  H31  1  0.70728120  0.27533980  0.01982433  1.0
  H  H32  1  0.20727814  0.01982346  0.27533796  1.0
  H  H33  1  0.29271850  0.72466136  0.98017728  1.0
  H  H34  1  0.50228690  0.90048057  0.76497512  1.0
  H  H35  1  0.99771384  0.23502251  0.09951826  1.0
  H  H36  1  0.49771210  0.09951726  0.23502382  1.0
  H  H37  1  0.00228381  0.76497422  0.90047938  1.0
  H  H38  1  0.55906850  0.86959981  0.86743348  1.0
  H  H39  1  0.94093292  0.13256502  0.13039851  1.0
  H  H40  1  0.44093790  0.13040137  0.13256789  1.0
  H  H41  1  0.05906909  0.86743116  0.86960143  1.0
  H  H42  1  0.52633932  0.79127777  0.96502498  1.0
  H  H43  1  0.97366020  0.03497226  0.20872082  1.0
  H  H44  1  0.47366508  0.20872450  0.03497700  1.0
  H  H45  1  0.02634169  0.96502336  0.79127958  1.0
  H  H46  1  0.62668594  0.66890398  0.95622345  1.0
  H  H47  1  0.87331436  0.04377480  0.33109523  1.0
  H  H48  1  0.37332081  0.33109885  0.04377925  1.0
  H  H49  1  0.12668666  0.95622193  0.66890638  1.0
  H  H50  1  0.76529927  0.62675154  0.85239212  1.0
  H  H51  1  0.73470288  0.14760784  0.37324791  1.0
  H  H52  1  0.23470613  0.37325018  0.14761146  1.0
  H  H53  1  0.26529724  0.85238999  0.62675272  1.0
  H  H54  1  0.94908580  0.66746754  0.60825047  1.0
  H  H55  1  0.55091599  0.39174747  0.33253065  1.0
  H  H56  1  0.05091232  0.33253140  0.39174968  1.0
  H  H57  1  0.44908601  0.60824871  0.66746765  1.0
  H  H58  1  0.95854585  0.74105185  0.50570238  1.0
  H  H59  1  0.54145186  0.49429557  0.25894669  1.0
  H  H60  1  0.04145117  0.25894708  0.49429826  1.0
  H  H61  1  0.45855037  0.50570172  0.74105341  1.0
  H  H62  1  0.83095052  0.85528711  0.50849682  1.0
  H  H63  1  0.66905125  0.49150292  0.14471278  1.0
  H  H64  1  0.16905007  0.14471294  0.49150413  1.0
  H  H65  1  0.33095368  0.50849659  0.85528775  1.0
  H  H66  1  0.70770558  0.90077607  0.61734857  1.0
  H  H67  1  0.79230529  0.38265220  0.09922602  1.0
  H  H68  1  0.29229981  0.09922565  0.38265229  1.0
  H  H69  1  0.20770310  0.61734787  0.90077529  1.0
  H  H70  1  0.99562224  0.63411467  0.70729580  1.0
  H  H71  1  0.50438055  0.29270260  0.36588366  1.0
  H  H72  1  0.00437588  0.36588427  0.29270271  1.0
  H  H73  1  0.49561909  0.70729302  0.63411283  1.0
  H  H74  1  0.71084313  0.55272268  0.75050532  1.0
  H  H75  1  0.78915979  0.24949470  0.44727925  1.0
  H  H76  1  0.28915716  0.44728124  0.24949779  1.0
  H  H77  1  0.21083833  0.75050424  0.55271872  1.0
  H  H78  1  0.11446082  0.54265872  0.69697671  1.0
  H  H79  1  0.38554164  0.30302627  0.45734024  1.0
  H  H80  1  0.88553678  0.45734298  0.30302597  1.0
  H  H81  1  0.61446150  0.69697546  0.54265615  1.0
  H  H82  1  0.21915431  0.42209232  0.67624911  1.0
  H  H83  1  0.28084774  0.32375331  0.57790721  1.0
  H  H84  1  0.78084093  0.57790882  0.32375175  1.0
  H  H85  1  0.71915364  0.67625062  0.42209049  1.0
  H  H86  1  0.05963819  0.30551411  0.68725790  1.0
  H  H87  1  0.44035991  0.31274131  0.69448557  1.0
  H  H88  1  0.94035605  0.69448759  0.31274245  1.0
  H  H89  1  0.55963609  0.68725818  0.30551237  1.0
  H  H90  1  0.70934936  0.42276213  0.74826090  1.0
  H  H91  1  0.79065113  0.25174067  0.57723792  1.0
  H  H92  1  0.29064489  0.57723956  0.25174109  1.0
  H  H93  1  0.20934846  0.74825993  0.42276143  1.0
  C  C94  1  0.55694143  0.43458328  0.92221646  1.0
  C  C95  1  0.94305564  0.07778439  0.56541680  1.0
  C  C96  1  0.44305404  0.56541897  0.07778347  1.0
  C  C97  1  0.05694417  0.92221733  0.43458162  1.0
  C  C98  1  0.70548150  0.46108279  0.92206380  1.0
  C  C99  1  0.79451451  0.07793698  0.53891583  1.0
  C  C100  1  0.29451128  0.53891724  0.07793461  1.0
  C  C101  1  0.20548531  0.92206473  0.46108368  1.0
  C  C102  1  0.77046626  0.52295166  0.97309055  1.0
  C  C103  1  0.72953191  0.02691184  0.47704770  1.0
  C  C104  1  0.22952775  0.47704893  0.02690909  1.0
  C  C105  1  0.27046879  0.97308876  0.52295224  1.0
  C  C106  1  0.68692799  0.55750642  0.02387931  1.0
  C  C107  1  0.81307064  0.97612205  0.44249240  1.0
  C  C108  1  0.31306736  0.44249528  0.97612054  1.0
  C  C109  1  0.18693005  0.02387855  0.55750645  1.0
  C  C110  1  0.53380354  0.53155191  0.02587390  1.0
  C  C111  1  0.96619011  0.97412637  0.46844689  1.0
  C  C112  1  0.46618969  0.46845034  0.97412430  1.0
  C  C113  1  0.03380770  0.02587644  0.53155159  1.0
  C  C114  1  0.47250461  0.17120530  0.75204140  1.0
  C  C115  1  0.02749119  0.24795715  0.82879298  1.0
  C  C116  1  0.52749462  0.82879364  0.24795716  1.0
  C  C117  1  0.97250393  0.75204344  0.17120616  1.0
  C  C118  1  0.38346712  0.10631146  0.75797058  1.0
  C  C119  1  0.11653375  0.24202949  0.89368717  1.0
  C  C120  1  0.61653446  0.89368804  0.24202816  1.0
  C  C121  1  0.88346271  0.75797222  0.10631164  1.0
  C  C122  1  0.44745595  0.04021032  0.75421646  1.0
  C  C123  1  0.05254528  0.24578544  0.95978869  1.0
  C  C124  1  0.55254340  0.95978917  0.24578272  1.0
  C  C125  1  0.94745388  0.75421849  0.04021110  1.0
  C  C126  1  0.60065604  0.03967079  0.74521137  1.0
  C  C127  1  0.89934479  0.25478966  0.96032875  1.0
  C  C128  1  0.39934554  0.96032871  0.25478847  1.0
  C  C129  1  0.10065168  0.74521204  0.03967061  1.0
  C  C130  1  0.68253182  0.10794575  0.74183026  1.0
  C  C131  1  0.81746692  0.25816902  0.89205383  1.0
  C  C132  1  0.31746853  0.89205320  0.25816890  1.0
  C  C133  1  0.18253044  0.74183157  0.10794597  1.0
  C  C134  1  0.67713696  0.97280284  0.73800263  1.0
  C  C135  1  0.82286478  0.26199882  0.02719566  1.0
  C  C136  1  0.32286059  0.02719333  0.26199820  1.0
  C  C137  1  0.17713704  0.73800178  0.97280597  1.0
  C  C138  1  0.61550219  0.90519645  0.74803360  1.0
  C  C139  1  0.88449823  0.25196576  0.09480296  1.0
  C  C140  1  0.38449640  0.09480470  0.25196633  1.0
  C  C141  1  0.11550411  0.74803208  0.90519505  1.0
  C  C142  1  0.68615137  0.83639097  0.74161968  1.0
  C  C143  1  0.81385129  0.25838054  0.16360833  1.0
  C  C144  1  0.31384934  0.16360964  0.25838245  1.0
  C  C145  1  0.18615094  0.74161675  0.83639123  1.0
  C  C146  1  0.67201422  0.79122982  0.79839121  1.0
  C  C147  1  0.82798757  0.20160810  0.20876929  1.0
  C  C148  1  0.32798860  0.20877024  0.20160984  1.0
  C  C149  1  0.17201256  0.79838974  0.79123079  1.0
  C  C150  1  0.59998738  0.81529950  0.86216287  1.0
  C  C151  1  0.90001361  0.13783675  0.18469877  1.0
  C  C152  1  0.40001578  0.18470222  0.13783843  1.0
  C  C153  1  0.09998875  0.86216109  0.81530196  1.0
  C  C154  1  0.58218531  0.77199689  0.91696824  1.0
  C  C155  1  0.91781348  0.08303168  0.22800192  1.0
  C  C156  1  0.41781898  0.22800483  0.08303366  1.0
  C  C157  1  0.08218676  0.91696671  0.77199879  1.0
  C  C158  1  0.63992313  0.70249673  0.91207605  1.0
  C  C159  1  0.86007694  0.08792364  0.29750204  1.0
  C  C160  1  0.36008216  0.29750444  0.08792636  1.0
  C  C161  1  0.13992430  0.91207419  0.70249918  1.0
  C  C162  1  0.71585778  0.67869212  0.85326784  1.0
  C  C163  1  0.78414481  0.14673288  0.32130760  1.0
  C  C164  1  0.28414762  0.32130960  0.14673520  1.0
  C  C165  1  0.21585754  0.85326496  0.67869314  1.0
  C  C166  1  0.73332019  0.72085955  0.79386571  1.0
  C  C167  1  0.76668367  0.20613317  0.27914026  1.0
  C  C168  1  0.26668421  0.27914272  0.20613626  1.0
  C  C169  1  0.23331979  0.79386468  0.72085889  1.0
  C  C170  1  0.81272936  0.69758716  0.73287089  1.0
  C  C171  1  0.68727833  0.26712903  0.30241161  1.0
  C  C172  1  0.18727569  0.30241290  0.26713081  1.0
  C  C173  1  0.31272524  0.73286937  0.69758707  1.0
  C  C174  1  0.82741252  0.74303218  0.67612192  1.0
  C  C175  1  0.67259429  0.32387799  0.25696732  1.0
  C  C176  1  0.17259142  0.25696788  0.32387973  1.0
  C  C177  1  0.32740805  0.67611985  0.74303178  1.0
  C  C178  1  0.89990764  0.71972348  0.61217651  1.0
  C  C179  1  0.60009471  0.38782331  0.28027631  1.0
  C  C180  1  0.10009284  0.28027602  0.38782491  1.0
  C  C181  1  0.39990740  0.61217343  0.71972153  1.0
  C  C182  1  0.90513177  0.76049950  0.55459731  1.0
  C  C183  1  0.59486922  0.44540091  0.23950164  1.0
  C  C184  1  0.09486793  0.23950166  0.44540157  1.0
  C  C185  1  0.40513191  0.55459638  0.76049896  1.0
  C  C186  1  0.83410809  0.82620917  0.55643761  1.0
  C  C187  1  0.66589711  0.44356324  0.17379163  1.0
  C  C188  1  0.16589485  0.17379143  0.44356462  1.0
  C  C189  1  0.33410547  0.55643571  0.82620763  1.0
  C  C190  1  0.76475420  0.85102818  0.61715072  1.0
  C  C191  1  0.73525583  0.38284797  0.14897283  1.0
  C  C192  1  0.23525219  0.14897299  0.38284902  1.0
  C  C193  1  0.26474863  0.61714933  0.85102628  1.0
  C  C194  1  0.76115890  0.81204775  0.67951291  1.0
  C  C195  1  0.73884903  0.32048721  0.18795350  1.0
  C  C196  1  0.23884438  0.18795453  0.32048847  1.0
  C  C197  1  0.26115543  0.67951009  0.81204561  1.0
  C  C198  1  0.88368296  0.62888487  0.72561173  1.0
  C  C199  1  0.61632408  0.27438723  0.37111554  1.0
  C  C200  1  0.11631997  0.37111574  0.27438831  1.0
  C  C201  1  0.38367280  0.72561115  0.62888120  1.0
  C  C202  1  0.82480270  0.56064142  0.73517456  1.0
  C  C203  1  0.67519831  0.26482522  0.43935849  1.0
  C  C204  1  0.17519613  0.43936084  0.26482826  1.0
  C  C205  1  0.32480270  0.73517151  0.56064258  1.0
  C  C206  1  0.89966962  0.49362508  0.72284299  1.0
  C  C207  1  0.60033433  0.27715766  0.50637521  1.0
  C  C208  1  0.10032810  0.50637717  0.27715977  1.0
  C  C209  1  0.39966567  0.72283963  0.49362316  1.0
  C  C210  1  0.04615017  0.49183519  0.70254975  1.0
  C  C211  1  0.45385082  0.29745309  0.50816477  1.0
  C  C212  1  0.95384621  0.50816595  0.29745443  1.0
  C  C213  1  0.54615175  0.70254587  0.49183340  1.0
  C  C214  1  0.10501377  0.42460984  0.69038716  1.0
  C  C215  1  0.39498650  0.30961422  0.57538921  1.0
  C  C216  1  0.89498359  0.57539075  0.30961427  1.0
  C  C217  1  0.60501296  0.69038583  0.42460896  1.0
  C  C218  1  0.01883108  0.35950021  0.69844619  1.0
  C  C219  1  0.48116786  0.30155382  0.64049919  1.0
  C  C220  1  0.98116405  0.64050038  0.30155459  1.0
  C  C221  1  0.51883248  0.69844513  0.35949833  1.0
  C  C222  1  0.82205912  0.42565463  0.73108958  1.0
  C  C223  1  0.67794147  0.26891165  0.57434520  1.0
  C  C224  1  0.17793837  0.57434652  0.26891302  1.0
  C  C225  1  0.32205877  0.73108674  0.42565333  1.0
  S  S226  1  0.48306687  0.35372470  0.85813696  1.0
  S  S227  1  0.01693245  0.14186352  0.64627430  1.0
  S  S228  1  0.51692703  0.64627533  0.14186315  1.0
  S  S229  1  0.98306959  0.85813820  0.35372476  1.0
  N  N230  1  0.61950103  0.17179737  0.74440138  1.0
  N  N231  1  0.88049163  0.25559658  0.82820168  1.0
  N  N232  1  0.38049708  0.82820157  0.25559658  1.0
  N  N233  1  0.11950350  0.74440401  0.17179910  1.0
  N  N234  1  0.87999594  0.36064420  0.71958716  1.0
  N  N235  1  0.62000529  0.28041300  0.63935487  1.0
  N  N236  1  0.12000142  0.63935639  0.28041372  1.0
  N  N237  1  0.37999405  0.71958650  0.36064323  1.0
  O  O238  1  0.59938768  0.34292723  0.80718672  1.0
  O  O239  1  0.90060788  0.19281238  0.65707377  1.0
  O  O240  1  0.40060598  0.65707169  0.19281322  1.0
  O  O241  1  0.09939071  0.80718877  0.34292615  1.0
  O  O242  1  0.34214544  0.36918100  0.81950444  1.0
  O  O243  1  0.15784937  0.18049593  0.63081517  1.0
  O  O244  1  0.65784788  0.63081626  0.18049472  1.0
  O  O245  1  0.84215154  0.81950579  0.36918167  1.0
  O  O246  1  0.46656490  0.29426369  0.90420654  1.0
  O  O247  1  0.03343795  0.09579432  0.70573570  1.0
  O  O248  1  0.53343234  0.70573635  0.09579481  1.0
  O  O249  1  0.96656520  0.90420740  0.29426397  1.0
