# generated using pymatgen
data_CdH26C33SN4O5
_symmetry_space_group_name_H-M   'P 1'
_cell_length_a   11.60566104
_cell_length_b   19.59590194
_cell_length_c   26.52615767
_cell_angle_alpha   89.99974379
_cell_angle_beta   89.99966985
_cell_angle_gamma   76.03512079
_symmetry_Int_Tables_number   1
_chemical_formula_structural   CdH26C33SN4O5
_chemical_formula_sum   'Cd4 H104 C132 S4 N16 O20'
_cell_volume   5854.36629983
_cell_formula_units_Z   4
loop_
 _symmetry_equiv_pos_site_id
 _symmetry_equiv_pos_as_xyz
  1  'x, y, z'
loop_
 _atom_site_type_symbol
 _atom_site_label
 _atom_site_symmetry_multiplicity
 _atom_site_fract_x
 _atom_site_fract_y
 _atom_site_fract_z
 _atom_site_occupancy
  Cd  Cd0  1  0.99999588  0.00000367  0.99999736  1.0
  Cd  Cd1  1  0.49999378  0.49999914  0.49999939  1.0
  Cd  Cd2  1  0.50000082  0.99999819  0.00000077  1.0
  Cd  Cd3  1  0.99999913  0.49999323  0.50000666  1.0
  H  H4  1  0.11620147  0.83369086  0.02214987  1.0
  H  H5  1  0.38379159  0.66631703  0.52215890  1.0
  H  H6  1  0.88379025  0.16632639  0.97784401  1.0
  H  H7  1  0.61620566  0.33368075  0.47784667  1.0
  H  H8  1  0.09882054  0.71496901  0.99416233  1.0
  H  H9  1  0.40118491  0.78503792  0.49417271  1.0
  H  H10  1  0.90118198  0.28504301  0.00583644  1.0
  H  H11  1  0.59881768  0.21496357  0.50584152  1.0
  H  H12  1  0.79605409  0.81807070  0.90453011  1.0
  H  H13  1  0.70394323  0.68192895  0.40453758  1.0
  H  H14  1  0.20393629  0.18192495  0.09546866  1.0
  H  H15  1  0.29605633  0.31807569  0.59547175  1.0
  H  H16  1  0.82462301  0.93340475  0.93744268  1.0
  H  H17  1  0.67536253  0.56659524  0.43745173  1.0
  H  H18  1  0.17535935  0.06659772  0.06254705  1.0
  H  H19  1  0.32463986  0.43340467  0.56255534  1.0
  H  H20  1  0.97215087  0.63196985  0.99787429  1.0
  H  H21  1  0.52787672  0.86804108  0.49788007  1.0
  H  H22  1  0.02787173  0.36803118  0.00212411  1.0
  H  H23  1  0.47214060  0.13197468  0.50212963  1.0
  H  H24  1  0.96249033  0.51679900  0.96243966  1.0
  H  H25  1  0.53752242  0.98320729  0.46243335  1.0
  H  H26  1  0.03753745  0.48319994  0.03756100  1.0
  H  H27  1  0.46248462  0.01680422  0.53756618  1.0
  H  H28  1  0.89523521  0.61041936  0.81498250  1.0
  H  H29  1  0.60475691  0.88957487  0.31498198  1.0
  H  H30  1  0.10476308  0.38958212  0.18501892  1.0
  H  H31  1  0.39522812  0.11041708  0.68502320  1.0
  H  H32  1  0.89901590  0.72576354  0.85077376  1.0
  H  H33  1  0.60099712  0.77423113  0.35078420  1.0
  H  H34  1  0.10098412  0.27423794  0.14922652  1.0
  H  H35  1  0.39899714  0.22576349  0.64923003  1.0
  H  H36  1  0.26804804  0.05489632  0.93829082  1.0
  H  H37  1  0.23195029  0.44509653  0.43829394  1.0
  H  H38  1  0.73194793  0.94510041  0.06171248  1.0
  H  H39  1  0.76803577  0.55490122  0.56171351  1.0
  H  H40  1  0.13764062  0.16285849  0.90176083  1.0
  H  H41  1  0.36234821  0.33713554  0.40176133  1.0
  H  H42  1  0.86236459  0.83713879  0.09823870  1.0
  H  H43  1  0.63763480  0.66286746  0.59823631  1.0
  H  H44  1  0.35499449  0.28140475  0.97881750  1.0
  H  H45  1  0.14501805  0.21858376  0.47882989  1.0
  H  H46  1  0.64502538  0.71858837  0.02117676  1.0
  H  H47  1  0.85502469  0.78139997  0.52118510  1.0
  H  H48  1  0.48535089  0.16774462  0.00564378  1.0
  H  H49  1  0.01466498  0.33224439  0.50565773  1.0
  H  H50  1  0.51465457  0.83224793  0.99435839  1.0
  H  H51  1  0.98537588  0.66773353  0.49436744  1.0
  H  H52  1  0.00307346  0.25575252  0.90576029  1.0
  H  H53  1  0.49692113  0.24424204  0.40576680  1.0
  H  H54  1  0.99695454  0.74424590  0.09423622  1.0
  H  H55  1  0.50307480  0.75575890  0.59423499  1.0
  H  H56  1  0.87319430  0.36620288  0.87476958  1.0
  H  H57  1  0.62679401  0.13379468  0.37476836  1.0
  H  H58  1  0.12682188  0.63379497  0.12523221  1.0
  H  H59  1  0.37320020  0.86620626  0.62522740  1.0
  H  H60  1  0.15446724  0.47179038  0.89721233  1.0
  H  H61  1  0.34552549  0.02820684  0.39721165  1.0
  H  H62  1  0.84554892  0.52820957  0.10278758  1.0
  H  H63  1  0.65447152  0.97179357  0.60278675  1.0
  H  H64  1  0.28640456  0.36087718  0.92630174  1.0
  H  H65  1  0.21359088  0.13911677  0.42630744  1.0
  H  H66  1  0.71361782  0.63912438  0.07369326  1.0
  H  H67  1  0.78640979  0.86088313  0.57369398  1.0
  H  H68  1  0.46555066  0.57848096  0.60517322  1.0
  H  H69  1  0.03442231  0.92152913  0.10517052  1.0
  H  H70  1  0.53443327  0.42151361  0.39482782  1.0
  H  H71  1  0.96556428  0.07848389  0.89482373  1.0
  H  H72  1  0.55736740  0.58064276  0.69006704  1.0
  H  H73  1  0.94260231  0.91936984  0.19006216  1.0
  H  H74  1  0.44262850  0.41936239  0.30992985  1.0
  H  H75  1  0.05736972  0.08063471  0.80992643  1.0
  H  H76  1  0.81317503  0.38947863  0.64766247  1.0
  H  H77  1  0.68677451  0.11051768  0.14764609  1.0
  H  H78  1  0.18684960  0.61053821  0.35233027  1.0
  H  H79  1  0.31316836  0.88947413  0.85234138  1.0
  H  H80  1  0.71821655  0.39979755  0.56348227  1.0
  H  H81  1  0.78175261  0.10020394  0.06346907  1.0
  H  H82  1  0.28178259  0.60020604  0.43651575  1.0
  H  H83  1  0.21821810  0.89980376  0.93652367  1.0
  H  H84  1  0.59707576  0.54336899  0.76527734  1.0
  H  H85  1  0.90290435  0.95663700  0.26527018  1.0
  H  H86  1  0.40293696  0.45663095  0.23471767  1.0
  H  H87  1  0.09707433  0.04337020  0.73472068  1.0
  H  H88  1  0.69944901  0.54642114  0.84670324  1.0
  H  H89  1  0.80054269  0.95358137  0.34669636  1.0
  H  H90  1  0.30056139  0.45357195  0.15329365  1.0
  H  H91  1  0.19945277  0.04642484  0.65329676  1.0
  H  H92  1  0.02425883  0.42385725  0.78236631  1.0
  H  H93  1  0.47572461  0.07614308  0.28236702  1.0
  H  H94  1  0.97575475  0.57614270  0.21762945  1.0
  H  H95  1  0.52425524  0.92385096  0.71763514  1.0
  H  H96  1  0.92486864  0.42455464  0.69993105  1.0
  H  H97  1  0.57509580  0.07544360  0.19992488  1.0
  H  H98  1  0.07514857  0.57544901  0.30006622  1.0
  H  H99  1  0.42486192  0.92454773  0.80007088  1.0
  H  H100  1  0.60107552  0.92934381  0.90960404  1.0
  H  H101  1  0.89893177  0.57063795  0.40960119  1.0
  H  H102  1  0.39890730  0.07065551  0.09039247  1.0
  H  H103  1  0.10108228  0.42935674  0.59040625  1.0
  H  H104  1  0.58559249  0.01232788  0.90737194  1.0
  H  H105  1  0.91442482  0.48765489  0.40737408  1.0
  H  H106  1  0.41439464  0.98767145  0.09262495  1.0
  H  H107  1  0.08558987  0.51234032  0.59263375  1.0
  C  C108  1  0.04379847  0.82771793  0.99747894  1.0
  C  C109  1  0.45619358  0.67229210  0.49748918  1.0
  C  C110  1  0.95618833  0.17229667  0.00251305  1.0
  C  C111  1  0.54379845  0.32771199  0.50251713  1.0
  C  C112  1  0.03413909  0.76176688  0.98136139  1.0
  C  C113  1  0.46586846  0.73823748  0.48136837  1.0
  C  C114  1  0.96586516  0.23824304  0.01863701  1.0
  C  C115  1  0.53413913  0.26175823  0.51864021  1.0
  C  C116  1  0.94506711  0.75621447  0.94689538  1.0
  C  C117  1  0.55492667  0.74379235  0.44690603  1.0
  C  C118  1  0.05492813  0.24379226  0.05310302  1.0
  C  C119  1  0.44506557  0.25621332  0.55310744  1.0
  C  C120  1  0.86777387  0.81923378  0.93084932  1.0
  C  C121  1  0.63223007  0.68076156  0.43085585  1.0
  C  C122  1  0.13222250  0.18076611  0.06915021  1.0
  C  C123  1  0.36777492  0.31923625  0.56915160  1.0
  C  C124  1  0.88219120  0.88313023  0.94901881  1.0
  C  C125  1  0.61779913  0.61687446  0.44902822  1.0
  C  C126  1  0.11779265  0.11687488  0.05097318  1.0
  C  C127  1  0.38219441  0.38313016  0.55097960  1.0
  C  C128  1  0.93628749  0.68765452  0.92695066  1.0
  C  C129  1  0.56372331  0.81234929  0.42695504  1.0
  C  C130  1  0.06372135  0.31234646  0.07305075  1.0
  C  C131  1  0.43627775  0.18765588  0.57305392  1.0
  C  C132  1  0.95599760  0.62738440  0.95765062  1.0
  C  C133  1  0.54401761  0.87261613  0.45765673  1.0
  C  C134  1  0.04401942  0.37261556  0.04234740  1.0
  C  C135  1  0.45598731  0.12739011  0.54235411  1.0
  C  C136  1  0.95056378  0.56258500  0.93793020  1.0
  C  C137  1  0.54944579  0.93742349  0.43792892  1.0
  C  C138  1  0.04945731  0.43741761  0.06207046  1.0
  C  C139  1  0.45055827  0.06258274  0.56207212  1.0
  C  C140  1  0.92943378  0.55521864  0.88619075  1.0
  C  C141  1  0.57056396  0.94478056  0.38619014  1.0
  C  C142  1  0.07057658  0.44478077  0.11380803  1.0
  C  C143  1  0.42942959  0.05522195  0.61381542  1.0
  C  C144  1  0.90974983  0.61524819  0.85524952  1.0
  C  C145  1  0.59025021  0.88474852  0.35525019  1.0
  C  C146  1  0.09025342  0.38475173  0.14475227  1.0
  C  C147  1  0.40974363  0.11524504  0.64475462  1.0
  C  C148  1  0.91149749  0.68022118  0.87565229  1.0
  C  C149  1  0.58851071  0.81977599  0.37566109  1.0
  C  C150  1  0.08850405  0.31977872  0.12434724  1.0
  C  C151  1  0.41148434  0.18022705  0.62435238  1.0
  C  C152  1  0.28466925  0.10645785  0.94529059  1.0
  C  C153  1  0.21532407  0.39353232  0.44529506  1.0
  C  C154  1  0.71532434  0.89354045  0.05471308  1.0
  C  C155  1  0.78466829  0.60645650  0.55471540  1.0
  C  C156  1  0.21124934  0.16738264  0.92592103  1.0
  C  C157  1  0.28875147  0.33261291  0.42592249  1.0
  C  C158  1  0.78875976  0.83261150  0.07408001  1.0
  C  C159  1  0.71124597  0.66738856  0.57408081  1.0
  C  C160  1  0.23313425  0.23316979  0.93736770  1.0
  C  C161  1  0.26686002  0.26682042  0.43737472  1.0
  C  C162  1  0.76687892  0.76682699  0.06262881  1.0
  C  C163  1  0.73314524  0.73317055  0.56263159  1.0
  C  C164  1  0.33261717  0.23268427  0.96771875  1.0
  C  C165  1  0.16739373  0.26730850  0.46772753  1.0
  C  C166  1  0.66739948  0.76730832  0.03228003  1.0
  C  C167  1  0.83263713  0.73268097  0.53228331  1.0
  C  C168  1  0.40427752  0.16933466  0.98436535  1.0
  C  C169  1  0.09573025  0.33065065  0.48437448  1.0
  C  C170  1  0.59572750  0.83065894  0.01563757  1.0
  C  C171  1  0.90429446  0.66932880  0.51564277  1.0
  C  C172  1  0.15548172  0.29920532  0.91868349  1.0
  C  C173  1  0.34452153  0.20079080  0.41868752  1.0
  C  C174  1  0.84454670  0.70079416  0.08131189  1.0
  C  C175  1  0.65549120  0.79920704  0.58131540  1.0
  C  C176  1  0.03827552  0.30237752  0.90313861  1.0
  C  C177  1  0.46171632  0.19761336  0.40314234  1.0
  C  C178  1  0.96174691  0.69761772  0.09685564  1.0
  C  C179  1  0.53828438  0.80238234  0.59685870  1.0
  C  C180  1  0.96394569  0.36473018  0.88626680  1.0
  C  C181  1  0.53604352  0.13527313  0.38626995  1.0
  C  C182  1  0.03607647  0.63527191  0.11372746  1.0
  C  C183  1  0.46395692  0.86472941  0.61373109  1.0
  C  C184  1  0.00455345  0.42665902  0.88432041  1.0
  C  C185  1  0.49543171  0.07333403  0.38432108  1.0
  C  C186  1  0.99546296  0.57333620  0.11567497  1.0
  C  C187  1  0.50455823  0.92666268  0.61568109  1.0
  C  C188  1  0.12141408  0.42433450  0.89949849  1.0
  C  C189  1  0.37858334  0.07566379  0.39950021  1.0
  C  C190  1  0.87860484  0.57566915  0.10049727  1.0
  C  C191  1  0.62142489  0.92433246  0.60050007  1.0
  C  C192  1  0.19504546  0.36165580  0.91621634  1.0
  C  C193  1  0.30494387  0.13833659  0.41622218  1.0
  C  C194  1  0.80497569  0.63833838  0.08378017  1.0
  C  C195  1  0.69505122  0.86166224  0.58378149  1.0
  C  C196  1  0.54509032  0.53901249  0.61619325  1.0
  C  C197  1  0.95489555  0.96099258  0.11618368  1.0
  C  C198  1  0.45490821  0.46098635  0.38380967  1.0
  C  C199  1  0.04508526  0.03901778  0.88380680  1.0
  C  C200  1  0.59525913  0.53854602  0.66371571  1.0
  C  C201  1  0.90469774  0.96146717  0.16371343  1.0
  C  C202  1  0.40473783  0.46146072  0.33627816  1.0
  C  C203  1  0.09526892  0.03853577  0.83627818  1.0
  C  C204  1  0.69508629  0.48495027  0.67677260  1.0
  C  C205  1  0.80488529  0.01504810  0.17676226  1.0
  C  C206  1  0.30493283  0.51505707  0.32322203  1.0
  C  C207  1  0.19507218  0.98494797  0.82322520  1.0
  C  C208  1  0.73780759  0.43346199  0.64001193  1.0
  C  C209  1  0.76213532  0.06654223  0.13999739  1.0
  C  C210  1  0.26220610  0.56655218  0.35998119  1.0
  C  C211  1  0.23780882  0.93345274  0.85999083  1.0
  C  C212  1  0.68401044  0.43819716  0.59293017  1.0
  C  C213  1  0.81595626  0.06180103  0.09291625  1.0
  C  C214  1  0.31599470  0.56180856  0.40706974  1.0
  C  C215  1  0.18400695  0.93820190  0.90707234  1.0
  C  C216  1  0.75312139  0.48365436  0.72623351  1.0
  C  C217  1  0.74684374  0.01635588  0.22622332  1.0
  C  C218  1  0.24689101  0.51635875  0.27376300  1.0
  C  C219  1  0.25312339  0.98364180  0.77376640  1.0
  C  C220  1  0.69139126  0.51805131  0.76834367  1.0
  C  C221  1  0.80859870  0.98195575  0.26833931  1.0
  C  C222  1  0.30862573  0.48195287  0.23164719  1.0
  C  C223  1  0.19138213  0.01805040  0.73165231  1.0
  C  C224  1  0.74784700  0.51923813  0.81441095  1.0
  C  C225  1  0.75213770  0.98076976  0.31440259  1.0
  C  C226  1  0.25216612  0.48076497  0.18558745  1.0
  C  C227  1  0.24785089  0.01923431  0.68559015  1.0
  C  C228  1  0.86831877  0.48539772  0.81963777  1.0
  C  C229  1  0.63167162  0.01460483  0.31963542  1.0
  C  C230  1  0.13169846  0.51460382  0.18035761  1.0
  C  C231  1  0.36831766  0.98539346  0.68036185  1.0
  C  C232  1  0.93032340  0.44957726  0.77836980  1.0
  C  C233  1  0.56965604  0.05042596  0.27836599  1.0
  C  C234  1  0.06968927  0.55042900  0.22162633  1.0
  C  C235  1  0.43032619  0.94956651  0.72163128  1.0
  C  C236  1  0.87352636  0.44918653  0.73233230  1.0
  C  C237  1  0.62645318  0.05081373  0.23232872  1.0
  C  C238  1  0.12649209  0.55082239  0.26766120  1.0
  C  C239  1  0.37351400  0.94917763  0.76766704  1.0
  S  S240  1  0.70671389  0.08479259  0.95924160  1.0
  S  S241  1  0.79328296  0.41520253  0.45925937  1.0
  S  S242  1  0.29328400  0.91520573  0.04075265  1.0
  S  S243  1  0.20671431  0.58479315  0.54074582  1.0
  N  N244  1  0.96883468  0.88745693  0.98171472  1.0
  N  N245  1  0.53115917  0.61254658  0.48172399  1.0
  N  N246  1  0.03115775  0.11255242  0.01827765  1.0
  N  N247  1  0.46884066  0.38745122  0.51828006  1.0
  N  N248  1  0.37992506  0.10711300  0.97401985  1.0
  N  N249  1  0.12008233  0.39287973  0.47402494  1.0
  N  N250  1  0.62006856  0.89288109  0.02598609  1.0
  N  N251  1  0.87993519  0.60711075  0.52598854  1.0
  N  N252  1  0.58950940  0.49037222  0.58094505  1.0
  N  N253  1  0.91045824  0.00963445  0.08093710  1.0
  N  N254  1  0.41048007  0.50962975  0.41905448  1.0
  N  N255  1  0.08952064  0.99037433  0.91905715  1.0
  N  N256  1  0.92863852  0.48911833  0.86575254  1.0
  N  N257  1  0.57135115  0.01088243  0.36574848  1.0
  N  N258  1  0.07137140  0.51088213  0.13424661  1.0
  N  N259  1  0.42864759  0.98911588  0.63424954  1.0
  O  O260  1  0.83745086  0.05336028  0.95132515  1.0
  O  O261  1  0.66254795  0.44664278  0.45133259  1.0
  O  O262  1  0.16254652  0.94664752  0.04866797  1.0
  O  O263  1  0.33744781  0.55335237  0.54867109  1.0
  O  O264  1  0.66635767  0.04277536  0.00082851  1.0
  O  O265  1  0.83363198  0.45722646  0.50083971  1.0
  O  O266  1  0.33365191  0.95721351  0.99916650  1.0
  O  O267  1  0.16635773  0.54277287  0.49916510  1.0
  O  O268  1  0.64311919  0.07652335  0.91154953  1.0
  O  O269  1  0.85689726  0.42345309  0.41156748  1.0
  O  O270  1  0.35687784  0.92347496  0.08844699  1.0
  O  O271  1  0.14310174  0.57654049  0.58843808  1.0
  O  O272  1  0.68689914  0.15890568  0.97438316  1.0
  O  O273  1  0.81307514  0.34109350  0.47441130  1.0
  O  O274  1  0.31308456  0.84109153  0.02561675  1.0
  O  O275  1  0.18692579  0.65890167  0.52559501  1.0
  O  O276  1  0.54062182  0.97332268  0.91081040  1.0
  O  O277  1  0.95939039  0.52666172  0.41080755  1.0
  O  O278  1  0.45936293  0.02667822  0.08918838  1.0
  O  O279  1  0.04062280  0.47333296  0.58920292  1.0
