# generated using pymatgen
data_AlH9C21(BrO2)3
_symmetry_space_group_name_H-M   'P 1'
_cell_length_a   3.99100166
_cell_length_b   24.61075487
_cell_length_c   24.61287956
_cell_angle_alpha   59.99218283
_cell_angle_beta   90.00037141
_cell_angle_gamma   89.99572186
_symmetry_Int_Tables_number   1
_chemical_formula_structural   AlH9C21(BrO2)3
_chemical_formula_sum   'Al2 H18 C42 Br6 O12'
_cell_volume   2093.46490340
_cell_formula_units_Z   2
loop_
 _symmetry_equiv_pos_site_id
 _symmetry_equiv_pos_as_xyz
  1  'x, y, z'
loop_
 _atom_site_type_symbol
 _atom_site_label
 _atom_site_symmetry_multiplicity
 _atom_site_fract_x
 _atom_site_fract_y
 _atom_site_fract_z
 _atom_site_occupancy
  Al  Al0  1  0.99015561  0.00000319  0.50000798  1.0
  Al  Al1  1  0.99034018  0.33333072  0.83333364  1.0
  H  H2  1  0.32650818  0.70516671  0.73085332  1.0
  H  H3  1  0.32656396  0.62816576  0.60245110  1.0
  H  H4  1  0.70476245  0.50253303  0.82312300  1.0
  H  H5  1  0.70798186  0.61917350  0.77072320  1.0
  H  H6  1  0.70467869  0.83083057  0.51018979  1.0
  H  H7  1  0.70791131  0.71416753  0.56259560  1.0
  H  H8  1  0.32638754  0.23085728  0.56398254  1.0
  H  H9  1  0.32658632  0.10247080  0.76938506  1.0
  H  H10  1  0.70479949  0.32313282  0.67433341  1.0
  H  H11  1  0.70794395  0.27073826  0.61009787  1.0
  H  H12  1  0.70474634  0.01020203  0.65898201  1.0
  H  H13  1  0.70805390  0.06259699  0.72323564  1.0
  H  H14  1  0.32648450  0.06397144  0.20517686  1.0
  H  H15  1  0.32651808  0.26936451  0.12815505  1.0
  H  H16  1  0.70483409  0.17432608  0.00254500  1.0
  H  H17  1  0.70798413  0.11007540  0.11917420  1.0
  H  H18  1  0.70474549  0.15896216  0.33081803  1.0
  H  H19  1  0.70806751  0.22322594  0.21415954  1.0
  C  C20  1  0.49245533  0.04423130  0.40374217  1.0
  C  C21  1  0.49250910  0.90373944  0.55202533  1.0
  C  C22  1  0.49244364  0.05202469  0.54424817  1.0
  C  C23  1  0.49255489  0.42958176  0.78132285  1.0
  C  C24  1  0.49263036  0.28132653  0.78909232  1.0
  C  C25  1  0.49262118  0.28909038  0.92958302  1.0
  C  C26  1  0.49940129  0.83386958  0.58901802  1.0
  C  C27  1  0.49948128  0.49946464  0.74431879  1.0
  C  C28  1  0.39415828  0.79747188  0.65166633  1.0
  C  C29  1  0.40765172  0.73218820  0.68215721  1.0
  C  C30  1  0.39414307  0.53585945  0.68165627  1.0
  C  C31  1  0.40766290  0.60115039  0.65115935  1.0
  C  C32  1  0.61626904  0.53100444  0.77502491  1.0
  C  C33  1  0.61756645  0.59597937  0.74565696  1.0
  C  C34  1  0.61617394  0.80234141  0.55829982  1.0
  C  C35  1  0.61755255  0.73735990  0.58764831  1.0
  C  C36  1  0.51437914  0.70123845  0.65042955  1.0
  C  C37  1  0.51442825  0.63207911  0.68288230  1.0
  C  C38  1  0.49934540  0.08901608  0.57712400  1.0
  C  C39  1  0.49947452  0.24432284  0.75621940  1.0
  C  C40  1  0.39402352  0.15167374  0.55086190  1.0
  C  C41  1  0.40754172  0.18215976  0.58566428  1.0
  C  C42  1  0.39418205  0.18167151  0.78247816  1.0
  C  C43  1  0.40768714  0.15116930  0.74769852  1.0
  C  C44  1  0.61626430  0.27502998  0.69396826  1.0
  C  C45  1  0.61755163  0.24567192  0.65835185  1.0
  C  C46  1  0.61623826  0.05830261  0.63936355  1.0
  C  C47  1  0.61758936  0.08765970  0.67498329  1.0
  C  C48  1  0.51435214  0.15043805  0.64832731  1.0
  C  C49  1  0.51438704  0.18289813  0.68502891  1.0
  C  C50  1  0.49938300  0.07710444  0.33387227  1.0
  C  C51  1  0.49946199  0.25621289  0.99946160  1.0
  C  C52  1  0.39407230  0.05083967  0.29748367  1.0
  C  C53  1  0.40761940  0.08564259  0.23219635  1.0
  C  C54  1  0.39413444  0.28247074  0.03585627  1.0
  C  C55  1  0.40765824  0.24766899  0.10114303  1.0
  C  C56  1  0.61627022  0.19396258  0.03101437  1.0
  C  C57  1  0.61758425  0.15832972  0.09599129  1.0
  C  C58  1  0.61627610  0.13934172  0.30234411  1.0
  C  C59  1  0.61763058  0.17496845  0.23736294  1.0
  C  C60  1  0.51442220  0.14831230  0.20124147  1.0
  C  C61  1  0.51441085  0.18500874  0.13208325  1.0
  Br  Br62  1  0.24262650  0.83300424  0.70039015  1.0
  Br  Br63  1  0.24263563  0.50032401  0.63295765  1.0
  Br  Br64  1  0.24236565  0.20038063  0.46662035  1.0
  Br  Br65  1  0.24265288  0.13297046  0.86672949  1.0
  Br  Br66  1  0.24252147  0.96659439  0.33301696  1.0
  Br  Br67  1  0.24257840  0.36672092  0.00030560  1.0
  O  O68  1  0.72508415  0.01152354  0.55821702  1.0
  O  O69  1  0.72507033  0.05820183  0.43027108  1.0
  O  O70  1  0.72512853  0.93027122  0.51152851  1.0
  O  O71  1  0.25428055  0.06153967  0.50617633  1.0
  O  O72  1  0.25435657  0.93229984  0.56153414  1.0
  O  O73  1  0.25429617  0.00616666  0.43229707  1.0
  O  O74  1  0.72531544  0.27510981  0.90307219  1.0
  O  O75  1  0.72525974  0.40305966  0.82181896  1.0
  O  O76  1  0.72528407  0.32182517  0.77511382  1.0
  O  O77  1  0.25440870  0.32716092  0.90102793  1.0
  O  O78  1  0.25442181  0.27180997  0.82715796  1.0
  O  O79  1  0.25435081  0.40103665  0.77180469  1.0
