# generated using pymatgen
data_Zn4H4C26Cl4O17
_symmetry_space_group_name_H-M   'P 1'
_cell_length_a   15.95479297
_cell_length_b   15.95427531
_cell_length_c   20.65405190
_cell_angle_alpha   112.63519333
_cell_angle_beta   112.63979506
_cell_angle_gamma   90.19817724
_symmetry_Int_Tables_number   1
_chemical_formula_structural   Zn4H4C26Cl4O17
_chemical_formula_sum   'Zn8 H8 C52 Cl8 O34'
_cell_volume   4407.05676927
_cell_formula_units_Z   2
loop_
 _symmetry_equiv_pos_site_id
 _symmetry_equiv_pos_as_xyz
  1  'x, y, z'
loop_
 _atom_site_type_symbol
 _atom_site_label
 _atom_site_symmetry_multiplicity
 _atom_site_fract_x
 _atom_site_fract_y
 _atom_site_fract_z
 _atom_site_occupancy
  Zn  Zn0  1  0.21617384  0.81701928  0.43357220  1.0
  Zn  Zn1  1  0.78382726  0.18298058  0.56642759  1.0
  Zn  Zn2  1  0.61658917  0.21735309  0.43358912  1.0
  Zn  Zn3  1  0.38341158  0.78264747  0.56641112  1.0
  Zn  Zn4  1  0.21734989  0.61659388  0.43359276  1.0
  Zn  Zn5  1  0.78265049  0.38340737  0.56640655  1.0
  Zn  Zn6  1  0.81700921  0.21617594  0.43357162  1.0
  Zn  Zn7  1  0.18299213  0.78382530  0.56642865  1.0
  H  H8  1  0.70934676  0.40056081  0.87176145  1.0
  H  H9  1  0.29064906  0.59943628  0.12823734  1.0
  H  H10  1  0.40026994  0.70939626  0.87178451  1.0
  H  H11  1  0.59973045  0.29060222  0.12821637  1.0
  H  H12  1  0.16235881  0.47120875  0.87174083  1.0
  H  H13  1  0.83763786  0.52879042  0.12825917  1.0
  H  H14  1  0.47150245  0.16230577  0.87171852  1.0
  H  H15  1  0.52849829  0.83769203  0.12828123  1.0
  C  C16  1  0.35405415  0.85404935  0.70816749  1.0
  C  C17  1  0.59120781  0.09116908  0.50000310  1.0
  C  C18  1  0.54622374  0.17336493  0.04009013  1.0
  C  C19  1  0.13326919  0.50594563  0.95989258  1.0
  C  C20  1  0.86672592  0.49405561  0.04010758  1.0
  C  C21  1  0.50613738  0.13323177  0.95987558  1.0
  C  C22  1  0.49386348  0.86676671  0.04012510  1.0
  C  C23  1  0.59083064  0.40916326  0.50000244  1.0
  C  C24  1  0.40916323  0.59083107  0.49999256  1.0
  C  C25  1  0.09118828  0.59121460  0.50002634  1.0
  C  C26  1  0.90881331  0.40878803  0.49997442  1.0
  C  C27  1  0.90918837  0.09082142  0.50000495  1.0
  C  C28  1  0.09081133  0.90917844  0.49999820  1.0
  C  C29  1  0.40879161  0.90883217  0.49999593  1.0
  C  C30  1  0.64593965  0.14594981  0.29183235  1.0
  C  C31  1  0.02683272  0.97316698  0.49999729  1.0
  C  C32  1  0.97316849  0.02683358  0.50000137  1.0
  C  C33  1  0.52696083  0.02693023  0.50002118  1.0
  C  C34  1  0.47304028  0.97306963  0.49997930  1.0
  C  C35  1  0.47316453  0.52683774  0.49999902  1.0
  C  C36  1  0.85405391  0.35405416  0.70816856  1.0
  C  C37  1  0.52683415  0.47316213  0.49999904  1.0
  C  C38  1  0.97306102  0.47303860  0.49997067  1.0
  C  C39  1  0.02693888  0.52696265  0.50002953  1.0
  C  C40  1  0.14594275  0.64594224  0.29183027  1.0
  C  C41  1  0.99046718  0.43803046  0.83550237  1.0
  C  C42  1  0.00952793  0.56197078  0.16449779  1.0
  C  C43  1  0.43813963  0.99043339  0.83549690  1.0
  C  C44  1  0.56186015  0.00956440  0.16450326  1.0
  C  C45  1  0.84498746  0.39745550  0.83547907  1.0
  C  C46  1  0.15500981  0.60254436  0.16452097  1.0
  C  C47  1  0.39738285  0.84501406  0.83548767  1.0
  C  C48  1  0.60261944  0.15498442  0.16451240  1.0
  C  C49  1  0.89762391  0.39764754  0.79527967  1.0
  C  C50  1  0.10237251  0.60235300  0.20471964  1.0
  C  C51  1  0.39766332  0.89761726  0.79527938  1.0
  C  C52  1  0.60233717  0.10238191  0.20472037  1.0
  C  C53  1  0.88140266  0.44204883  0.91706716  1.0
  C  C54  1  0.11859341  0.55794965  0.08293280  1.0
  C  C55  1  0.44196073  0.88141466  0.91707882  1.0
  C  C56  1  0.55803928  0.11858450  0.08292113  1.0
  C  C57  1  0.03565064  0.47498502  0.91707825  1.0
  C  C58  1  0.96434411  0.52501690  0.08292167  1.0
  C  C59  1  0.47509167  0.03562470  0.91707276  1.0
  C  C60  1  0.52490871  0.96437378  0.08292743  1.0
  C  C61  1  0.97937436  0.47936063  0.95876205  1.0
  C  C62  1  0.02062183  0.52064130  0.04123795  1.0
  C  C63  1  0.47936360  0.97936961  0.95876257  1.0
  C  C64  1  0.52063642  0.02062957  0.04123739  1.0
  C  C65  1  0.82660315  0.45396934  0.95989124  1.0
  C  C66  1  0.17339303  0.54602983  0.04010759  1.0
  C  C67  1  0.45377711  0.82663356  0.95990918  1.0
  Cl  Cl68  1  0.04527997  0.44028596  0.77693585  1.0
  Cl  Cl69  1  0.95471623  0.55971597  0.22306484  1.0
  Cl  Cl70  1  0.44051172  0.04520481  0.77692900  1.0
  Cl  Cl71  1  0.55948985  0.95479229  0.22307147  1.0
  Cl  Cl72  1  0.73163338  0.33661332  0.77694693  1.0
  Cl  Cl73  1  0.26836353  0.66338722  0.22305355  1.0
  Cl  Cl74  1  0.33644285  0.73169177  0.77695647  1.0
  Cl  Cl75  1  0.66355994  0.26830672  0.22304409  1.0
  O  O76  1  0.24998026  0.75002337  0.50000008  1.0
  O  O77  1  0.59203665  0.17588786  0.32419867  1.0
  O  O78  1  0.82415135  0.40795954  0.67580269  1.0
  O  O79  1  0.17584243  0.59204238  0.32419626  1.0
  O  O80  1  0.26779068  0.85165882  0.67584578  1.0
  O  O81  1  0.73221236  0.14834105  0.32415595  1.0
  O  O82  1  0.85162924  0.26776642  0.67584383  1.0
  O  O83  1  0.14836851  0.73223620  0.32415649  1.0
  O  O84  1  0.40796467  0.82411063  0.67579975  1.0
  O  O85  1  0.75002108  0.24997787  0.50000019  1.0
  O  O86  1  0.44009562  0.88227976  0.55428715  1.0
  O  O87  1  0.55990310  0.11772287  0.44571414  1.0
  O  O88  1  0.67610682  0.44494391  0.53906448  1.0
  O  O89  1  0.32389632  0.55505940  0.46093591  1.0
  O  O90  1  0.11420302  0.67207172  0.55432192  1.0
  O  O91  1  0.88579446  0.32792952  0.44567517  1.0
  O  O92  1  0.86287871  0.09398514  0.53897072  1.0
  O  O93  1  0.13712548  0.90601611  0.46102697  1.0
  O  O94  1  0.55504811  0.32388916  0.46094192  1.0
  O  O95  1  0.44495336  0.67611553  0.53905976  1.0
  O  O96  1  0.32792647  0.88581685  0.44569273  1.0
  O  O97  1  0.67207328  0.11418094  0.55430399  1.0
  O  O98  1  0.90601865  0.13713666  0.46104401  1.0
  O  O99  1  0.09398423  0.86286803  0.53895500  1.0
  O  O100  1  0.11774587  0.55990453  0.44573607  1.0
  O  O101  1  0.88225619  0.44009534  0.55426469  1.0
  O  O102  1  0.73320639  0.43183852  0.92816233  1.0
  O  O103  1  0.26678859  0.56815927  0.07183642  1.0
  O  O104  1  0.43153472  0.73324482  0.92818343  1.0
  O  O105  1  0.56846520  0.26675366  0.07181766  1.0
  O  O106  1  0.19490587  0.49640696  0.92814630  1.0
  O  O107  1  0.80508936  0.50359221  0.07185362  1.0
  O  O108  1  0.49671799  0.19485802  0.92812200  1.0
  O  O109  1  0.50328239  0.80514047  0.07187820  1.0
