# generated using pymatgen
data_Gd2Cu3H30C24(NO4)6
_symmetry_space_group_name_H-M   'P 1'
_cell_length_a   13.39129028
_cell_length_b   13.39133534
_cell_length_c   14.42613206
_cell_angle_alpha   89.99988179
_cell_angle_beta   90.00003384
_cell_angle_gamma   60.00003537
_symmetry_Int_Tables_number   1
_chemical_formula_structural   Gd2Cu3H30C24(NO4)6
_chemical_formula_sum   'Gd4 Cu6 H60 C48 N12 O48'
_cell_volume   2240.40740732
_cell_formula_units_Z   2
loop_
 _symmetry_equiv_pos_site_id
 _symmetry_equiv_pos_as_xyz
  1  'x, y, z'
loop_
 _atom_site_type_symbol
 _atom_site_label
 _atom_site_symmetry_multiplicity
 _atom_site_fract_x
 _atom_site_fract_y
 _atom_site_fract_z
 _atom_site_occupancy
  Gd  Gd0  1  0.66666667  0.66666667  0.66808589  1.0
  Gd  Gd1  1  0.33333333  0.33333333  0.83190940  1.0
  Gd  Gd2  1  0.33333333  0.33333333  0.33191328  1.0
  Gd  Gd3  1  0.66666667  0.66666667  0.16809047  1.0
  Cu  Cu4  1  0.49999929  0.00000037  0.49999959  1.0
  Cu  Cu5  1  0.99999987  0.50000052  0.50000105  1.0
  Cu  Cu6  1  0.49999967  0.50000015  0.49999980  1.0
  Cu  Cu7  1  0.50000142  0.49999888  0.99999965  1.0
  Cu  Cu8  1  0.00000194  0.49999968  0.99999925  1.0
  Cu  Cu9  1  0.50000107  0.99999949  0.00000070  1.0
  H  H10  1  0.73943932  0.97342482  0.55384155  1.0
  H  H11  1  0.97342392  0.28713838  0.55384574  1.0
  H  H12  1  0.28713750  0.73943942  0.55384512  1.0
  H  H13  1  0.26056626  0.71285530  0.94615585  1.0
  H  H14  1  0.02657737  0.26056530  0.94615484  1.0
  H  H15  1  0.71285998  0.02657472  0.94615663  1.0
  H  H16  1  0.26056076  0.02657592  0.44615693  1.0
  H  H17  1  0.02657616  0.71286236  0.44615759  1.0
  H  H18  1  0.71285980  0.26056390  0.44615336  1.0
  H  H19  1  0.73943747  0.28714113  0.05384332  1.0
  H  H20  1  0.97342582  0.73943370  0.05384295  1.0
  H  H21  1  0.28714140  0.97342342  0.05384462  1.0
  H  H22  1  0.83119606  0.86415669  0.47395887  1.0
  H  H23  1  0.86415504  0.30465138  0.47396219  1.0
  H  H24  1  0.30465011  0.83119495  0.47396153  1.0
  H  H25  1  0.16880729  0.69534500  0.02603741  1.0
  H  H26  1  0.13584596  0.16880706  0.02603722  1.0
  H  H27  1  0.69534930  0.13584363  0.02603809  1.0
  H  H28  1  0.16880359  0.13584491  0.52603961  1.0
  H  H29  1  0.13584504  0.69534936  0.52603976  1.0
  H  H30  1  0.69535115  0.16880492  0.52603556  1.0
  H  H31  1  0.83119484  0.30465314  0.97396107  1.0
  H  H32  1  0.86415605  0.83119281  0.97396127  1.0
  H  H33  1  0.30465089  0.86415539  0.97396247  1.0
  H  H34  1  0.74049151  0.79688924  0.36852594  1.0
  H  H35  1  0.79688741  0.46262102  0.36852766  1.0
  H  H36  1  0.46262215  0.74048985  0.36852799  1.0
  H  H37  1  0.25950956  0.53737534  0.13147472  1.0
  H  H38  1  0.20311553  0.25950681  0.13147497  1.0
  H  H39  1  0.53738007  0.20311299  0.13147443  1.0
  H  H40  1  0.25950932  0.20311150  0.63147324  1.0
  H  H41  1  0.20311301  0.53737455  0.63147290  1.0
  H  H42  1  0.53737880  0.25950916  0.63147257  1.0
  H  H43  1  0.74049311  0.46262022  0.86852376  1.0
  H  H44  1  0.79688573  0.74049306  0.86852490  1.0
  H  H45  1  0.46262088  0.79688601  0.86852614  1.0
  H  H46  1  0.68757994  0.91655403  0.29485395  1.0
  H  H47  1  0.91655366  0.39586640  0.29485659  1.0
  H  H48  1  0.39586702  0.68757746  0.29485617  1.0
  H  H49  1  0.31242272  0.60412982  0.20514515  1.0
  H  H50  1  0.08344663  0.31242194  0.20514536  1.0
  H  H51  1  0.60413359  0.08344647  0.20514642  1.0
  H  H52  1  0.31241834  0.08344584  0.70514592  1.0
  H  H53  1  0.08344760  0.60413347  0.70514467  1.0
  H  H54  1  0.60413318  0.31242155  0.70514370  1.0
  H  H55  1  0.68758027  0.39586659  0.79485333  1.0
  H  H56  1  0.91655259  0.68758052  0.79485381  1.0
  H  H57  1  0.39586798  0.91655427  0.79485484  1.0
  H  H58  1  0.63898927  0.03783007  0.41671531  1.0
  H  H59  1  0.03782978  0.32318106  0.41671765  1.0
  H  H60  1  0.32317949  0.63899033  0.41671742  1.0
  H  H61  1  0.36101130  0.67681408  0.08328317  1.0
  H  H62  1  0.96217425  0.36101103  0.08328294  1.0
  H  H63  1  0.67681861  0.96217126  0.08328506  1.0
  H  H64  1  0.36100975  0.96216980  0.58328386  1.0
  H  H65  1  0.96216998  0.67681881  0.58328292  1.0
  H  H66  1  0.67682188  0.36100782  0.58328106  1.0
  H  H67  1  0.63899094  0.32318234  0.91671601  1.0
  H  H68  1  0.03782819  0.63898797  0.91671485  1.0
  H  H69  1  0.32318351  0.03782689  0.91671689  1.0
  C  C70  1  0.73699113  0.81682985  0.56814491  1.0
  C  C71  1  0.81682822  0.44618314  0.56814668  1.0
  C  C72  1  0.44618218  0.73698955  0.56814630  1.0
  C  C73  1  0.26301179  0.55381497  0.93185141  1.0
  C  C74  1  0.18317327  0.26301148  0.93185167  1.0
  C  C75  1  0.55381732  0.18316982  0.93185323  1.0
  C  C76  1  0.26300895  0.18317089  0.43185496  1.0
  C  C77  1  0.18317057  0.55382017  0.43185389  1.0
  C  C78  1  0.55381641  0.26301118  0.43185357  1.0
  C  C79  1  0.73699033  0.44618318  0.06814707  1.0
  C  C80  1  0.81682948  0.73698840  0.06814751  1.0
  C  C81  1  0.44618193  0.81682661  0.06814733  1.0
  C  C82  1  0.74554498  0.90570881  0.50719156  1.0
  C  C83  1  0.90570809  0.34874883  0.50719421  1.0
  C  C84  1  0.34874794  0.74554435  0.50719437  1.0
  C  C85  1  0.25445903  0.65124576  0.99280598  1.0
  C  C86  1  0.09429369  0.25445855  0.99280562  1.0
  C  C87  1  0.65125106  0.09429077  0.99280731  1.0
  C  C88  1  0.25445435  0.09429193  0.49280762  1.0
  C  C89  1  0.09429199  0.65125191  0.49280774  1.0
  C  C90  1  0.65125140  0.25445638  0.49280480  1.0
  C  C91  1  0.74554470  0.34875066  0.00719251  1.0
  C  C92  1  0.90570832  0.74554132  0.00719286  1.0
  C  C93  1  0.34875000  0.90570651  0.00719394  1.0
  C  C94  1  0.66715310  0.88433939  0.35800673  1.0
  C  C95  1  0.88433908  0.44850728  0.35800928  1.0
  C  C96  1  0.44850779  0.66715263  0.35800896  1.0
  C  C97  1  0.33284871  0.55148811  0.14199245  1.0
  C  C98  1  0.11566372  0.33284583  0.14199190  1.0
  C  C99  1  0.55149233  0.11566202  0.14199362  1.0
  C  C100  1  0.33284592  0.11566048  0.64199314  1.0
  C  C101  1  0.11566080  0.55149087  0.64199266  1.0
  C  C102  1  0.55149198  0.33284724  0.64199022  1.0
  C  C103  1  0.66715384  0.44850918  0.85800603  1.0
  C  C104  1  0.88433679  0.66715404  0.85800658  1.0
  C  C105  1  0.44850862  0.88433698  0.85800833  1.0
  C  C106  1  0.56141679  0.87298509  0.33930870  1.0
  C  C107  1  0.87298250  0.56559805  0.33930977  1.0
  C  C108  1  0.56559601  0.56141799  0.33931038  1.0
  C  C109  1  0.43857999  0.43439898  0.16070031  1.0
  C  C110  1  0.12702537  0.43857607  0.16069744  1.0
  C  C111  1  0.43440171  0.12702082  0.16069921  1.0
  C  C112  1  0.43858277  0.12701220  0.66069256  1.0
  C  C113  1  0.12701235  0.43440269  0.66069356  1.0
  C  C114  1  0.43440419  0.43858102  0.66068949  1.0
  C  C115  1  0.56142245  0.56560003  0.83929956  1.0
  C  C116  1  0.87297782  0.56142293  0.83930104  1.0
  C  C117  1  0.56559923  0.87297820  0.83930204  1.0
  N  N118  1  0.65209231  0.95829390  0.43873585  1.0
  N  N119  1  0.95829349  0.38961465  0.43873855  1.0
  N  N120  1  0.38961390  0.65209293  0.43873884  1.0
  N  N121  1  0.34790966  0.61038067  0.06126182  1.0
  N  N122  1  0.04170947  0.34790822  0.06126198  1.0
  N  N123  1  0.61038504  0.04170662  0.06126382  1.0
  N  N124  1  0.34790628  0.04170683  0.56126333  1.0
  N  N125  1  0.04170745  0.61038437  0.56126270  1.0
  N  N126  1  0.61038661  0.34790694  0.56126103  1.0
  N  N127  1  0.65209332  0.38961576  0.93873667  1.0
  N  N128  1  0.95829179  0.65209165  0.93873650  1.0
  N  N129  1  0.38961634  0.95829152  0.93873813  1.0
  O  O130  1  0.64547210  0.80959200  0.56061134  1.0
  O  O131  1  0.80959130  0.54493851  0.56061164  1.0
  O  O132  1  0.54493865  0.64546948  0.56061147  1.0
  O  O133  1  0.35453467  0.45505695  0.93938577  1.0
  O  O134  1  0.19040875  0.35453319  0.93938652  1.0
  O  O135  1  0.45505973  0.19040609  0.93938813  1.0
  O  O136  1  0.35452841  0.19040787  0.43938852  1.0
  O  O137  1  0.19040866  0.45506395  0.43938684  1.0
  O  O138  1  0.45506037  0.35453039  0.43938770  1.0
  O  O139  1  0.64546670  0.54494121  0.06061271  1.0
  O  O140  1  0.80959369  0.64546581  0.06061404  1.0
  O  O141  1  0.54494187  0.80958862  0.06061243  1.0
  O  O142  1  0.81753209  0.75629548  0.62390977  1.0
  O  O143  1  0.75629356  0.42617576  0.62391145  1.0
  O  O144  1  0.42617801  0.81753015  0.62391030  1.0
  O  O145  1  0.18247380  0.57382159  0.87608798  1.0
  O  O146  1  0.24370624  0.18247343  0.87608907  1.0
  O  O147  1  0.57382278  0.24370324  0.87608910  1.0
  O  O148  1  0.18246800  0.24370524  0.37608941  1.0
  O  O149  1  0.24370405  0.57382843  0.37608911  1.0
  O  O150  1  0.57382239  0.18247144  0.37608819  1.0
  O  O151  1  0.81752746  0.42617828  0.12391050  1.0
  O  O152  1  0.75629726  0.81752644  0.12391080  1.0
  O  O153  1  0.42617529  0.75629404  0.12391077  1.0
  O  O154  1  0.47550337  0.92141380  0.39445716  1.0
  O  O155  1  0.92140984  0.60308441  0.39445897  1.0
  O  O156  1  0.60308304  0.47550263  0.39446039  1.0
  O  O157  1  0.52449811  0.39691425  0.10554005  1.0
  O  O158  1  0.07859722  0.52449229  0.10553565  1.0
  O  O159  1  0.39691732  0.07858702  0.10554101  1.0
  O  O160  1  0.52449640  0.07858607  0.60554271  1.0
  O  O161  1  0.07858768  0.39691546  0.60554298  1.0
  O  O162  1  0.39691555  0.52449811  0.60554017  1.0
  O  O163  1  0.47550283  0.60308477  0.89445843  1.0
  O  O164  1  0.92141056  0.47550499  0.89446006  1.0
  O  O165  1  0.60308598  0.92141026  0.89446094  1.0
  O  O166  1  0.56262048  0.81453683  0.27020153  1.0
  O  O167  1  0.81453674  0.62284025  0.27020109  1.0
  O  O168  1  0.62284311  0.56261834  0.27020178  1.0
  O  O169  1  0.43738418  0.37715941  0.22979788  1.0
  O  O170  1  0.18545913  0.43738080  0.22979706  1.0
  O  O171  1  0.37716122  0.18545789  0.22979736  1.0
  O  O172  1  0.43738168  0.18545527  0.72980181  1.0
  O  O173  1  0.18545545  0.37716134  0.72980294  1.0
  O  O174  1  0.37715646  0.43737894  0.72979670  1.0
  O  O175  1  0.56261857  0.62284047  0.77020198  1.0
  O  O176  1  0.81454288  0.56261907  0.77020142  1.0
  O  O177  1  0.62284004  0.81454198  0.77020459  1.0
