# generated using pymatgen
data_AlH5C10NO7
_symmetry_space_group_name_H-M   'P 1'
_cell_length_a   6.88635563
_cell_length_b   11.09466305
_cell_length_c   12.88172536
_cell_angle_alpha   79.78363847
_cell_angle_beta   79.76000276
_cell_angle_gamma   73.43612185
_symmetry_Int_Tables_number   1
_chemical_formula_structural   AlH5C10NO7
_chemical_formula_sum   'Al2 H10 C20 N2 O14'
_cell_volume   919.90863353
_cell_formula_units_Z   2
loop_
 _symmetry_equiv_pos_site_id
 _symmetry_equiv_pos_as_xyz
  1  'x, y, z'
loop_
 _atom_site_type_symbol
 _atom_site_label
 _atom_site_symmetry_multiplicity
 _atom_site_fract_x
 _atom_site_fract_y
 _atom_site_fract_z
 _atom_site_occupancy
  Al  Al0  1  0.49994282  0.50010728  0.50013881  1.0
  Al  Al1  1  0.99991334  0.50007723  0.50017464  1.0
  H  H2  1  0.28991598  0.35597003  0.58787817  1.0
  H  H3  1  0.71003893  0.64417354  0.41233781  1.0
  H  H4  1  0.35750351  0.88675864  0.52683297  1.0
  H  H5  1  0.64256212  0.11344982  0.47251255  1.0
  H  H6  1  0.32828925  0.54741467  0.81146507  1.0
  H  H7  1  0.97549003  0.42414595  0.82439008  1.0
  H  H8  1  0.91456494  0.41242409  0.02231788  1.0
  H  H9  1  0.67167887  0.45237774  0.18894776  1.0
  H  H10  1  0.02449070  0.57560300  0.17598128  1.0
  H  H11  1  0.08546672  0.58720586  0.97808325  1.0
  C  C12  1  0.69268431  0.48826650  0.68984096  1.0
  C  C13  1  0.85428535  0.27561295  0.49320563  1.0
  C  C14  1  0.30723557  0.51170146  0.31049012  1.0
  C  C15  1  0.14565313  0.72458710  0.50667974  1.0
  C  C16  1  0.93048449  0.13442503  0.49405278  1.0
  C  C17  1  0.06960042  0.86583412  0.50525939  1.0
  C  C18  1  0.13182720  0.06794104  0.50753677  1.0
  C  C19  1  0.86830324  0.93230384  0.49168422  1.0
  C  C20  1  0.20167551  0.93707910  0.51384010  1.0
  C  C21  1  0.79846087  0.06317029  0.48539869  1.0
  C  C22  1  0.45489620  0.52001119  0.85844992  1.0
  C  C23  1  0.82112522  0.44951141  0.86696652  1.0
  C  C24  1  0.78675409  0.44415851  0.97597285  1.0
  C  C25  1  0.58472494  0.48009843  0.03035834  1.0
  C  C26  1  0.54510158  0.47962181  0.14195837  1.0
  C  C27  1  0.17886176  0.55010729  0.13342819  1.0
  C  C28  1  0.21328167  0.55542783  0.02443000  1.0
  C  C29  1  0.41531728  0.51946731  0.97005581  1.0
  C  C30  1  0.65362034  0.48671763  0.80750188  1.0
  C  C31  1  0.34635055  0.51295911  0.19287259  1.0
  N  N32  1  0.28395672  0.13677051  0.51012456  1.0
  N  N33  1  0.71619015  0.86343942  0.48912504  1.0
  O  O34  1  0.54381666  0.48624557  0.64412010  1.0
  O  O35  1  0.99053139  0.33101893  0.49651658  1.0
  O  O36  1  0.12666234  0.51097904  0.35541366  1.0
  O  O37  1  0.33505977  0.67450310  0.50826437  1.0
  O  O38  1  0.45610842  0.51383412  0.35615515  1.0
  O  O39  1  0.00930263  0.66912346  0.50373127  1.0
  O  O40  1  0.87318525  0.48918325  0.64493249  1.0
  O  O41  1  0.66484338  0.32567845  0.49180543  1.0
  O  O42  1  0.26253722  0.44003509  0.54676823  1.0
  O  O43  1  0.73733385  0.56015199  0.45353611  1.0
  O  O44  1  0.37269375  0.17109570  0.42246754  1.0
  O  O45  1  0.32027569  0.14888707  0.59790521  1.0
  O  O46  1  0.68016152  0.85101763  0.40136976  1.0
  O  O47  1  0.62721953  0.82932253  0.57678264  1.0
