# generated using pymatgen
data_Al6H25C75O29F3
_symmetry_space_group_name_H-M   'P 1'
_cell_length_a   12.44489850
_cell_length_b   12.50610194
_cell_length_c   28.76500542
_cell_angle_alpha   89.35343827
_cell_angle_beta   88.96906483
_cell_angle_gamma   61.69659012
_symmetry_Int_Tables_number   1
_chemical_formula_structural   Al6H25C75O29F3
_chemical_formula_sum   'Al6 H25 C75 O29 F3'
_cell_volume   3941.02894581
_cell_formula_units_Z   1
loop_
 _symmetry_equiv_pos_site_id
 _symmetry_equiv_pos_as_xyz
  1  'x, y, z'
loop_
 _atom_site_type_symbol
 _atom_site_label
 _atom_site_symmetry_multiplicity
 _atom_site_fract_x
 _atom_site_fract_y
 _atom_site_fract_z
 _atom_site_occupancy
  Al  Al0  1  0.59103407  0.59588775  0.50193341  1.0
  Al  Al1  1  0.58073790  0.34339634  0.50073905  1.0
  Al  Al2  1  0.34307474  0.57470199  0.50097640  1.0
  Al  Al3  1  0.06836307  0.07791304  0.00309506  1.0
  Al  Al4  1  0.32232578  0.08749832  0.99961878  1.0
  Al  Al5  1  0.08993280  0.32422190  0.99940794  1.0
  H  H6  1  0.54009491  0.20974597  0.78026432  1.0
  H  H7  1  0.28840462  0.67652848  0.28415077  1.0
  H  H8  1  0.43660587  0.12063123  0.71440331  1.0
  H  H9  1  0.28145701  0.71221735  0.19860979  1.0
  H  H10  1  0.37248178  0.00084378  0.21945106  1.0
  H  H11  1  0.37692916  0.96658041  0.30506062  1.0
  H  H12  1  0.04343141  0.19905272  0.21483368  1.0
  H  H13  1  0.66793796  0.47565278  0.20474885  1.0
  H  H14  1  0.64666676  0.47542052  0.29062596  1.0
  H  H15  1  0.45005764  0.43144478  0.72924564  1.0
  H  H16  1  0.23285541  0.52777864  0.78284634  1.0
  H  H17  1  0.36651354  0.97175216  0.69527473  1.0
  H  H18  1  0.12806284  0.43867376  0.71717334  1.0
  H  H19  1  0.21664128  0.21807762  0.76812563  1.0
  H  H20  1  0.36256555  0.00340967  0.78110106  1.0
  H  H21  1  0.13545901  0.12021839  0.28385199  1.0
  H  H22  1  0.96073008  0.37694474  0.69598743  1.0
  H  H23  1  0.99564576  0.37240294  0.78126722  1.0
  H  H24  1  0.69840476  0.29326849  0.80755044  1.0
  H  H25  1  0.66374274  0.29768127  0.72229338  1.0
  H  H26  1  0.23845533  0.25050595  0.30542368  1.0
  H  H27  1  0.21781977  0.23339145  0.22030577  1.0
  H  H28  1  0.43895083  0.41060011  0.19385860  1.0
  H  H29  1  0.70721864  0.68685699  0.47496003  1.0
  H  H30  1  0.95515990  0.98558985  0.97699939  1.0
  C  C31  1  0.71273707  0.38434847  0.56827762  1.0
  C  C32  1  0.35134132  0.34443214  0.65228477  1.0
  C  C33  1  0.34324393  0.77093060  0.61238200  1.0
  C  C34  1  0.38733448  0.38194407  0.56411427  1.0
  C  C35  1  0.30101793  0.75042076  0.73273628  1.0
  C  C36  1  0.29942101  0.76746676  0.78041652  1.0
  C  C37  1  0.34548277  0.93250947  0.76704781  1.0
  C  C38  1  0.34744127  0.91521351  0.71952696  1.0
  C  C39  1  0.32567161  0.82305956  0.70124080  1.0
  C  C40  1  0.32128260  0.85896728  0.79866933  1.0
  C  C41  1  0.31484716  0.87914417  0.84699144  1.0
  C  C42  1  0.36209849  0.35585166  0.61050504  1.0
  C  C43  1  0.33260720  0.79845837  0.65327731  1.0
  C  C44  1  0.30540950  0.90216782  0.88832114  1.0
  C  C45  1  0.76200284  0.35486821  0.61434680  1.0
  C  C46  1  0.37498798  0.71698043  0.56686849  1.0
  C  C47  1  0.90407443  0.35836684  0.72063804  1.0
  C  C48  1  0.92333040  0.35588780  0.76804855  1.0
  C  C49  1  0.75549769  0.31132679  0.78292345  1.0
  C  C50  1  0.73624103  0.31382688  0.73551806  1.0
  C  C51  1  0.80996152  0.33758520  0.70362733  1.0
  C  C52  1  0.84966546  0.33200223  0.79993611  1.0
  C  C53  1  0.26899290  0.26528855  0.75903549  1.0
  C  C54  1  0.87309527  0.32551352  0.84805707  1.0
  C  C55  1  0.78643642  0.34444825  0.65550133  1.0
  C  C56  1  0.89746551  0.31643541  0.88922440  1.0
  C  C57  1  0.37287014  0.36295176  0.38776018  1.0
  C  C58  1  0.72535255  0.38388202  0.43642283  1.0
  C  C59  1  0.28191038  0.28492802  0.28062079  1.0
  C  C60  1  0.27075952  0.27530159  0.23311187  1.0
  C  C61  1  0.39415146  0.37528422  0.21759933  1.0
  C  C62  1  0.40321643  0.38423258  0.26511511  1.0
  C  C63  1  0.34890565  0.34008622  0.29814332  1.0
  C  C64  1  0.32709496  0.31531889  0.79643024  1.0
  C  C65  1  0.32673139  0.32007751  0.20081562  1.0
  C  C66  1  0.31456591  0.30979520  0.15232023  1.0
  C  C67  1  0.36142883  0.35182263  0.34637829  1.0
  C  C68  1  0.30230594  0.30012805  0.11086503  1.0
  C  C69  1  0.34944863  0.76998468  0.38963830  1.0
  C  C70  1  0.39542998  0.38726485  0.43448012  1.0
  C  C71  1  0.30587460  0.74777149  0.26969707  1.0
  C  C72  1  0.30275062  0.76713222  0.22209025  1.0
  C  C73  1  0.35355810  0.93041761  0.23384960  1.0
  C  C74  1  0.35618868  0.91135340  0.28152132  1.0
  C  C75  1  0.21949279  0.38760654  0.73154746  1.0
  C  C76  1  0.33260216  0.81955861  0.30014198  1.0
  C  C77  1  0.32639547  0.85887630  0.20342922  1.0
  C  C78  1  0.31971898  0.88140884  0.15502870  1.0
  C  C79  1  0.33949961  0.79582913  0.34844282  1.0
  C  C80  1  0.31039126  0.90372572  0.11350837  1.0
  C  C81  1  0.78115070  0.35583687  0.39109219  1.0
  C  C82  1  0.37956578  0.71791577  0.43541864  1.0
  C  C83  1  0.94650376  0.26243350  0.27983354  1.0
  C  C84  1  0.95666718  0.26101005  0.23147108  1.0
  C  C85  1  0.74565340  0.41580946  0.22582527  1.0
  C  C86  1  0.34097408  0.33323471  0.70097595  1.0
  C  C87  1  0.73386093  0.41620847  0.27388358  1.0
  C  C88  1  0.83341827  0.34020809  0.30190707  1.0
  C  C89  1  0.85760676  0.33796771  0.20372517  1.0
  C  C90  1  0.87396243  0.33418379  0.15490463  1.0
  C  C91  1  0.81429787  0.34351062  0.35048496  1.0
  C  C92  1  0.89675583  0.32377638  0.11335607  1.0
  C  C93  1  0.27657826  0.95191073  0.93453636  1.0
  C  C94  1  0.39071620  0.21096016  0.73006330  1.0
  C  C95  1  0.28494888  0.27198819  0.93421531  1.0
  C  C96  1  0.94749199  0.29014361  0.93513981  1.0
  C  C97  1  0.27742722  0.43747659  0.76735246  1.0
  C  C98  1  0.28348760  0.95156367  0.06705039  1.0
  C  C99  1  0.27682891  0.27813452  0.06425479  1.0
  C  C100  1  0.94739237  0.29071060  0.06714577  1.0
  C  C101  1  0.44866752  0.26086975  0.76587048  1.0
  C  C102  1  0.30815535  0.29507778  0.88716450  1.0
  C  C103  1  0.05670674  0.18334415  0.30621862  1.0
  C  C104  1  0.39894729  0.38319071  0.73843384  1.0
  C  C105  1  0.31767930  0.30473671  0.84518394  1.0
  O  O106  1  0.47705053  0.69748510  0.55033593  1.0
  O  O107  1  0.18792154  0.35177133  0.95443539  1.0
  O  O108  1  0.97848622  0.36687777  0.95179838  1.0
  O  O109  1  0.68820679  0.48790778  0.55269747  1.0
  O  O110  1  0.97475925  0.18470303  0.05434230  1.0
  O  O111  1  0.18216181  0.97245128  0.05058443  1.0
  O  O112  1  0.36443985  0.97392279  0.04694090  1.0
  O  O113  1  0.35441845  0.18006596  0.04467421  1.0
  O  O114  1  0.17498139  0.35574305  0.04720034  1.0
  O  O115  1  0.96570125  0.36954080  0.04393218  1.0
  O  O116  1  0.16132030  0.16411407  0.00047166  1.0
  O  O117  1  0.49614881  0.31122163  0.45262790  1.0
  O  O118  1  0.69357000  0.30365327  0.54794238  1.0
  O  O119  1  0.48904435  0.30651746  0.54529626  1.0
  O  O120  1  0.30931677  0.48197356  0.54566191  1.0
  O  O121  1  0.29826875  0.68891749  0.54839972  1.0
  O  O122  1  0.48311772  0.69400117  0.45053653  1.0
  O  O123  1  0.69853735  0.48711440  0.45260620  1.0
  O  O124  1  0.70252681  0.30320558  0.45581642  1.0
  O  O125  1  0.06656915  0.18442832  0.34844837  1.0
  O  O126  1  0.31578136  0.48613213  0.45302110  1.0
  O  O127  1  0.29969337  0.69526729  0.45624730  1.0
  O  O128  1  0.50390469  0.50359330  0.50113220  1.0
  O  O129  1  0.96186027  0.19318779  0.95443554  1.0
  O  O130  1  0.17126131  0.97999801  0.95017875  1.0
  O  O131  1  0.35916518  0.96817349  0.95476920  1.0
  O  O132  1  0.36038892  0.16965355  0.95203658  1.0
  O  O133  1  0.66905454  0.68075544  0.50369748  1.0
  O  O134  1  0.98462756  0.99870943  0.00611084  1.0
  F  F135  1  0.46740184  0.43905382  0.28076162  1.0
  F  F136  1  0.27963215  0.66125578  0.71664318  1.0
  F  F137  1  0.27637150  0.69459663  0.80931747  1.0
