# generated using pymatgen
data_Zn3H68C78(N4O7)2
_symmetry_space_group_name_H-M   'P 1'
_cell_length_a   13.15052186
_cell_length_b   13.72991828
_cell_length_c   13.99677693
_cell_angle_alpha   97.24214142
_cell_angle_beta   108.30696996
_cell_angle_gamma   112.34186230
_symmetry_Int_Tables_number   1
_chemical_formula_structural   Zn3H68C78(N4O7)2
_chemical_formula_sum   'Zn3 H68 C78 N8 O14'
_cell_volume   2130.71204688
_cell_formula_units_Z   1
loop_
 _symmetry_equiv_pos_site_id
 _symmetry_equiv_pos_as_xyz
  1  'x, y, z'
loop_
 _atom_site_type_symbol
 _atom_site_label
 _atom_site_symmetry_multiplicity
 _atom_site_fract_x
 _atom_site_fract_y
 _atom_site_fract_z
 _atom_site_occupancy
  Zn  Zn0  1  0.69633676  0.61713167  0.37784830  1.0
  Zn  Zn1  1  0.30366341  0.38286713  0.62215129  1.0
  Zn  Zn2  1  0.50000028  0.50000063  0.50000072  1.0
  H  H3  1  0.34692518  0.59513157  0.16514009  1.0
  H  H4  1  0.65307618  0.40486804  0.83486138  1.0
  H  H5  1  0.32411723  0.60568067  0.28321881  1.0
  H  H6  1  0.67588454  0.39431976  0.71678288  1.0
  H  H7  1  0.23991333  0.39106465  0.11929656  1.0
  H  H8  1  0.76008524  0.60893579  0.88070275  1.0
  H  H9  1  0.25172454  0.39786503  0.24964586  1.0
  H  H10  1  0.74827523  0.60213459  0.75035514  1.0
  H  H11  1  0.16197580  0.39215267  0.35939542  1.0
  H  H12  1  0.83802477  0.60784694  0.64060511  1.0
  H  H13  1  0.03768134  0.40473565  0.45601379  1.0
  H  H14  1  0.96232121  0.59526478  0.54398957  1.0
  H  H15  1  0.87497422  0.46012221  0.38447520  1.0
  H  H16  1  0.12502914  0.53987822  0.61552840  1.0
  H  H17  1  0.83270798  0.50118108  0.21456563  1.0
  H  H18  1  0.16729057  0.49881772  0.78543776  1.0
  H  H19  1  0.17003453  0.46730194  0.97833829  1.0
  H  H20  1  0.82996364  0.53269768  0.02166223  1.0
  H  H21  1  0.72086612  0.30666608  0.38122317  1.0
  H  H22  1  0.27913285  0.69333354  0.61877688  1.0
  H  H23  1  0.57924436  0.25278796  0.38999742  1.0
  H  H24  1  0.42075421  0.74721084  0.61000169  1.0
  H  H25  1  0.82261483  0.34666465  0.57557281  1.0
  H  H26  1  0.17738454  0.65333578  0.42442674  1.0
  H  H27  1  0.68524682  0.31428266  0.58857785  1.0
  H  H28  1  0.31475335  0.68571778  0.41142194  1.0
  H  H29  1  0.92827017  0.27556663  0.50694827  1.0
  H  H30  1  0.07172881  0.72443299  0.49305035  1.0
  H  H31  1  0.01752616  0.15971554  0.45246419  1.0
  H  H32  1  0.98247321  0.84028490  0.54753464  1.0
  H  H33  1  0.91119836  0.95699649  0.40860301  1.0
  H  H34  1  0.08880142  0.04300313  0.59139584  1.0
  H  H35  1  0.71087946  0.86455059  0.41580087  1.0
  H  H36  1  0.28911911  0.13544821  0.58419895  1.0
  H  H37  1  0.49927212  0.18378783  0.55280216  1.0
  H  H38  1  0.50072765  0.81621343  0.44719761  1.0
  H  H39  1  0.87761732  0.85179786  0.70048734  1.0
  H  H40  1  0.12238325  0.14820340  0.29951196  1.0
  H  H41  1  0.79311863  0.91146440  0.62922773  1.0
  H  H42  1  0.20688275  0.08853686  0.37077181  1.0
  H  H43  1  0.63475138  0.83094180  0.69842183  1.0
  H  H44  1  0.36524999  0.16905945  0.30157842  1.0
  H  H45  1  0.71231329  0.76505233  0.76713381  1.0
  H  H46  1  0.28768809  0.23494893  0.23286572  1.0
  H  H47  1  0.61150091  0.98377882  0.69414486  1.0
  H  H48  1  0.38850086  0.01622161  0.30585612  1.0
  H  H49  1  0.60559286  0.15950289  0.74573070  1.0
  H  H50  1  0.39440691  0.84049673  0.25426959  1.0
  H  H51  1  0.75697073  0.30119303  0.91307134  1.0
  H  H52  1  0.24302784  0.69880741  0.08692869  1.0
  H  H53  1  0.91775238  0.26855579  0.03213608  1.0
  H  H54  1  0.08224659  0.73144547  0.96786345  1.0
  H  H55  1  0.92270133  0.81095646  0.87859984  1.0
  H  H56  1  0.07730205  0.18904726  0.12139988  1.0
  H  H57  1  0.72611959  0.77427238  0.24791346  1.0
  H  H58  1  0.27387859  0.22572395  0.75208452  1.0
  H  H59  1  0.03305846  0.82660355  0.19300541  1.0
  H  H60  1  0.96694131  0.17339607  0.80699416  1.0
  H  H61  1  0.03374692  0.79568992  0.31384906  1.0
  H  H62  1  0.96625245  0.20430888  0.68615029  1.0
  H  H63  1  0.94748417  0.69033759  0.19359091  1.0
  H  H64  1  0.05251721  0.30966203  0.80640771  1.0
  H  H65  1  0.93536787  0.91952692  0.14093181  1.0
  H  H66  1  0.06463150  0.08047187  0.85906754  1.0
  H  H67  1  0.77757680  0.84747780  0.09631758  1.0
  H  H68  1  0.22242258  0.15252100  0.90368105  1.0
  H  H69  1  0.86227265  0.95089233  0.21949384  1.0
  H  H70  1  0.13772632  0.04910565  0.78050458  1.0
  C  C71  1  0.46070647  0.55934373  0.28942566  1.0
  C  C72  1  0.53929249  0.44065424  0.71057561  1.0
  C  C73  1  0.34134508  0.55567295  0.22798683  1.0
  C  C74  1  0.65865709  0.44432666  0.77201346  1.0
  C  C75  1  0.23861860  0.43905016  0.18783072  1.0
  C  C76  1  0.76138157  0.56094863  0.81216958  1.0
  C  C77  1  0.06694756  0.43975752  0.23017987  1.0
  C  C78  1  0.93305421  0.56024455  0.76982202  1.0
  C  C79  1  0.09033537  0.41470762  0.32603984  1.0
  C  C80  1  0.90966800  0.58529445  0.67396110  1.0
  C  C81  1  0.02004355  0.42261300  0.38048299  1.0
  C  C82  1  0.97995421  0.57738416  0.61951854  1.0
  C  C83  1  0.92856319  0.45398146  0.34067872  1.0
  C  C84  1  0.07143737  0.54601815  0.65932323  1.0
  C  C85  1  0.90427108  0.47729681  0.24427187  1.0
  C  C86  1  0.09572907  0.52270527  0.75573240  1.0
  C  C87  1  0.97370818  0.47063245  0.18798832  1.0
  C  C88  1  0.02629159  0.52936716  0.81201267  1.0
  C  C89  1  0.97450048  0.48957120  0.08896692  1.0
  C  C90  1  0.02549809  0.51043088  0.91103188  1.0
  C  C91  1  0.06962444  0.47046523  0.07541136  1.0
  C  C92  1  0.93037173  0.52953193  0.92458684  1.0
  C  C93  1  0.09681226  0.48099369  0.98765067  1.0
  C  C94  1  0.90318589  0.51900429  0.01235179  1.0
  C  C95  1  0.67029129  0.42484056  0.44246972  1.0
  C  C96  1  0.32970848  0.57515906  0.55753128  1.0
  C  C97  1  0.67328046  0.31503281  0.43115208  1.0
  C  C98  1  0.32671891  0.68496762  0.56884747  1.0
  C  C99  1  0.72576491  0.29399427  0.53633391  1.0
  C  C100  1  0.27423446  0.70600617  0.46366564  1.0
  C  C101  1  0.76960847  0.13462583  0.49338927  1.0
  C  C102  1  0.23038930  0.86537297  0.50660960  1.0
  C  C103  1  0.88074204  0.18657884  0.48721239  1.0
  C  C104  1  0.11925773  0.81342242  0.51278595  1.0
  C  C105  1  0.92988606  0.12075506  0.45602338  1.0
  C  C106  1  0.07011211  0.87924456  0.54397500  1.0
  C  C107  1  0.86895361  0.00567522  0.43056945  1.0
  C  C108  1  0.13104536  0.99432604  0.56943008  1.0
  C  C109  1  0.75768593  0.95377497  0.43605210  1.0
  C  C110  1  0.24231184  0.04622383  0.56394677  1.0
  C  C111  1  0.70696564  0.01804751  0.46806999  1.0
  C  C112  1  0.29303372  0.98195457  0.53193047  1.0
  C  C113  1  0.59609770  0.99336394  0.48143117  1.0
  C  C114  1  0.40390168  0.00663650  0.51856696  1.0
  C  C115  1  0.59542286  0.09666350  0.51307537  1.0
  C  C116  1  0.40457571  0.90333694  0.48692394  1.0
  C  C117  1  0.49999328  0.10505881  0.53068960  1.0
  C  C118  1  0.50000610  0.89494162  0.46930923  1.0
  C  C119  1  0.71877932  0.73862312  0.56907057  1.0
  C  C120  1  0.28122206  0.26137649  0.43092734  1.0
  C  C121  1  0.78559145  0.84080233  0.66127514  1.0
  C  C122  1  0.21440793  0.15919975  0.33872390  1.0
  C  C123  1  0.72463004  0.83792126  0.73821180  1.0
  C  C124  1  0.27537093  0.16207918  0.26178894  1.0
  C  C125  1  0.76828845  0.02601791  0.83624868  1.0
  C  C126  1  0.23171533  0.97398498  0.16375106  1.0
  C  C127  1  0.67763977  0.04402496  0.76833250  1.0
  C  C128  1  0.32236079  0.95597630  0.23166822  1.0
  C  C129  1  0.67547847  0.14394882  0.79783842  1.0
  C  C130  1  0.32452291  0.85605244  0.20216040  1.0
  C  C131  1  0.76081135  0.22389203  0.89224616  1.0
  C  C132  1  0.23918883  0.77610840  0.10775292  1.0
  C  C133  1  0.85161116  0.20617942  0.95931438  1.0
  C  C134  1  0.14839022  0.79382184  0.04068515  1.0
  C  C135  1  0.85692699  0.10724540  0.93128826  1.0
  C  C136  1  0.14307559  0.89275667  0.06871102  1.0
  C  C137  1  0.93919000  0.06433092  0.97865776  1.0
  C  C138  1  0.06080815  0.93566870  0.02134561  1.0
  C  C139  1  0.89565633  0.95708433  0.91061861  1.0
  C  C140  1  0.10434423  0.04291693  0.08938283  1.0
  C  C141  1  0.95525321  0.89195103  0.93068098  1.0
  C  C142  1  0.04474857  0.10805104  0.06931877  1.0
  C  C143  1  0.79954551  0.75093001  0.25842726  1.0
  C  C144  1  0.20045347  0.24906797  0.74157116  1.0
  C  C145  1  0.97901096  0.77752162  0.23046719  1.0
  C  C146  1  0.02098922  0.22247718  0.76953098  1.0
  C  C147  1  0.86177238  0.88467853  0.16608043  1.0
  C  C148  1  0.13822580  0.11531945  0.83391775  1.0
  N  N149  1  0.12275373  0.43848823  0.16063488  1.0
  N  N150  1  0.87724603  0.56151139  0.83936826  1.0
  N  N151  1  0.70278879  0.18040919  0.52288279  1.0
  N  N152  1  0.29721138  0.81959125  0.47711700  1.0
  N  N153  1  0.79143218  0.93537870  0.82651815  1.0
  N  N154  1  0.20856919  0.06462256  0.17348281  1.0
  N  N155  1  0.87746828  0.80238957  0.21881500  1.0
  N  N156  1  0.12253149  0.19760841  0.78118295  1.0
  O  O157  1  0.55511818  0.63399703  0.28766084  1.0
  O  O158  1  0.44488118  0.36600013  0.71234188  1.0
  O  O159  1  0.46323257  0.48973133  0.34027944  1.0
  O  O160  1  0.53676400  0.51026501  0.65972092  1.0
  O  O161  1  0.70229077  0.47833056  0.37970200  1.0
  O  O162  1  0.29770940  0.52166988  0.62029850  1.0
  O  O163  1  0.63674845  0.45570215  0.51100534  1.0
  O  O164  1  0.36325172  0.54429829  0.48899445  1.0
  O  O165  1  0.77782748  0.72854509  0.51368650  1.0
  O  O166  1  0.22217069  0.27145288  0.48631239  1.0
  O  O167  1  0.61276866  0.67336685  0.55182310  1.0
  O  O168  1  0.38723031  0.32663441  0.44817643  1.0
  O  O169  1  0.80755468  0.67922905  0.30485630  1.0
  O  O170  1  0.19244470  0.32076974  0.69514162  1.0
