# generated using pymatgen
data_ZnH13C21(NO)4
_symmetry_space_group_name_H-M   'P 1'
_cell_length_a   10.52376054
_cell_length_b   12.83424442
_cell_length_c   23.63837486
_cell_angle_alpha   78.41424872
_cell_angle_beta   77.15577284
_cell_angle_gamma   65.79778790
_symmetry_Int_Tables_number   1
_chemical_formula_structural   ZnH13C21(NO)4
_chemical_formula_sum   'Zn4 H52 C84 N16 O16'
_cell_volume   2817.52926810
_cell_formula_units_Z   4
loop_
 _symmetry_equiv_pos_site_id
 _symmetry_equiv_pos_as_xyz
  1  'x, y, z'
loop_
 _atom_site_type_symbol
 _atom_site_label
 _atom_site_symmetry_multiplicity
 _atom_site_fract_x
 _atom_site_fract_y
 _atom_site_fract_z
 _atom_site_occupancy
  Zn  Zn0  1  0.81588671  0.02632433  0.49143671  1.0
  Zn  Zn1  1  0.33362012  0.47357914  0.00856203  1.0
  Zn  Zn2  1  0.18411117  0.97367719  0.50856374  1.0
  Zn  Zn3  1  0.66638052  0.52642067  0.99143876  1.0
  H  H4  1  0.63339456  0.31004736  0.44817406  1.0
  H  H5  1  0.39151412  0.18979751  0.05179821  1.0
  H  H6  1  0.36660623  0.68995417  0.55182484  1.0
  H  H7  1  0.60848512  0.81020315  0.94820052  1.0
  H  H8  1  0.87250094  0.84678067  0.60519587  1.0
  H  H9  1  0.32434358  0.65315308  0.89464177  1.0
  H  H10  1  0.12749751  0.15322172  0.39480443  1.0
  H  H11  1  0.67565648  0.34684586  0.10535833  1.0
  H  H12  1  0.46216243  0.89706397  0.74703268  1.0
  H  H13  1  0.10572201  0.60277553  0.75286548  1.0
  H  H14  1  0.53783603  0.10293842  0.25296847  1.0
  H  H15  1  0.89427984  0.39722169  0.24713547  1.0
  H  H16  1  0.25146904  0.24869567  0.52797872  1.0
  H  H17  1  0.02814726  0.25134957  0.97180552  1.0
  H  H18  1  0.74853175  0.75130585  0.47202060  1.0
  H  H19  1  0.97185101  0.74865109  0.02819330  1.0
  H  H20  1  0.89362165  0.54825438  0.77709519  1.0
  H  H21  1  0.21868471  0.95147094  0.72286563  1.0
  H  H22  1  0.10637565  0.45174628  0.22290500  1.0
  H  H23  1  0.78131477  0.04852714  0.27713378  1.0
  H  H24  1  0.99346526  0.65777102  0.51849932  1.0
  H  H25  1  0.16949687  0.84211786  0.98151162  1.0
  H  H26  1  0.00653618  0.34222706  0.48150074  1.0
  H  H27  1  0.83050319  0.15788108  0.01848806  1.0
  H  H28  1  0.49385050  0.50388323  0.42348975  1.0
  H  H29  1  0.42136355  0.99615606  0.07631487  1.0
  H  H30  1  0.50615103  0.49612088  0.57650922  1.0
  H  H31  1  0.57863392  0.00384632  0.92368512  1.0
  H  H32  1  0.87392506  0.66355471  0.67869459  1.0
  H  H33  1  0.21570030  0.83625065  0.82126846  1.0
  H  H34  1  0.12607323  0.33644596  0.32130635  1.0
  H  H35  1  0.78429838  0.16374915  0.17873168  1.0
  H  H36  1  0.35567746  0.71483131  0.41636081  1.0
  H  H37  1  0.48692394  0.78518637  0.08352278  1.0
  H  H38  1  0.64431962  0.28517193  0.58363997  1.0
  H  H39  1  0.51307531  0.21481429  0.91647721  1.0
  H  H40  1  0.48305425  0.77989345  0.84480112  1.0
  H  H41  1  0.10746992  0.71986859  0.65508597  1.0
  H  H42  1  0.51694267  0.22010807  0.15520028  1.0
  H  H43  1  0.89253273  0.28012691  0.34491424  1.0
  H  H44  1  0.12967921  0.44706482  0.52774454  1.0
  H  H45  1  0.10437186  0.05283659  0.97213642  1.0
  H  H46  1  0.87032376  0.55293412  0.47225357  1.0
  H  H47  1  0.89562739  0.94716407  0.02786315  1.0
  H  H48  1  0.36755373  0.03681307  0.54783806  1.0
  H  H49  1  0.95208176  0.46321722  0.95215932  1.0
  H  H50  1  0.63244553  0.96318759  0.45216277  1.0
  H  H51  1  0.04791887  0.53678258  0.04784063  1.0
  H  H52  1  0.41891897  0.92918715  0.64022449  1.0
  H  H53  1  0.98789760  0.57067686  0.85988354  1.0
  H  H54  1  0.58108184  0.07081437  0.35977610  1.0
  H  H55  1  0.01210125  0.42932466  0.14011598  1.0
  C  C56  1  0.70591282  0.58987946  0.87640095  1.0
  C  C57  1  0.17204336  0.90990855  0.62356073  1.0
  C  C58  1  0.29408806  0.41011776  0.12360010  1.0
  C  C59  1  0.82795906  0.09008953  0.37644008  1.0
  C  C60  1  0.08582645  0.82633344  0.46699198  1.0
  C  C61  1  0.37910449  0.67362113  0.03297710  1.0
  C  C62  1  0.91417144  0.17366808  0.53300974  1.0
  C  C63  1  0.62089947  0.32637781  0.96702303  1.0
  C  C64  1  0.69015696  0.65714436  0.81704605  1.0
  C  C65  1  0.16393184  0.84264880  0.68289433  1.0
  C  C66  1  0.30984173  0.34285544  0.18295537  1.0
  C  C67  1  0.83606789  0.15734669  0.31710618  1.0
  C  C68  1  0.55287306  0.27640781  0.46896022  1.0
  C  C69  1  0.29816331  0.22349379  0.03096817  1.0
  C  C70  1  0.44712520  0.72359285  0.53103775  1.0
  C  C71  1  0.70183731  0.77650602  0.96903136  1.0
  C  C72  1  0.65275184  0.85691643  0.64859350  1.0
  C  C73  1  0.15784823  0.64297569  0.85136729  1.0
  C  C74  1  0.34724897  0.14308509  0.35140751  1.0
  C  C75  1  0.84215063  0.35702583  0.14863307  1.0
  C  C76  1  0.76016048  0.87533951  0.60474910  1.0
  C  C77  1  0.24010098  0.62457342  0.89514798  1.0
  C  C78  1  0.23983935  0.12466201  0.39525159  1.0
  C  C79  1  0.75989672  0.37542638  0.10485226  1.0
  C  C80  1  0.66655663  0.78860834  0.70607689  1.0
  C  C81  1  0.16061393  0.71125883  0.79388118  1.0
  C  C82  1  0.33344085  0.21139404  0.29392478  1.0
  C  C83  1  0.83938792  0.28873839  0.20612020  1.0
  C  C84  1  0.55651806  0.82000385  0.75340389  1.0
  C  C85  1  0.12928643  0.67987013  0.74653271  1.0
  C  C86  1  0.44348161  0.17999595  0.24659784  1.0
  C  C87  1  0.87071679  0.32012623  0.25346820  1.0
  C  C88  1  0.35616217  0.24824165  0.51047478  1.0
  C  C89  1  0.11485092  0.25175978  0.98937365  1.0
  C  C90  1  0.64383708  0.75175901  0.48952437  1.0
  C  C91  1  0.88515222  0.74824088  0.01062553  1.0
  C  C92  1  0.79988770  0.62542077  0.76994545  1.0
  C  C93  1  0.19484289  0.87437506  0.73001836  1.0
  C  C94  1  0.20011058  0.37457989  0.23005506  1.0
  C  C95  1  0.80515717  0.12562389  0.26998131  1.0
  C  C96  1  0.40482113  0.33538352  0.48405174  1.0
  C  C97  1  0.22428901  0.16455587  0.01576074  1.0
  C  C98  1  0.59518165  0.66461370  0.51594489  1.0
  C  C99  1  0.77571242  0.83544221  0.98423890  1.0
  C  C100  1  0.10280883  0.62272284  0.49725828  1.0
  C  C101  1  0.22267946  0.87721358  0.00267808  1.0
  C  C102  1  0.89719220  0.37727610  0.50274130  1.0
  C  C103  1  0.77732077  0.12278709  0.99732181  1.0
  C  C104  1  0.38393744  0.53664039  0.44435716  1.0
  C  C105  1  0.36505110  0.96336005  0.05546811  1.0
  C  C106  1  0.61606117  0.46336372  0.55564125  1.0
  C  C107  1  0.63494776  0.03664147  0.94453267  1.0
  C  C108  1  0.78853131  0.69008113  0.71517023  1.0
  C  C109  1  0.19328177  0.80972675  0.78477610  1.0
  C  C110  1  0.21146698  0.30991953  0.28483113  1.0
  C  C111  1  0.80671887  0.19027305  0.21522427  1.0
  C  C112  1  0.30698136  0.65495411  0.43991178  1.0
  C  C113  1  0.40189950  0.84505145  0.05995710  1.0
  C  C114  1  0.69302155  0.34504914  0.56008714  1.0
  C  C115  1  0.59809975  0.15494921  0.94004331  1.0
  C  C116  1  0.16579258  0.69941851  0.46664811  1.0
  C  C117  1  0.33179998  0.80054900  0.03328195  1.0
  C  C118  1  0.83420392  0.30058387  0.53335239  1.0
  C  C119  1  0.66819927  0.19945166  0.96671762  1.0
  C  C120  1  0.32242544  0.45930618  0.47629346  1.0
  C  C121  1  0.25808563  0.04063835  0.02352453  1.0
  C  C122  1  0.67757712  0.54069362  0.52370375  1.0
  C  C123  1  0.74191500  0.95936146  0.97647584  1.0
  C  C124  1  0.56793715  0.75504659  0.80803319  1.0
  C  C125  1  0.13053234  0.74479383  0.69189662  1.0
  C  C126  1  0.43205993  0.24495665  0.19196759  1.0
  C  C127  1  0.86947105  0.25520425  0.30810282  1.0
  C  C128  1  0.17993671  0.50472386  0.50231436  1.0
  C  C129  1  0.18693011  0.99520849  0.99756007  1.0
  C  C130  1  0.82006253  0.49527681  0.49768394  1.0
  C  C131  1  0.81306816  0.00479217  0.00243918  1.0
  C  C132  1  0.47431625  0.03220282  0.52757440  1.0
  C  C133  1  0.03399688  0.46780200  0.97243222  1.0
  C  C134  1  0.52568479  0.96779612  0.47242602  1.0
  C  C135  1  0.96600318  0.53219694  0.02756746  1.0
  C  C136  1  0.52855041  0.91862531  0.62503939  1.0
  C  C137  1  0.07185648  0.58130452  0.87499278  1.0
  C  C138  1  0.47144787  0.08137535  0.37496154  1.0
  C  C139  1  0.92814278  0.41869614  0.12500764  1.0
  N  N140  1  0.47082800  0.14767296  0.51055097  1.0
  N  N141  1  0.12892343  0.35230265  0.98943858  1.0
  N  N142  1  0.52917304  0.85232598  0.48944945  1.0
  N  N143  1  0.87107840  0.64769457  0.01055984  1.0
  N  N144  1  0.59157564  0.16326415  0.48483824  1.0
  N  N145  1  0.23954017  0.33665890  0.01519315  1.0
  N  N146  1  0.40842717  0.83673307  0.51516135  1.0
  N  N147  1  0.76045947  0.66334090  0.98480521  1.0
  N  N148  1  0.70598101  0.94269604  0.55798120  1.0
  N  N149  1  0.20665890  0.55722371  0.94195062  1.0
  N  N150  1  0.29401864  0.05730376  0.44201885  1.0
  N  N151  1  0.79333979  0.44277609  0.05804995  1.0
  N  N152  1  0.56482513  0.96910277  0.57108395  1.0
  N  N153  1  0.10489793  0.53084433  0.92891515  1.0
  N  N154  1  0.43517396  0.03089617  0.42891624  1.0
  N  N155  1  0.89510172  0.46915547  0.07108405  1.0
  O  O156  1  0.59639234  0.61791728  0.91650499  1.0
  O  O157  1  0.13074292  0.88193093  0.58338619  1.0
  O  O158  1  0.40360601  0.38207908  0.08349599  1.0
  O  O159  1  0.86925812  0.11806801  0.41661339  1.0
  O  O160  1  0.15517977  0.89164344  0.45123506  1.0
  O  O161  1  0.49807766  0.60839820  0.04870291  1.0
  O  O162  1  0.84481828  0.10835981  0.54876562  1.0
  O  O163  1  0.50192216  0.39160332  0.95129693  1.0
  O  O164  1  0.82397087  0.51262418  0.88568728  1.0
  O  O165  1  0.22215046  0.98711396  0.61436121  1.0
  O  O166  1  0.17602741  0.48737648  0.11431365  1.0
  O  O167  1  0.77785099  0.01288411  0.38563969  1.0
  O  O168  1  0.95358454  0.86004916  0.48473871  1.0
  O  O169  1  0.29829403  0.63983356  0.01527942  1.0
  O  O170  1  0.04641571  0.13995150  0.51526330  1.0
  O  O171  1  0.70170757  0.36016624  0.98472000  1.0
