# generated using pymatgen
data_Zn2H21C46S(NO10)2
_symmetry_space_group_name_H-M   'P 1'
_cell_length_a   16.51866555
_cell_length_b   17.84928671
_cell_length_c   30.57468850
_cell_angle_alpha   90.24270326
_cell_angle_beta   90.09584707
_cell_angle_gamma   89.98575595
_symmetry_Int_Tables_number   1
_chemical_formula_structural   Zn2H21C46S(NO10)2
_chemical_formula_sum   'Zn4 H42 C92 S2 N4 O40'
_cell_volume   9014.74300298
_cell_formula_units_Z   2
loop_
 _symmetry_equiv_pos_site_id
 _symmetry_equiv_pos_as_xyz
  1  'x, y, z'
loop_
 _atom_site_type_symbol
 _atom_site_label
 _atom_site_symmetry_multiplicity
 _atom_site_fract_x
 _atom_site_fract_y
 _atom_site_fract_z
 _atom_site_occupancy
  Zn  Zn0  1  0.58495930  0.50188692  0.50213042  1.0
  Zn  Zn1  1  0.41571239  0.49973986  0.50194522  1.0
  Zn  Zn2  1  0.41502456  0.50414237  0.91753995  1.0
  Zn  Zn3  1  0.58428312  0.50202031  0.91765871  1.0
  H  H4  1  0.28513926  0.57194050  0.55431135  1.0
  H  H5  1  0.13340997  0.57508484  0.55450686  1.0
  H  H6  1  0.28897193  0.42003540  0.45121399  1.0
  H  H7  1  0.71332902  0.58731008  0.54925741  1.0
  H  H8  1  0.71494746  0.41470645  0.45801643  1.0
  H  H9  1  0.86704301  0.41268096  0.45632792  1.0
  H  H10  1  0.62793100  0.74221827  0.50417751  1.0
  H  H11  1  0.62346661  0.88182854  0.50169579  1.0
  H  H12  1  0.36820394  0.73541952  0.49669358  1.0
  H  H13  1  0.63421422  0.26368894  0.49774798  1.0
  H  H14  1  0.37438376  0.26256102  0.50499970  1.0
  H  H15  1  0.37537062  0.12283998  0.50160365  1.0
  H  H16  1  0.37217088  0.50716556  0.05791650  1.0
  H  H17  1  0.37534972  0.50542463  0.13958105  1.0
  H  H18  1  0.63192908  0.49491708  0.05549213  1.0
  H  H19  1  0.36795987  0.49219147  0.36406396  1.0
  H  H20  1  0.62767407  0.50482935  0.36174693  1.0
  H  H21  1  0.62450359  0.50442845  0.28007646  1.0
  H  H22  1  0.71477250  0.57384464  0.86546044  1.0
  H  H23  1  0.86650497  0.57684402  0.86518453  1.0
  H  H24  1  0.71105226  0.42285929  0.96827422  1.0
  H  H25  1  0.28671558  0.58929452  0.87048746  1.0
  H  H26  1  0.28492415  0.41755408  0.96144500  1.0
  H  H27  1  0.13283878  0.41560122  0.96303573  1.0
  H  H28  1  0.37215638  0.74440708  0.91461121  1.0
  H  H29  1  0.37655630  0.88409616  0.91655149  1.0
  H  H30  1  0.63188049  0.73775587  0.92203098  1.0
  H  H31  1  0.36612225  0.26615799  0.92152158  1.0
  H  H32  1  0.62591287  0.26464880  0.91409592  1.0
  H  H33  1  0.62477442  0.12491296  0.91686640  1.0
  H  H34  1  0.03197538  0.45062431  0.43851064  1.0
  H  H35  1  0.97338968  0.60100925  0.53440083  1.0
  H  H36  1  0.37980435  0.97669441  0.48444610  1.0
  H  H37  1  0.61639054  0.02239448  0.48616197  1.0
  H  H38  1  0.61818189  0.47717450  0.19619260  1.0
  H  H39  1  0.38169364  0.47646630  0.22322786  1.0
  H  H40  1  0.96802605  0.45377199  0.98099149  1.0
  H  H41  1  0.02665149  0.60318718  0.88533898  1.0
  H  H42  1  0.62019513  0.97921549  0.93364185  1.0
  H  H43  1  0.38363944  0.02494134  0.93218731  1.0
  H  H44  1  0.33142026  0.58121061  0.68734796  1.0
  H  H45  1  0.66828651  0.58139940  0.73255519  1.0
  C  C46  1  0.50037559  0.64621375  0.50091270  1.0
  C  C47  1  0.49813418  0.50116116  0.58683401  1.0
  C  C48  1  0.50413902  0.35564016  0.50253358  1.0
  C  C49  1  0.49952687  0.49741271  0.41694711  1.0
  C  C50  1  0.49965143  0.64848961  0.91835603  1.0
  C  C51  1  0.50165850  0.50224163  0.83283057  1.0
  C  C52  1  0.49622531  0.35788581  0.91696309  1.0
  C  C53  1  0.50038696  0.50044987  0.00266159  1.0
  C  C54  1  0.24971121  0.53933274  0.53092482  1.0
  C  C55  1  0.16585604  0.54064773  0.53085514  1.0
  C  C56  1  0.12334938  0.49663819  0.50007581  1.0
  C  C57  1  0.16800431  0.45091329  0.47075532  1.0
  C  C58  1  0.25237901  0.45386090  0.47344606  1.0
  C  C59  1  0.03764592  0.49917470  0.50015760  1.0
  C  C60  1  0.96375848  0.50297543  0.50189759  1.0
  C  C61  1  0.87806835  0.50407943  0.50326908  1.0
  C  C62  1  0.83387188  0.55397038  0.53041852  1.0
  C  C63  1  0.74941050  0.54984794  0.52885362  1.0
  C  C64  1  0.75102217  0.45344616  0.47767137  1.0
  C  C65  1  0.83488182  0.45274350  0.47690133  1.0
  C  C66  1  0.49836503  0.73020340  0.50021201  1.0
  C  C67  1  0.57035119  0.77173511  0.50188112  1.0
  C  C68  1  0.56765983  0.84929570  0.50050209  1.0
  C  C69  1  0.49279656  0.88751179  0.49779069  1.0
  C  C70  1  0.41953789  0.84560223  0.49672561  1.0
  C  C71  1  0.42422548  0.76750701  0.49778116  1.0
  C  C72  1  0.49507475  0.96675533  0.49682283  1.0
  C  C73  1  0.50189619  0.03522435  0.49668931  1.0
  C  C74  1  0.50583740  0.11441565  0.49771192  1.0
  C  C75  1  0.58016648  0.15474097  0.49659694  1.0
  C  C76  1  0.57737947  0.23286640  0.49844028  1.0
  C  C77  1  0.50423905  0.27168309  0.50126178  1.0
  C  C78  1  0.43117803  0.23178776  0.50254998  1.0
  C  C79  1  0.43195900  0.15418126  0.50066147  1.0
  C  C80  1  0.43069033  0.49459412  0.66330508  1.0
  C  C81  1  0.56898181  0.49499452  0.75636480  1.0
  C  C82  1  0.49652085  0.49504745  0.63511091  1.0
  C  C83  1  0.50316093  0.49572332  0.78455009  1.0
  C  C84  1  0.54228344  0.49445832  0.71208637  1.0
  C  C85  1  0.45739573  0.49444177  0.70758966  1.0
  C  C86  1  0.50173611  0.50014775  0.05169998  1.0
  C  C87  1  0.42942101  0.50367066  0.07555106  1.0
  C  C88  1  0.43140336  0.50280100  0.12086198  1.0
  C  C89  1  0.50597323  0.49894245  0.14355876  1.0
  C  C90  1  0.57958484  0.49652014  0.11947927  1.0
  C  C91  1  0.57556817  0.49689577  0.07385970  1.0
  C  C92  1  0.50316075  0.49820571  0.18981308  1.0
  C  C93  1  0.49667162  0.49787301  0.22978045  1.0
  C  C94  1  0.49389209  0.49781922  0.27603809  1.0
  C  C95  1  0.42029285  0.49488497  0.30009295  1.0
  C  C96  1  0.42431377  0.49451102  0.34571286  1.0
  C  C97  1  0.49813422  0.49753162  0.36790468  1.0
  C  C98  1  0.57043887  0.50152448  0.34408387  1.0
  C  C99  1  0.56845885  0.50137560  0.29876979  1.0
  C  C100  1  0.75023093  0.54140328  0.88875957  1.0
  C  C101  1  0.83408461  0.54265424  0.88878388  1.0
  C  C102  1  0.87662613  0.49892055  0.91946970  1.0
  C  C103  1  0.83202496  0.45352672  0.94874952  1.0
  C  C104  1  0.74763766  0.45646399  0.94609583  1.0
  C  C105  1  0.96232984  0.50145263  0.91934543  1.0
  C  C106  1  0.03619495  0.50538897  0.91756462  1.0
  C  C107  1  0.12189015  0.50653943  0.91624282  1.0
  C  C108  1  0.16614262  0.55618670  0.88921982  1.0
  C  C109  1  0.25060658  0.55203590  0.89081180  1.0
  C  C110  1  0.24889243  0.45611732  0.94182615  1.0
  C  C111  1  0.16504359  0.45545241  0.94254670  1.0
  C  C112  1  0.50169130  0.73247960  0.91861005  1.0
  C  C113  1  0.42970930  0.77399397  0.91677334  1.0
  C  C114  1  0.43238269  0.85157933  0.91785697  1.0
  C  C115  1  0.50725365  0.88980956  0.92043426  1.0
  C  C116  1  0.58052592  0.84791334  0.92161142  1.0
  C  C117  1  0.57583684  0.76979701  0.92084146  1.0
  C  C118  1  0.50493587  0.96907236  0.92129748  1.0
  C  C119  1  0.49815095  0.03753625  0.92151516  1.0
  C  C120  1  0.49428481  0.11672303  0.92076796  1.0
  C  C121  1  0.42001587  0.15715127  0.92213456  1.0
  C  C122  1  0.42290410  0.23525985  0.92062448  1.0
  C  C123  1  0.49608407  0.27394949  0.91792330  1.0
  C  C124  1  0.56910223  0.23394901  0.91643041  1.0
  C  C125  1  0.56822063  0.15634788  0.91796071  1.0
  C  C126  1  0.13397355  0.39698397  0.43741935  1.0
  C  C127  1  0.86819046  0.61117772  0.56180991  1.0
  C  C128  1  0.33518301  0.87786086  0.49501240  1.0
  C  C129  1  0.66373936  0.12103711  0.49351287  1.0
  C  C130  1  0.66371816  0.49451177  0.13872094  1.0
  C  C131  1  0.33616204  0.49316711  0.28084310  1.0
  C  C132  1  0.86615835  0.39995500  0.98199440  1.0
  C  C133  1  0.13184526  0.61321073  0.85797564  1.0
  C  C134  1  0.66486797  0.88022313  0.92317896  1.0
  C  C135  1  0.33641490  0.12360029  0.92521673  1.0
  C  C136  1  0.34341946  0.49373580  0.64997453  1.0
  C  C137  1  0.65625115  0.49420850  0.76970668  1.0
  S  S138  1  0.58925266  0.49326473  0.66175852  1.0
  S  S139  1  0.41041904  0.49373387  0.75792297  1.0
  N  N140  1  0.29186134  0.49735261  0.50220333  1.0
  N  N141  1  0.70930985  0.50176439  0.50302517  1.0
  N  N142  1  0.70812881  0.49969809  0.91741714  1.0
  N  N143  1  0.29066410  0.50415900  0.91657036  1.0
  O  O144  1  0.56824868  0.61530038  0.50931786  1.0
  O  O145  1  0.43413320  0.61255513  0.49290053  1.0
  O  O146  1  0.43270570  0.51942138  0.56789091  1.0
  O  O147  1  0.56640921  0.48842987  0.56884916  1.0
  O  O148  1  0.43717483  0.38760651  0.51121594  1.0
  O  O149  1  0.57108468  0.38831454  0.49463590  1.0
  O  O150  1  0.56697126  0.51187328  0.43539899  1.0
  O  O151  1  0.43300465  0.48305794  0.43612230  1.0
  O  O152  1  0.43174876  0.61741451  0.91012285  1.0
  O  O153  1  0.56588024  0.61501609  0.92654224  1.0
  O  O154  1  0.56712237  0.52068853  0.85175571  1.0
  O  O155  1  0.43346270  0.48962996  0.85084040  1.0
  O  O156  1  0.56322038  0.38971979  0.90838926  1.0
  O  O157  1  0.42928298  0.39065329  0.92495241  1.0
  O  O158  1  0.43292922  0.51481135  0.98426594  1.0
  O  O159  1  0.56699169  0.48635274  0.98342495  1.0
  O  O160  1  0.05673252  0.40761235  0.42355710  1.0
  O  O161  1  0.17441226  0.34563547  0.42308345  1.0
  O  O162  1  0.94716546  0.63024462  0.55775386  1.0
  O  O163  1  0.82608816  0.64029054  0.58970365  1.0
  O  O164  1  0.32656058  0.95223885  0.48716822  1.0
  O  O165  1  0.27534798  0.83896854  0.50017633  1.0
  O  O166  1  0.67037511  0.04594946  0.48723511  1.0
  O  O167  1  0.72466847  0.15933888  0.49608674  1.0
  O  O168  1  0.67173767  0.48185284  0.18229327  1.0
  O  O169  1  0.72377003  0.50338522  0.11626003  1.0
  O  O170  1  0.32813507  0.48096152  0.23716840  1.0
  O  O171  1  0.27612498  0.50185923  0.30338581  1.0
  O  O172  1  0.94338585  0.41085371  0.99587068  1.0
  O  O173  1  0.82584575  0.34866768  0.99623120  1.0
  O  O174  1  0.05285607  0.63230817  0.86207586  1.0
  O  O175  1  0.17396321  0.64215454  0.83018023  1.0
  O  O176  1  0.67346792  0.95474542  0.93092366  1.0
  O  O177  1  0.72469740  0.84121696  0.91801966  1.0
  O  O178  1  0.32968190  0.04856572  0.93128943  1.0
  O  O179  1  0.27553522  0.16199809  0.92286488  1.0
  O  O180  1  0.29726881  0.54832265  0.66950958  1.0
  O  O181  1  0.31207751  0.44879717  0.62545084  1.0
  O  O182  1  0.70241850  0.54864437  0.75033219  1.0
  O  O183  1  0.68756898  0.44942172  0.79411595  1.0
