# generated using pymatgen
data_Zn4H12C30O13
_symmetry_space_group_name_H-M   'P 1'
_cell_length_a   21.75951508
_cell_length_b   22.01355706
_cell_length_c   22.08093649
_cell_angle_alpha   90.12213228
_cell_angle_beta   119.51902012
_cell_angle_gamma   119.58356169
_symmetry_Int_Tables_number   1
_chemical_formula_structural   Zn4H12C30O13
_chemical_formula_sum   'Zn8 H24 C60 O26'
_cell_volume   7571.59203798
_cell_formula_units_Z   2
loop_
 _symmetry_equiv_pos_site_id
 _symmetry_equiv_pos_as_xyz
  1  'x, y, z'
loop_
 _atom_site_type_symbol
 _atom_site_label
 _atom_site_symmetry_multiplicity
 _atom_site_fract_x
 _atom_site_fract_y
 _atom_site_fract_z
 _atom_site_occupancy
  Zn  Zn0  1  0.07395270  0.12041755  0.03983688  1.0
  Zn  Zn1  1  0.07894678  0.97655617  0.04498899  1.0
  Zn  Zn2  1  0.93338138  0.97561846  0.89778963  1.0
  Zn  Zn3  1  0.92832099  0.97400452  0.04094256  1.0
  Zn  Zn4  1  0.93011398  0.40294383  0.47043170  1.0
  Zn  Zn5  1  0.93045003  0.54864873  0.47058438  1.0
  Zn  Zn6  1  0.07663401  0.54737590  0.46919880  1.0
  Zn  Zn7  1  0.07519287  0.54516364  0.61328537  1.0
  H  H8  1  0.50602102  0.17851191  0.30448562  1.0
  H  H9  1  0.66645958  0.25859699  0.38574794  1.0
  H  H10  1  0.66732836  0.43310429  0.29835694  1.0
  H  H11  1  0.50701931  0.35280370  0.21495021  1.0
  H  H12  1  0.95666442  0.17265665  0.66431672  1.0
  H  H13  1  0.95568380  0.25307129  0.58405451  1.0
  H  H14  1  0.04948819  0.42878416  0.75917788  1.0
  H  H15  1  0.04835289  0.34825659  0.83932628  1.0
  H  H16  1  0.87666800  0.16794878  0.22988371  1.0
  H  H17  1  0.87824494  0.24963106  0.31026754  1.0
  H  H18  1  0.11651945  0.43449150  0.35594346  1.0
  H  H19  1  0.11648828  0.35341438  0.27642700  1.0
  H  H20  1  0.89660359  0.74778573  0.66594366  1.0
  H  H21  1  0.89499712  0.66856430  0.58305351  1.0
  H  H22  1  0.11483944  0.68936050  0.76946116  1.0
  H  H23  1  0.11748215  0.76876486  0.85305799  1.0
  H  H24  1  0.90549561  0.76185851  0.25965634  1.0
  H  H25  1  0.90672945  0.68191589  0.34041482  1.0
  H  H26  1  0.10277797  0.68112269  0.33864691  1.0
  H  H27  1  0.10289721  0.76169436  0.25846802  1.0
  H  H28  1  0.49874850  0.73728523  0.84720201  1.0
  H  H29  1  0.33827324  0.65554920  0.76645499  1.0
  H  H30  1  0.34219563  0.69541970  0.57757134  1.0
  H  H31  1  0.50268900  0.77771320  0.65765015  1.0
  C  C32  1  0.23498723  0.12886223  0.12110832  1.0
  C  C33  1  0.32728321  0.17560162  0.16779809  1.0
  C  C34  1  0.40542469  0.21496133  0.20781048  1.0
  C  C35  1  0.49625440  0.26051787  0.25446528  1.0
  C  C36  1  0.54172647  0.23411520  0.30310387  1.0
  C  C37  1  0.63080237  0.27866385  0.34841432  1.0
  C  C38  1  0.67610999  0.35050526  0.34682690  1.0
  C  C39  1  0.63125524  0.37723491  0.29897966  1.0
  C  C40  1  0.54223807  0.33270144  0.25284292  1.0
  C  C41  1  0.77184881  0.39815286  0.39529264  1.0
  C  C42  1  0.00328419  0.12621333  0.88840711  1.0
  C  C43  1  0.00293983  0.17164520  0.84170706  1.0
  C  C44  1  0.00263674  0.21021629  0.80223097  1.0
  C  C45  1  0.00252818  0.25547196  0.75679319  1.0
  C  C46  1  0.97636545  0.22860335  0.68447564  1.0
  C  C47  1  0.97600350  0.27319068  0.64006850  1.0
  C  C48  1  0.00263532  0.34546213  0.66717017  1.0
  C  C49  1  0.02907260  0.37255228  0.73915151  1.0
  C  C50  1  0.02865982  0.32802689  0.78357015  1.0
  C  C51  1  0.00295827  0.39365072  0.61974740  1.0
  C  C52  1  0.99833437  0.12522878  0.11845745  1.0
  C  C53  1  0.99701223  0.17064203  0.16411074  1.0
  C  C54  1  0.99648206  0.20958249  0.20287314  1.0
  C  C55  1  0.99654488  0.25545246  0.24799102  1.0
  C  C56  1  0.92907004  0.22629751  0.25767476  1.0
  C  C57  1  0.92982664  0.27164074  0.30222849  1.0
  C  C58  1  0.99739450  0.34677442  0.33769658  1.0
  C  C59  1  0.06448656  0.37608702  0.32807416  1.0
  C  C60  1  0.06439464  0.33106421  0.28386310  1.0
  C  C61  1  0.99835831  0.39525093  0.38605197  1.0
  C  C62  1  0.00908638  0.89558204  0.89595432  1.0
  C  C63  1  0.00954917  0.84853970  0.85109129  1.0
  C  C64  1  0.00869001  0.80902105  0.81155987  1.0
  C  C65  1  0.00724092  0.76347417  0.76480054  1.0
  C  C66  1  0.94420211  0.73480532  0.68823805  1.0
  C  C67  1  0.94328206  0.69082940  0.64219332  1.0
  C  C68  1  0.00491192  0.67448796  0.67146244  1.0
  C  C69  1  0.06750128  0.70259176  0.74757112  1.0
  C  C70  1  0.06889302  0.74664206  0.79395416  1.0
  C  C71  1  0.00421718  0.62724733  0.62215417  1.0
  C  C72  1  0.00338074  0.89653220  0.12298592  1.0
  C  C73  1  0.00337714  0.85076377  0.16936023  1.0
  C  C74  1  0.00371765  0.81191916  0.20856933  1.0
  C  C75  1  0.00415253  0.76674128  0.25408028  1.0
  C  C76  1  0.94855651  0.74404880  0.27730040  1.0
  C  C77  1  0.94918098  0.69974793  0.32196323  1.0
  C  C78  1  0.00480303  0.67703942  0.34403310  1.0
  C  C79  1  0.06012825  0.69936009  0.32100567  1.0
  C  C80  1  0.06011112  0.74389877  0.27656976  1.0
  C  C81  1  0.00493329  0.62911644  0.39182365  1.0
  C  C82  1  0.77218117  0.89586328  0.88937889  1.0
  C  C83  1  0.67991772  0.84914055  0.84276238  1.0
  C  C84  1  0.60178339  0.80923270  0.80324469  1.0
  C  C85  1  0.51095029  0.76277762  0.75757660  1.0
  C  C86  1  0.46408124  0.72796642  0.78817331  1.0
  C  C87  1  0.37503008  0.68256011  0.74338443  1.0
  C  C88  1  0.33100610  0.67077386  0.66739383  1.0
  C  C89  1  0.37725426  0.70508640  0.63662915  1.0
  C  C90  1  0.46632406  0.75073099  0.68109162  1.0
  C  C91  1  0.23518155  0.62237312  0.61958758  1.0
  O  O92  1  0.00376720  0.01168312  0.00607354  1.0
  O  O93  1  0.20033414  0.05966952  0.11007210  1.0
  O  O94  1  0.19708908  0.16127608  0.09551086  1.0
  O  O95  1  0.80864123  0.46685468  0.40248760  1.0
  O  O96  1  0.80947091  0.36639599  0.42560423  1.0
  O  O97  1  0.95888607  0.05682870  0.85635736  1.0
  O  O98  1  0.04792745  0.15980274  0.95724000  1.0
  O  O99  1  0.04262161  0.46230845  0.65159370  1.0
  O  O100  1  0.96362123  0.36251088  0.55119363  1.0
  O  O101  1  0.94430985  0.05555632  0.09794788  1.0
  O  O102  1  0.05351464  0.15933362  0.10310578  1.0
  O  O103  1  0.05796330  0.46414223  0.41193099  1.0
  O  O104  1  0.93955911  0.36376134  0.39771712  1.0
  O  O105  1  0.95397086  0.91087097  0.86132685  1.0
  O  O106  1  0.06347773  0.91731914  0.96543793  1.0
  O  O107  1  0.06137739  0.61373687  0.65323919  1.0
  O  O108  1  0.94677531  0.60421816  0.55318859  1.0
  O  O109  1  0.95143286  0.91541999  0.10510149  1.0
  O  O110  1  0.05542620  0.91367698  0.10437448  1.0
  O  O111  1  0.05373286  0.60717254  0.40671221  1.0
  O  O112  1  0.95617965  0.61401836  0.41379952  1.0
  O  O113  1  0.80672468  0.90881400  0.95849851  1.0
  O  O114  1  0.81022766  0.91961919  0.85690046  1.0
  O  O115  1  0.19897429  0.61148137  0.55053523  1.0
  O  O116  1  0.19711033  0.59585339  0.65171310  1.0
  O  O117  1  0.00305994  0.51132230  0.50547668  1.0
