# generated using pymatgen
data_Zn2H12PdC14N2Cl2O11
_symmetry_space_group_name_H-M   'P 1'
_cell_length_a   12.90443472
_cell_length_b   15.04758340
_cell_length_c   22.81079014
_cell_angle_alpha   90.00013201
_cell_angle_beta   89.99939772
_cell_angle_gamma   89.99995301
_symmetry_Int_Tables_number   1
_chemical_formula_structural   Zn2H12PdC14N2Cl2O11
_chemical_formula_sum   'Zn8 H48 Pd4 C56 N8 Cl8 O44'
_cell_volume   4429.41195023
_cell_formula_units_Z   4
loop_
 _symmetry_equiv_pos_site_id
 _symmetry_equiv_pos_as_xyz
  1  'x, y, z'
loop_
 _atom_site_type_symbol
 _atom_site_label
 _atom_site_symmetry_multiplicity
 _atom_site_fract_x
 _atom_site_fract_y
 _atom_site_fract_z
 _atom_site_occupancy
  Zn  Zn0  1  0.24375910  0.55753960  0.98269770  1.0
  Zn  Zn1  1  0.74376155  0.05753673  0.51730117  1.0
  Zn  Zn2  1  0.25624164  0.55754072  0.48269482  1.0
  Zn  Zn3  1  0.75623866  0.05754316  0.01730662  1.0
  Zn  Zn4  1  0.83229413  0.18019627  0.90358968  1.0
  Zn  Zn5  1  0.33229732  0.68019513  0.59640797  1.0
  Zn  Zn6  1  0.66770420  0.18019678  0.40358689  1.0
  Zn  Zn7  1  0.16770662  0.68019764  0.09641307  1.0
  H  H8  1  0.48947450  0.35907027  0.50755151  1.0
  H  H9  1  0.98947693  0.85907215  0.99245206  1.0
  H  H10  1  0.01051590  0.35907223  0.00755052  1.0
  H  H11  1  0.51052298  0.85907145  0.49244669  1.0
  H  H12  1  0.62297925  0.21637647  0.65310142  1.0
  H  H13  1  0.12297701  0.71637820  0.84689973  1.0
  H  H14  1  0.87702293  0.21638215  0.15310527  1.0
  H  H15  1  0.37702689  0.71637790  0.34689656  1.0
  H  H16  1  0.45810451  0.44870359  0.68605228  1.0
  H  H17  1  0.95810639  0.94870485  0.81395074  1.0
  H  H18  1  0.04189876  0.44871018  0.18605198  1.0
  H  H19  1  0.54189599  0.94870944  0.31394474  1.0
  H  H20  1  0.61773107  0.19680625  0.86019902  1.0
  H  H21  1  0.11773346  0.69680726  0.63979949  1.0
  H  H22  1  0.88227192  0.19680860  0.36019627  1.0
  H  H23  1  0.38227586  0.69680762  0.13980112  1.0
  H  H24  1  0.48910788  0.30508467  0.01924396  1.0
  H  H25  1  0.98909425  0.80508452  0.48075734  1.0
  H  H26  1  0.01090328  0.30507707  0.51924297  1.0
  H  H27  1  0.51089430  0.80508556  0.98075459  1.0
  H  H28  1  0.41553547  0.41093304  0.84881746  1.0
  H  H29  1  0.91552876  0.91093041  0.65118707  1.0
  H  H30  1  0.08447642  0.41092896  0.34881428  1.0
  H  H31  1  0.58446738  0.91093564  0.15118302  1.0
  H  H32  1  0.78286436  0.36135232  0.92115315  1.0
  H  H33  1  0.28286478  0.86135178  0.57884596  1.0
  H  H34  1  0.71713580  0.36135412  0.42115269  1.0
  H  H35  1  0.21713544  0.86135160  0.07884681  1.0
  H  H36  1  0.76195434  0.33817041  0.85499853  1.0
  H  H37  1  0.26195663  0.83817011  0.64500066  1.0
  H  H38  1  0.73804474  0.33817420  0.35499707  1.0
  H  H39  1  0.23804625  0.83817589  0.14500227  1.0
  H  H40  1  0.83307946  0.17608909  0.78422336  1.0
  H  H41  1  0.33307889  0.67608970  0.71577560  1.0
  H  H42  1  0.66692031  0.17608894  0.28421882  1.0
  H  H43  1  0.16692206  0.67608889  0.21578026  1.0
  H  H44  1  0.71125230  0.16614270  0.79086355  1.0
  H  H45  1  0.21125184  0.66614328  0.70913699  1.0
  H  H46  1  0.78874737  0.16614578  0.29086048  1.0
  H  H47  1  0.28874924  0.66614571  0.20913742  1.0
  H  H48  1  0.02186757  0.25375981  0.87138019  1.0
  H  H49  1  0.52187057  0.75376042  0.62861898  1.0
  H  H50  1  0.47812623  0.25376010  0.37138257  1.0
  H  H51  1  0.97812691  0.75376005  0.12861916  1.0
  H  H52  1  0.01368375  0.15224249  0.85647623  1.0
  H  H53  1  0.51368415  0.65224382  0.64352284  1.0
  H  H54  1  0.48631042  0.15224610  0.35647417  1.0
  H  H55  1  0.98631315  0.65224544  0.14352823  1.0
  Pd  Pd56  1  0.54337144  0.31572952  0.76266216  1.0
  Pd  Pd57  1  0.04337046  0.81573020  0.73733917  1.0
  Pd  Pd58  1  0.95663713  0.31573049  0.26266203  1.0
  Pd  Pd59  1  0.45663305  0.81573184  0.23733422  1.0
  C  C60  1  0.44112278  0.36350630  0.93701464  1.0
  C  C61  1  0.94111073  0.86350004  0.56298791  1.0
  C  C62  1  0.05888209  0.36350091  0.43701512  1.0
  C  C63  1  0.55887547  0.86350661  0.06298445  1.0
  C  C64  1  0.45549515  0.36310546  0.87639241  1.0
  C  C65  1  0.95548352  0.86310074  0.62361225  1.0
  C  C66  1  0.04451473  0.36310274  0.37639253  1.0
  C  C67  1  0.54450853  0.86310666  0.12360492  1.0
  C  C68  1  0.36986715  0.43094245  0.96393988  1.0
  C  C69  1  0.86985870  0.93093742  0.53606451  1.0
  C  C70  1  0.13013561  0.43094100  0.46394037  1.0
  C  C71  1  0.63013336  0.93094395  0.03606019  1.0
  C  C72  1  0.49697692  0.30400576  0.97166689  1.0
  C  C73  1  0.99696940  0.80400403  0.52833656  1.0
  C  C74  1  0.00302426  0.30400107  0.47166375  1.0
  C  C75  1  0.50302293  0.80400466  0.02833298  1.0
  C  C76  1  0.62656029  0.17845865  0.97722737  1.0
  C  C77  1  0.12655866  0.67846125  0.52277369  1.0
  C  C78  1  0.87343899  0.17845370  0.47722336  1.0
  C  C79  1  0.37343968  0.67845630  0.02277143  1.0
  C  C80  1  0.46674427  0.41386527  0.59413520  1.0
  C  C81  1  0.96674444  0.91386553  0.90586815  1.0
  C  C82  1  0.03325841  0.41386921  0.09413540  1.0
  C  C83  1  0.53325858  0.91386614  0.40586133  1.0
  C  C84  1  0.50496099  0.35175887  0.55421095  1.0
  C  C85  1  0.00496311  0.85176161  0.94579154  1.0
  C  C86  1  0.99503360  0.35176646  0.05421148  1.0
  C  C87  1  0.49503649  0.85176389  0.44578461  1.0
  C  C88  1  0.60955552  0.21331597  0.53383465  1.0
  C  C89  1  0.10955648  0.71331746  0.96616481  1.0
  C  C90  1  0.89043958  0.21331699  0.03383974  1.0
  C  C91  1  0.39044442  0.71331316  0.46616069  1.0
  C  C92  1  0.56349110  0.28064315  0.57500746  1.0
  C  C93  1  0.06349360  0.78064715  0.92499457  1.0
  C  C94  1  0.93650008  0.28065078  0.07500921  1.0
  C  C95  1  0.43650646  0.78064614  0.42499106  1.0
  C  C96  1  0.57122900  0.24558623  0.88300902  1.0
  C  C97  1  0.07122638  0.74558716  0.61699204  1.0
  C  C98  1  0.92877353  0.24558589  0.38300511  1.0
  C  C99  1  0.42877789  0.74558616  0.11699120  1.0
  C  C100  1  0.57990583  0.27232630  0.63533719  1.0
  C  C101  1  0.07990790  0.77232942  0.86466430  1.0
  C  C102  1  0.92009276  0.27233727  0.13533903  1.0
  C  C103  1  0.42009638  0.77233175  0.36466044  1.0
  C  C104  1  0.56318933  0.24388573  0.94385130  1.0
  C  C105  1  0.06318785  0.74388711  0.55615068  1.0
  C  C106  1  0.93680508  0.24388140  0.44384954  1.0
  C  C107  1  0.43681213  0.74387880  0.05614804  1.0
  C  C108  1  0.48633621  0.40171857  0.65358989  1.0
  C  C109  1  0.98633749  0.90171928  0.84641245  1.0
  C  C110  1  0.01366538  0.40172119  0.15358976  1.0
  C  C111  1  0.51366510  0.90171990  0.34641013  1.0
  C  C112  1  0.40442399  0.49208313  0.57355396  1.0
  C  C113  1  0.90442377  0.99208346  0.92644900  1.0
  C  C114  1  0.09557668  0.49208636  0.07355554  1.0
  C  C115  1  0.59557569  0.99208469  0.42644488  1.0
  N  N116  1  0.52073501  0.30546756  0.85000685  1.0
  N  N117  1  0.02072945  0.80546529  0.64999679  1.0
  N  N118  1  0.97927427  0.30546586  0.35000396  1.0
  N  N119  1  0.47927027  0.80546890  0.14999302  1.0
  N  N120  1  0.54107228  0.33152193  0.67384983  1.0
  N  N121  1  0.04107352  0.83152293  0.82615198  1.0
  N  N122  1  0.95893251  0.33152822  0.17385232  1.0
  N  N123  1  0.45893220  0.83152523  0.32614658  1.0
  Cl  Cl124  1  0.56888728  0.46648198  0.77590725  1.0
  Cl  Cl125  1  0.06888423  0.96648262  0.72409372  1.0
  Cl  Cl126  1  0.93112013  0.46648230  0.27591210  1.0
  Cl  Cl127  1  0.43111474  0.96648361  0.22408805  1.0
  Cl  Cl128  1  0.55266607  0.16155524  0.75442469  1.0
  Cl  Cl129  1  0.05266261  0.66155596  0.74557811  1.0
  Cl  Cl130  1  0.94734435  0.16155489  0.25442111  1.0
  Cl  Cl131  1  0.44733934  0.66155561  0.24557234  1.0
  O  O132  1  0.65569915  0.14850692  0.55782487  1.0
  O  O133  1  0.15569436  0.64850566  0.94217291  1.0
  O  O134  1  0.84430486  0.14850398  0.05783198  1.0
  O  O135  1  0.34430705  0.64850206  0.44216994  1.0
  O  O136  1  0.37014323  0.48724108  0.52180092  1.0
  O  O137  1  0.87014438  0.98724358  0.97820180  1.0
  O  O138  1  0.12985685  0.48724561  0.02180185  1.0
  O  O139  1  0.62985257  0.98724412  0.47819879  1.0
  O  O140  1  0.30765861  0.47125387  0.92808952  1.0
  O  O141  1  0.80764795  0.97125096  0.57191311  1.0
  O  O142  1  0.19234555  0.47125237  0.42809008  1.0
  O  O143  1  0.69233876  0.97125810  0.07191192  1.0
  O  O144  1  0.70299089  0.13933335  0.94864371  1.0
  O  O145  1  0.20298717  0.63933339  0.55135640  1.0
  O  O146  1  0.79700664  0.13932580  0.44863752  1.0
  O  O147  1  0.29700834  0.63932717  0.05135766  1.0
  O  O148  1  0.60799799  0.16079370  0.02925499  1.0
  O  O149  1  0.10799499  0.66079387  0.47074792  1.0
  O  O150  1  0.89200113  0.16077453  0.52924735  1.0
  O  O151  1  0.39199735  0.66078468  0.97074510  1.0
  O  O152  1  0.37425196  0.44594387  0.01781000  1.0
  O  O153  1  0.87424838  0.94594240  0.48219395  1.0
  O  O154  1  0.12574901  0.44594350  0.51781096  1.0
  O  O155  1  0.62574776  0.94594867  0.98219096  1.0
  O  O156  1  0.39285008  0.55614997  0.60979785  1.0
  O  O157  1  0.89285101  0.05614840  0.89020451  1.0
  O  O158  1  0.10715683  0.55614986  0.10980243  1.0
  O  O159  1  0.60715156  0.05614962  0.39019857  1.0
  O  O160  1  0.59840559  0.22850902  0.47912901  1.0
  O  O161  1  0.09841329  0.72851227  0.02087099  1.0
  O  O162  1  0.90157733  0.22851576  0.97913183  1.0
  O  O163  1  0.40158736  0.72851038  0.52086899  1.0
  O  O164  1  0.77577100  0.18466196  0.81133176  1.0
  O  O165  1  0.27577016  0.68466381  0.68866755  1.0
  O  O166  1  0.72422749  0.18467107  0.31132644  1.0
  O  O167  1  0.22422974  0.68466827  0.18867144  1.0
  O  O168  1  0.80461689  0.32334349  0.88895206  1.0
  O  O169  1  0.30461903  0.82334374  0.61104685  1.0
  O  O170  1  0.69538623  0.32334332  0.38895217  1.0
  O  O171  1  0.19538605  0.82334423  0.11104915  1.0
  O  O172  1  0.97767948  0.20911306  0.85325257  1.0
  O  O173  1  0.47768097  0.70911609  0.64674690  1.0
  O  O174  1  0.52231123  0.20911966  0.35324713  1.0
  O  O175  1  0.02231426  0.70911937  0.14675198  1.0
