# generated using pymatgen
data_MgH6C12N2O3
_symmetry_space_group_name_H-M   'P 1'
_cell_length_a   6.94921296
_cell_length_b   35.74213883
_cell_length_c   35.73959211
_cell_angle_alpha   119.58671499
_cell_angle_beta   93.71509138
_cell_angle_gamma   93.71918528
_symmetry_Int_Tables_number   1
_chemical_formula_structural   MgH6C12N2O3
_chemical_formula_sum   'Mg6 H36 C72 N12 O18'
_cell_volume   7655.15793608
_cell_formula_units_Z   6
loop_
 _symmetry_equiv_pos_site_id
 _symmetry_equiv_pos_as_xyz
  1  'x, y, z'
loop_
 _atom_site_type_symbol
 _atom_site_label
 _atom_site_symmetry_multiplicity
 _atom_site_fract_x
 _atom_site_fract_y
 _atom_site_fract_z
 _atom_site_occupancy
  Mg  Mg0  1  0.85344067  0.69344024  0.32873415  1.0
  Mg  Mg1  1  0.52472750  0.67127313  0.36472794  1.0
  Mg  Mg2  1  0.15995625  0.63528687  0.30656232  1.0
  Mg  Mg3  1  0.14655842  0.30655976  0.67126585  1.0
  Mg  Mg4  1  0.47527159  0.32872687  0.63527206  1.0
  Mg  Mg5  1  0.84004284  0.36471313  0.69343769  1.0
  H  H6  1  0.62214241  0.42007843  0.81560797  1.0
  H  H7  1  0.08603021  0.43841401  0.87243334  1.0
  H  H8  1  0.90389829  0.39195426  0.79919427  1.0
  H  H9  1  0.95476525  0.42699269  0.91750916  1.0
  H  H10  1  0.26031610  0.43842807  0.96446195  1.0
  H  H11  1  0.46492085  0.48130869  0.03553355  1.0
  H  H12  1  0.80650501  0.18438614  0.60446031  1.0
  H  H13  1  0.21351613  0.12756489  0.56597817  1.0
  H  H14  1  0.10466142  0.20081001  0.59277631  1.0
  H  H15  1  0.03722837  0.08248908  0.50949276  1.0
  H  H16  1  0.29587120  0.03554445  0.47396583  1.0
  H  H17  1  0.42942485  0.96448347  0.44578231  1.0
  H  H18  1  0.20210239  0.39553886  0.57992341  1.0
  H  H19  1  0.64762769  0.43402212  0.56159143  1.0
  H  H20  1  0.51195183  0.40722843  0.60803344  1.0
  H  H21  1  0.52779835  0.49051092  0.57300227  1.0
  H  H22  1  0.82190421  0.52603609  0.56157124  1.0
  H  H23  1  0.98362267  0.55421348  0.51868805  1.0
  H  H24  1  0.37785812  0.57992157  0.18439177  1.0
  H  H25  1  0.91397032  0.56158599  0.12756668  1.0
  H  H26  1  0.09610096  0.60804607  0.20080590  1.0
  H  H27  1  0.04523384  0.57300732  0.08249085  1.0
  H  H28  1  0.73968299  0.56157193  0.03553805  1.0
  H  H29  1  0.53507840  0.51869163  0.96446662  1.0
  H  H30  1  0.19349408  0.81561387  0.39553970  1.0
  H  H31  1  0.78648440  0.87243512  0.43402186  1.0
  H  H32  1  0.89533894  0.79918967  0.40722383  1.0
  H  H33  1  0.96277217  0.91751092  0.49050726  1.0
  H  H34  1  0.70412950  0.96445587  0.52603435  1.0
  H  H35  1  0.57057568  0.03551653  0.55421771  1.0
  H  H36  1  0.79789670  0.60446114  0.42007659  1.0
  H  H37  1  0.35237139  0.56597789  0.43840858  1.0
  H  H38  1  0.48804870  0.59277157  0.39196658  1.0
  H  H39  1  0.47220218  0.50948908  0.42699804  1.0
  H  H40  1  0.17809648  0.47396423  0.43842894  1.0
  H  H41  1  0.01637658  0.44578684  0.48131212  1.0
  C  C42  1  0.47909213  0.37626234  0.73341674  1.0
  C  C43  1  0.36521740  0.38881369  0.77045726  1.0
  C  C44  1  0.46517254  0.41299077  0.81208124  1.0
  C  C45  1  0.36741612  0.42939157  0.84900478  1.0
  C  C46  1  0.16297364  0.42341787  0.84378518  1.0
  C  C47  1  0.06158432  0.39801738  0.80312471  1.0
  C  C48  1  0.15772894  0.37880932  0.76538014  1.0
  C  C49  1  0.73687945  0.47067961  0.93675801  1.0
  C  C50  1  0.91181744  0.45687547  0.94349043  1.0
  C  C51  1  0.03134289  0.48056771  0.98311934  1.0
  C  C52  1  0.21254904  0.46752122  0.99063726  1.0
  C  C53  1  0.32621841  0.49105686  0.02959256  1.0
  C  C54  1  0.74563634  0.26656201  0.64284008  1.0
  C  C55  1  0.59470878  0.22952324  0.61835806  1.0
  C  C56  1  0.65304859  0.18790218  0.60089653  1.0
  C  C57  1  0.51832570  0.15098122  0.58036614  1.0
  C  C58  1  0.31910478  0.15621134  0.57962127  1.0
  C  C59  1  0.25840541  0.19687367  0.59490900  1.0
  C  C60  1  0.39231922  0.23460650  0.61343884  1.0
  C  C61  1  0.80002014  0.06323437  0.53392055  1.0
  C  C62  1  0.96827765  0.05651092  0.51339819  1.0
  C  C63  1  0.04820494  0.01689092  0.49745633  1.0
  C  C64  1  0.22192202  0.00937756  0.47689539  1.0
  C  C65  1  0.29668967  0.97042735  0.46147889  1.0
  C  C66  1  0.10275714  0.35718103  0.62374085  1.0
  C  C67  1  0.97638867  0.38165453  0.61117206  1.0
  C  C68  1  0.05222099  0.39911175  0.58701207  1.0
  C  C69  1  0.93805629  0.41963381  0.57061368  1.0
  C  C70  1  0.73959724  0.42038521  0.57659445  1.0
  C  C71  1  0.66355191  0.40508818  0.60195724  1.0
  C  C72  1  0.77887415  0.38654716  0.62115125  1.0
  C  C73  1  0.26614856  0.46609768  0.52933485  1.0
  C  C74  1  0.45494309  0.48660891  0.54311998  1.0
  C  C75  1  0.55076443  0.50254619  0.51943147  1.0
  C  C76  1  0.74504199  0.52309821  0.53246869  1.0
  C  C77  1  0.83520827  0.53850355  0.50892472  1.0
  C  C78  1  0.52090840  0.62373766  0.26658328  1.0
  C  C79  1  0.63478169  0.61118631  0.22954275  1.0
  C  C80  1  0.53482799  0.58700923  0.18791850  1.0
  C  C81  1  0.63258441  0.57060843  0.15099524  1.0
  C  C82  1  0.83702689  0.57658214  0.15621456  1.0
  C  C83  1  0.93841621  0.60198262  0.19687503  1.0
  C  C84  1  0.84227015  0.62119069  0.23461986  1.0
  C  C85  1  0.26311964  0.52932040  0.06324199  1.0
  C  C86  1  0.08818148  0.54312420  0.05650914  1.0
  C  C87  1  0.96865908  0.51943230  0.01688014  1.0
  C  C88  1  0.78745293  0.53247878  0.00936251  1.0
  C  C89  1  0.67378213  0.50894314  0.97040746  1.0
  C  C90  1  0.25436275  0.73343799  0.35715992  1.0
  C  C91  1  0.40529031  0.77047676  0.38164195  1.0
  C  C92  1  0.34695050  0.81209782  0.39910348  1.0
  C  C93  1  0.48167483  0.84901879  0.41963388  1.0
  C  C94  1  0.68089575  0.84378866  0.42037931  1.0
  C  C95  1  0.74159512  0.80312633  0.40509159  1.0
  C  C96  1  0.60767987  0.76539350  0.38656144  1.0
  C  C97  1  0.19997895  0.93676564  0.46607917  1.0
  C  C98  1  0.03172144  0.94348909  0.48660181  1.0
  C  C99  1  0.95179559  0.98310908  0.50254342  1.0
  C  C100  1  0.77807851  0.99062244  0.52310436  1.0
  C  C101  1  0.70330942  0.02957266  0.53852111  1.0
  C  C102  1  0.89724355  0.64281930  0.37625933  1.0
  C  C103  1  0.02361203  0.61834580  0.38882813  1.0
  C  C104  1  0.94777971  0.60088858  0.41298811  1.0
  C  C105  1  0.06194296  0.58036651  0.42938649  1.0
  C  C106  1  0.26040329  0.57961479  0.42340557  1.0
  C  C107  1  0.33644718  0.59491183  0.39804277  1.0
  C  C108  1  0.22112494  0.61345284  0.37884876  1.0
  C  C109  1  0.73385037  0.53390200  0.47066527  1.0
  C  C110  1  0.54505600  0.51339110  0.45688031  1.0
  C  C111  1  0.44923466  0.49745381  0.48056881  1.0
  C  C112  1  0.25495565  0.47690179  0.46753157  1.0
  C  C113  1  0.16479082  0.46149646  0.49107557  1.0
  N  N114  1  0.46087798  0.45299011  0.89153128  1.0
  N  N115  1  0.63512043  0.44523732  0.89518723  1.0
  N  N116  1  0.56924196  0.10846035  0.56144733  1.0
  N  N117  1  0.73985323  0.10480290  0.55005078  1.0
  N  N118  1  0.00787028  0.43855145  0.54701242  1.0
  N  N119  1  0.18987233  0.44995858  0.55476415  1.0
  N  N120  1  0.53912255  0.54700989  0.10846874  1.0
  N  N121  1  0.36487882  0.55476301  0.10481294  1.0
  N  N122  1  0.43075857  0.89153965  0.43855242  1.0
  N  N123  1  0.26014586  0.89519710  0.44994894  1.0
  N  N124  1  0.99213025  0.56144855  0.45298760  1.0
  N  N125  1  0.81012676  0.55004142  0.44523586  1.0
  O  O126  1  0.34311473  0.60919323  0.26108830  1.0
  O  O127  1  0.60724626  0.64996285  0.30500760  1.0
  O  O128  1  0.94761660  0.64683260  0.27291442  1.0
  O  O129  1  0.08206377  0.73893338  0.34810888  1.0
  O  O130  1  0.30220124  0.69501541  0.34497989  1.0
  O  O131  1  0.67466986  0.72709405  0.37391111  1.0
  O  O132  1  0.73402584  0.65188061  0.39081281  1.0
  O  O133  1  0.95731129  0.65502052  0.35003398  1.0
  O  O134  1  0.30074966  0.62610681  0.35320123  1.0
  O  O135  1  0.65688581  0.39080678  0.73891172  1.0
  O  O136  1  0.39275266  0.35003682  0.69499196  1.0
  O  O137  1  0.05238393  0.35316740  0.72708560  1.0
  O  O138  1  0.91793692  0.26106694  0.65189130  1.0
  O  O139  1  0.69779785  0.30498459  0.65502011  1.0
  O  O140  1  0.32532923  0.27290596  0.62608889  1.0
  O  O141  1  0.26597485  0.34811972  0.60918737  1.0
  O  O142  1  0.04268780  0.34497949  0.64996574  1.0
  O  O143  1  0.69925087  0.37389319  0.64679880  1.0
