# generated using pymatgen
data_AlH24C45(NO4)3
_symmetry_space_group_name_H-M   'P 1'
_cell_length_a   3.99493255
_cell_length_b   23.55258128
_cell_length_c   23.58667218
_cell_angle_alpha   60.07003663
_cell_angle_beta   89.73204463
_cell_angle_gamma   87.84707781
_symmetry_Int_Tables_number   1
_chemical_formula_structural   AlH24C45(NO4)3
_chemical_formula_sum   'Al1 H24 C45 N3 O12'
_cell_volume   1921.70784442
_cell_formula_units_Z   1
loop_
 _symmetry_equiv_pos_site_id
 _symmetry_equiv_pos_as_xyz
  1  'x, y, z'
loop_
 _atom_site_type_symbol
 _atom_site_label
 _atom_site_symmetry_multiplicity
 _atom_site_fract_x
 _atom_site_fract_y
 _atom_site_fract_z
 _atom_site_occupancy
  Al  Al0  1  0.04161361  0.99870994  0.50037636  1.0
  H  H1  1  0.58269762  0.99517962  0.67993683  1.0
  H  H2  1  0.55937544  0.04896092  0.74532851  1.0
  H  H3  1  0.74043424  0.17424937  0.84520937  1.0
  H  H4  1  0.48765219  0.00283893  0.31390912  1.0
  H  H5  1  0.53193930  0.06720289  0.19415324  1.0
  H  H6  1  0.27223728  0.12474140  0.11074630  1.0
  H  H7  1  0.23646169  0.17823164  0.99243741  1.0
  H  H8  1  0.46298443  0.21177499  0.89667113  1.0
  H  H9  1  0.57791261  0.17843288  0.32492375  1.0
  H  H10  1  0.55281170  0.24439842  0.20599017  1.0
  H  H11  1  0.73166348  0.34329174  0.98033924  1.0
  H  H12  1  0.56651367  0.81302255  0.68292048  1.0
  H  H13  1  0.61287440  0.69227498  0.73866801  1.0
  H  H14  1  0.30228798  0.61416548  0.76273810  1.0
  H  H15  1  0.24934046  0.49598988  0.82795052  1.0
  H  H16  1  0.48797717  0.39662622  0.89165710  1.0
  H  H17  1  0.58373786  0.82167935  0.49639116  1.0
  H  H18  1  0.57083819  0.70210964  0.55100294  1.0
  H  H19  1  0.78428106  0.47413796  0.68039835  1.0
  H  H20  1  0.47515080  0.18226000  0.50348804  1.0
  H  H21  1  0.51710979  0.23775716  0.56798390  1.0
  H  H22  1  0.25177337  0.26600583  0.62401434  1.0
  H  H23  1  0.21815321  0.33133528  0.67760264  1.0
  H  H24  1  0.48672965  0.39122411  0.71222948  1.0
  C  C25  1  0.52985468  0.04962638  0.55000306  1.0
  C  C26  1  0.56190472  0.89812121  0.55085475  1.0
  C  C27  1  0.53332143  0.04855017  0.40002773  1.0
  C  C28  1  0.56221674  0.04851188  0.65569602  1.0
  C  C29  1  0.55791866  0.07952773  0.69255054  1.0
  C  C30  1  0.65621483  0.15990108  0.76445151  1.0
  C  C31  1  0.63101574  0.19615878  0.79625858  1.0
  C  C32  1  0.51116931  0.05579033  0.28977670  1.0
  C  C33  1  0.53021576  0.09279902  0.22195498  1.0
  C  C34  1  0.38857841  0.17172554  0.08238396  1.0
  C  C35  1  0.36459847  0.20260355  0.01460609  1.0
  C  C36  1  0.52896913  0.08499524  0.58751866  1.0
  C  C37  1  0.54291012  0.14834867  0.66249940  1.0
  C  C38  1  0.53461217  0.18354851  0.69994872  1.0
  C  C39  1  0.48322552  0.25934282  0.76596699  1.0
  C  C40  1  0.47215300  0.29727369  0.80041528  1.0
  C  C41  1  0.46747858  0.26511472  0.86901385  1.0
  C  C42  1  0.56148860  0.15444047  0.29576563  1.0
  C  C43  1  0.55675896  0.19153110  0.22802095  1.0
  C  C44  1  0.65336292  0.26327346  0.07541265  1.0
  C  C45  1  0.62853731  0.29492012  0.00751818  1.0
  C  C46  1  0.57571330  0.78825507  0.65430478  1.0
  C  C47  1  0.59655235  0.72010199  0.68538247  1.0
  C  C48  1  0.42217165  0.58328022  0.74562135  1.0
  C  C49  1  0.38876375  0.51590456  0.78255045  1.0
  C  C50  1  0.53358494  0.08640194  0.32731630  1.0
  C  C51  1  0.54830340  0.16165557  0.18918992  1.0
  C  C52  1  0.54087380  0.19927910  0.11663531  1.0
  C  C53  1  0.48828398  0.26541009  0.97499689  1.0
  C  C54  1  0.47457346  0.30000732  0.90273767  1.0
  C  C55  1  0.48152611  0.36864666  0.86630365  1.0
  C  C56  1  0.58597426  0.79294058  0.54966154  1.0
  C  C57  1  0.58653592  0.72503439  0.58090583  1.0
  C  C58  1  0.71015166  0.57103144  0.66384506  1.0
  C  C59  1  0.67497663  0.50356098  0.70007168  1.0
  C  C60  1  0.50141858  0.15339472  0.55659579  1.0
  C  C61  1  0.51958685  0.18434636  0.59360674  1.0
  C  C62  1  0.37392564  0.24647745  0.67167865  1.0
  C  C63  1  0.35096813  0.28360048  0.70254474  1.0
  C  C64  1  0.57528366  0.82515279  0.58599563  1.0
  C  C65  1  0.59731613  0.68687193  0.64956759  1.0
  C  C66  1  0.58813747  0.61439301  0.68510230  1.0
  C  C67  1  0.51628199  0.47403985  0.76046014  1.0
  C  C68  1  0.48808346  0.40214134  0.79785425  1.0
  C  C69  1  0.48053845  0.36580364  0.76550748  1.0
  N  N70  1  0.89341080  0.59184997  0.60237690  1.0
  N  N71  1  0.82857755  0.09516164  0.80500860  1.0
  N  N72  1  0.81300752  0.30367527  0.09878676  1.0
  O  O73  1  0.30592266  0.00727350  0.42822106  1.0
  O  O74  1  0.29168210  0.06247359  0.50899580  1.0
  O  O75  1  0.32109239  0.92690725  0.56363726  1.0
  O  O76  1  0.76253685  0.06107568  0.42924993  1.0
  O  O77  1  0.79138345  0.92673318  0.50953949  1.0
  O  O78  1  0.77102485  0.00768748  0.56267412  1.0
  O  O79  1  0.08674331  0.63743155  0.58425239  1.0
  O  O80  1  0.84909663  0.56080897  0.57351070  1.0
  O  O81  1  0.05071284  0.07762291  0.77962145  1.0
  O  O82  1  0.74499665  0.06336107  0.86298907  1.0
  O  O83  1  0.03171822  0.27740606  0.14222899  1.0
  O  O84  1  0.72288736  0.36244348  0.07147645  1.0
