# generated using pymatgen
data_Zn2H26C33(NO4)2
_symmetry_space_group_name_H-M   'P 1'
_cell_length_a   9.64621544
_cell_length_b   11.02314976
_cell_length_c   13.38801635
_cell_angle_alpha   89.85815206
_cell_angle_beta   70.62604553
_cell_angle_gamma   89.15268870
_symmetry_Int_Tables_number   1
_chemical_formula_structural   Zn2H26C33(NO4)2
_chemical_formula_sum   'Zn2 H26 C33 N2 O8'
_cell_volume   1342.80721036
_cell_formula_units_Z   1
loop_
 _symmetry_equiv_pos_site_id
 _symmetry_equiv_pos_as_xyz
  1  'x, y, z'
loop_
 _atom_site_type_symbol
 _atom_site_label
 _atom_site_symmetry_multiplicity
 _atom_site_fract_x
 _atom_site_fract_y
 _atom_site_fract_z
 _atom_site_occupancy
  Zn  Zn0  1  0.12178722  0.48082090  0.51127202  1.0
  Zn  Zn1  1  0.86336959  0.48616648  0.46233759  1.0
  H  H2  1  0.04810852  0.64017182  0.14204453  1.0
  H  H3  1  0.94706031  0.25779118  0.80623691  1.0
  H  H4  1  0.54732730  0.27642050  0.07136122  1.0
  H  H5  1  0.77973225  0.17417185  0.97799326  1.0
  H  H6  1  0.68113236  0.59479268  0.73057098  1.0
  H  H7  1  0.81571288  0.86344664  0.45732515  1.0
  H  H8  1  0.15968454  0.87372765  0.77923965  1.0
  H  H9  1  0.03351999  0.99746002  0.81668768  1.0
  H  H10  1  0.99851069  0.86152321  0.89188799  1.0
  H  H11  1  0.84184753  0.87249243  0.77446521  1.0
  H  H12  1  0.96706430  0.74866388  0.73835354  1.0
  H  H13  1  0.77426170  0.08932932  0.48182585  1.0
  H  H14  1  0.13861336  0.87607788  0.59478636  1.0
  H  H15  1  0.00981257  0.99783128  0.63035584  1.0
  H  H16  1  0.61067449  0.54692645  0.15655975  1.0
  H  H17  1  0.75406484  0.43695527  0.25281364  1.0
  H  H18  1  0.65779868  0.24547798  0.34901283  1.0
  H  H19  1  0.41050732  0.17137430  0.35461158  1.0
  H  H20  1  0.27237598  0.27907233  0.25449644  1.0
  H  H21  1  0.09885050  0.07868134  0.46823642  1.0
  H  H22  1  0.31047324  0.57171761  0.64511909  1.0
  H  H23  1  0.41187457  0.46669253  0.43112944  1.0
  H  H24  1  0.58406822  0.62793445  0.58794624  1.0
  H  H25  1  0.60375428  0.41847794  0.44935175  1.0
  H  H26  1  0.43340595  0.68461662  0.81488889  1.0
  H  H27  1  0.20115552  0.69221025  0.95645638  1.0
  C  C28  1  0.98803368  0.25027107  0.45932538  1.0
  C  C29  1  0.79708503  0.40123380  0.80222763  1.0
  C  C30  1  0.87595880  0.91544630  0.49871239  1.0
  C  C31  1  0.88923224  0.43216834  0.69112481  1.0
  C  C32  1  0.94498691  0.84911804  0.55417156  1.0
  C  C33  1  0.87536648  0.04590640  0.48532072  1.0
  C  C34  1  0.99320372  0.11691628  0.46999338  1.0
  C  C35  1  0.38759076  0.53946888  0.56938152  1.0
  C  C36  1  0.54702098  0.55514074  0.54774833  1.0
  C  C37  1  0.95221596  0.71433748  0.53638012  1.0
  C  C38  1  0.13020439  0.52434537  0.28581368  1.0
  C  C39  1  0.57394281  0.42407378  0.95927632  1.0
  C  C40  1  0.24249313  0.62974687  0.00380272  1.0
  C  C41  1  0.21982007  0.53295182  0.17030872  1.0
  C  C42  1  0.84231307  0.30218094  0.84848899  1.0
  C  C43  1  0.74947533  0.25689033  0.94488681  1.0
  C  C44  1  0.61811731  0.31588910  0.99830265  1.0
  C  C45  1  0.02020546  0.89843162  0.62712811  1.0
  C  C46  1  0.95948020  0.84830645  0.74056551  1.0
  C  C47  1  0.04195135  0.89786350  0.81109828  1.0
  C  C48  1  0.43331826  0.41920462  0.19709178  1.0
  C  C49  1  0.56727141  0.46452685  0.20028047  1.0
  C  C50  1  0.66199024  0.46327255  0.85571088  1.0
  C  C51  1  0.64754279  0.40279413  0.25459931  1.0
  C  C52  1  0.59279017  0.29558802  0.30914469  1.0
  C  C53  1  0.45598427  0.25312463  0.31067567  1.0
  C  C54  1  0.37727107  0.31419316  0.25477919  1.0
  C  C55  1  0.43945588  0.49203289  0.01657270  1.0
  C  C56  1  0.38374562  0.57711756  0.95791332  1.0
  C  C57  1  0.47449834  0.61247797  0.85426268  1.0
  C  C58  1  0.61089312  0.56275893  0.80732681  1.0
  C  C59  1  0.36084819  0.48035403  0.12766654  1.0
  C  C60  1  0.15880345  0.60292679  0.10643063  1.0
  N  N61  1  0.33571329  0.49134881  0.50287678  1.0
  N  N62  1  0.64423808  0.48727180  0.48322663  1.0
  O  O63  1  0.09908250  0.30594603  0.46808635  1.0
  O  O64  1  0.87668644  0.30057227  0.44434054  1.0
  O  O65  1  0.02839743  0.43360126  0.66861916  1.0
  O  O66  1  0.82139695  0.45039767  0.62535255  1.0
  O  O67  1  0.05818635  0.65801592  0.55381644  1.0
  O  O68  1  0.85765931  0.66632596  0.50127631  1.0
  O  O69  1  0.19631664  0.53468576  0.35285898  1.0
  O  O70  1  0.99196462  0.50958949  0.30797392  1.0
