# generated using pymatgen
data_Zn8H72C99O38
_symmetry_space_group_name_H-M   'P 1'
_cell_length_a   26.86379136
_cell_length_b   26.86379092
_cell_length_c   33.07127797
_cell_angle_alpha   66.03291061
_cell_angle_beta   66.03289232
_cell_angle_gamma   59.99614417
_symmetry_Int_Tables_number   1
_chemical_formula_structural   Zn8H72C99O38
_chemical_formula_sum   'Zn16 H144 C198 O76'
_cell_volume   18253.49306052
_cell_formula_units_Z   2
loop_
 _symmetry_equiv_pos_site_id
 _symmetry_equiv_pos_as_xyz
  1  'x, y, z'
loop_
 _atom_site_type_symbol
 _atom_site_label
 _atom_site_symmetry_multiplicity
 _atom_site_fract_x
 _atom_site_fract_y
 _atom_site_fract_z
 _atom_site_occupancy
  Zn  Zn0  1  0.90541939  0.76875726  0.50219326  1.0
  Zn  Zn1  1  0.76875964  0.82366480  0.50219341  1.0
  Zn  Zn2  1  0.82367082  0.90539487  0.50218957  1.0
  Zn  Zn3  1  0.67633580  0.73124050  0.99780594  1.0
  Zn  Zn4  1  0.59460538  0.67632945  0.99781017  1.0
  Zn  Zn5  1  0.73124285  0.59458058  0.99780628  1.0
  Zn  Zn6  1  0.09458061  0.23124285  0.49780710  1.0
  Zn  Zn7  1  0.23124036  0.17633531  0.49780664  1.0
  Zn  Zn8  1  0.17632919  0.09460524  0.49781049  1.0
  Zn  Zn9  1  0.32366421  0.26875961  0.00219411  1.0
  Zn  Zn10  1  0.40539485  0.32367111  0.00218937  1.0
  Zn  Zn11  1  0.26875733  0.40541908  0.00219356  1.0
  Zn  Zn12  1  0.86254793  0.86253052  0.41238738  1.0
  Zn  Zn13  1  0.63746913  0.63745261  0.08761212  1.0
  Zn  Zn14  1  0.13745208  0.13746959  0.58761268  1.0
  Zn  Zn15  1  0.36253069  0.36254794  0.91238755  1.0
  H  H16  1  0.00422636  0.76757878  0.31840782  1.0
  H  H17  1  0.07930676  0.67801065  0.43412163  1.0
  H  H18  1  0.09728214  0.70734804  0.27099375  1.0
  H  H19  1  0.17427912  0.61788497  0.38648404  1.0
  H  H20  1  0.19510721  0.65598627  0.23405682  1.0
  H  H21  1  0.15404328  0.60990696  0.26755676  1.0
  H  H22  1  0.26033291  0.51234216  0.31903995  1.0
  H  H23  1  0.29202623  0.46718004  0.27969617  1.0
  H  H24  1  0.10685898  0.47778190  0.33543957  1.0
  H  H25  1  0.28328882  0.41028510  0.35103123  1.0
  H  H26  1  0.09207473  0.38992981  0.39737706  1.0
  H  H27  1  0.26807119  0.32330875  0.41153688  1.0
  H  H28  1  0.76763979  0.90976277  0.31838951  1.0
  H  H29  1  0.67799057  0.80864218  0.43414252  1.0
  H  H30  1  0.70737669  0.92438824  0.27098155  1.0
  H  H31  1  0.61790291  0.82138910  0.38649615  1.0
  H  H32  1  0.65602758  0.91483895  0.23405888  1.0
  H  H33  1  0.60992988  0.96848896  0.26755021  1.0
  H  H34  1  0.51239205  0.90820822  0.31901131  1.0
  H  H35  1  0.46723357  0.96100796  0.27965793  1.0
  H  H36  1  0.47775288  0.07980309  0.33541592  1.0
  H  H37  1  0.41023061  0.95528021  0.35107111  1.0
  H  H38  1  0.38993927  0.12055140  0.39733410  1.0
  H  H39  1  0.32326889  0.99700926  0.41159100  1.0
  H  H40  1  0.90976478  0.00421360  0.31839894  1.0
  H  H41  1  0.80859965  0.07929375  0.43411986  1.0
  H  H42  1  0.92438586  0.09725339  0.27097988  1.0
  H  H43  1  0.82134357  0.17426842  0.38645884  1.0
  H  H44  1  0.91483738  0.19510098  0.23404027  1.0
  H  H45  1  0.96850974  0.15400699  0.26752057  1.0
  H  H46  1  0.90824410  0.26031828  0.31900862  1.0
  H  H47  1  0.96105886  0.29202315  0.27967831  1.0
  H  H48  1  0.07992142  0.10694579  0.33541431  1.0
  H  H49  1  0.95527264  0.28331897  0.35105509  1.0
  H  H50  1  0.12062762  0.09217557  0.39733214  1.0
  H  H51  1  0.99695614  0.26812814  0.41156400  1.0
  H  H52  1  0.59023584  0.73236235  0.18160891  1.0
  H  H53  1  0.69135846  0.82201088  0.06585666  1.0
  H  H54  1  0.57561053  0.79262448  0.22901745  1.0
  H  H55  1  0.67861151  0.88209712  0.11350383  1.0
  H  H56  1  0.58516022  0.84397226  0.26594073  1.0
  H  H57  1  0.53151051  0.89006962  0.23244974  1.0
  H  H58  1  0.59179138  0.98760754  0.18098888  1.0
  H  H59  1  0.53899145  0.03276619  0.22034227  1.0
  H  H60  1  0.42019645  0.02224705  0.16458390  1.0
  H  H61  1  0.54471948  0.08976921  0.14892929  1.0
  H  H62  1  0.37944783  0.11006173  0.10266578  1.0
  H  H63  1  0.50299080  0.17673083  0.08840932  1.0
  H  H64  1  0.49578633  0.59023385  0.18160050  1.0
  H  H65  1  0.42070466  0.69140002  0.06588038  1.0
  H  H66  1  0.40274694  0.57561221  0.22901962  1.0
  H  H67  1  0.32573105  0.67865655  0.11354121  1.0
  H  H68  1  0.30489996  0.58516255  0.26595903  1.0
  H  H69  1  0.34599339  0.53148958  0.23247911  1.0
  H  H70  1  0.23968188  0.59175519  0.18099177  1.0
  H  H71  1  0.20797773  0.53893999  0.22032199  1.0
  H  H72  1  0.39305502  0.42007825  0.16458552  1.0
  H  H73  1  0.21668124  0.54472622  0.14894543  1.0
  H  H74  1  0.40782568  0.37937222  0.10266718  1.0
  H  H75  1  0.23187248  0.50304298  0.08843659  1.0
  H  H76  1  0.73242132  0.49577347  0.18159035  1.0
  H  H77  1  0.82199065  0.42069191  0.06587710  1.0
  H  H78  1  0.79265142  0.40271892  0.22900480  1.0
  H  H79  1  0.88211616  0.32572031  0.11351539  1.0
  H  H80  1  0.84401300  0.30489362  0.26594277  1.0
  H  H81  1  0.89009261  0.34595738  0.23244308  1.0
  H  H82  1  0.98765771  0.23966719  0.18096026  1.0
  H  H83  1  0.03281910  0.20797405  0.22030433  1.0
  H  H84  1  0.02221819  0.39314019  0.16456071  1.0
  H  H85  1  0.08971448  0.21671097  0.14896838  1.0
  H  H86  1  0.11007018  0.40792512  0.10262362  1.0
  H  H87  1  0.17669102  0.23192899  0.08846283  1.0
  H  H88  1  0.99577341  0.23242088  0.68159216  1.0
  H  H89  1  0.92069325  0.32198946  0.56587812  1.0
  H  H90  1  0.90271745  0.29265207  0.72900614  1.0
  H  H91  1  0.82572071  0.38211558  0.61351563  1.0
  H  H92  1  0.80489320  0.34401384  0.76594311  1.0
  H  H93  1  0.84595713  0.39009315  0.73244316  1.0
  H  H94  1  0.73966750  0.48765795  0.68095967  1.0
  H  H95  1  0.70797377  0.53282007  0.72030358  1.0
  H  H96  1  0.89314085  0.52221866  0.66456040  1.0
  H  H97  1  0.71671118  0.58971501  0.64896853  1.0
  H  H98  1  0.90792509  0.61007075  0.60262290  1.0
  H  H99  1  0.73192899  0.67669091  0.58846296  1.0
  H  H100  1  0.23236039  0.09023690  0.68161063  1.0
  H  H101  1  0.32201019  0.19135704  0.56585697  1.0
  H  H102  1  0.29262332  0.07561187  0.72901850  1.0
  H  H103  1  0.38209727  0.17861056  0.61350369  1.0
  H  H104  1  0.34397242  0.08516116  0.76594118  1.0
  H  H105  1  0.39006989  0.03151071  0.73245007  1.0
  H  H106  1  0.48760795  0.09179189  0.68098845  1.0
  H  H107  1  0.53276661  0.03899171  0.72034191  1.0
  H  H108  1  0.52224712  0.92019702  0.66458384  1.0
  H  H109  1  0.58976899  0.04471990  0.64892908  1.0
  H  H110  1  0.61006132  0.87944826  0.60266591  1.0
  H  H111  1  0.67673111  0.00299085  0.58840936  1.0
  H  H112  1  0.09023482  0.99578651  0.68160095  1.0
  H  H113  1  0.19139995  0.92070636  0.56588003  1.0
  H  H114  1  0.07561455  0.90274672  0.72901974  1.0
  H  H115  1  0.17865602  0.82573169  0.61354105  1.0
  H  H116  1  0.08516303  0.80489913  0.76595905  1.0
  H  H117  1  0.03149067  0.84599312  0.73247874  1.0
  H  H118  1  0.09175572  0.73968227  0.68099104  1.0
  H  H119  1  0.03894096  0.70797741  0.72032135  1.0
  H  H120  1  0.92007881  0.89305476  0.66458582  1.0
  H  H121  1  0.04472654  0.71668114  0.64894554  1.0
  H  H122  1  0.87937285  0.90782543  0.60266747  1.0
  H  H123  1  0.00304328  0.73187242  0.58843671  1.0
  H  H124  1  0.40976376  0.26763776  0.81839128  1.0
  H  H125  1  0.30864114  0.17798923  0.93414353  1.0
  H  H126  1  0.42438965  0.20737518  0.77098270  1.0
  H  H127  1  0.32138926  0.11790211  0.88649657  1.0
  H  H128  1  0.41483978  0.15602785  0.73405902  1.0
  H  H129  1  0.46848967  0.10993004  0.76755010  1.0
  H  H130  1  0.40820903  0.01239258  0.81901105  1.0
  H  H131  1  0.46100855  0.96723392  0.77965748  1.0
  H  H132  1  0.57980379  0.97775350  0.83541563  1.0
  H  H133  1  0.45528093  0.91023090  0.85107063  1.0
  H  H134  1  0.62055164  0.88993972  0.89733431  1.0
  H  H135  1  0.49700943  0.82326972  0.91159112  1.0
  H  H136  1  0.50421385  0.40976582  0.81839934  1.0
  H  H137  1  0.57929552  0.30859964  0.93411947  1.0
  H  H138  1  0.59725342  0.42438701  0.77098091  1.0
  H  H139  1  0.67426936  0.32134356  0.88645902  1.0
  H  H140  1  0.69510045  0.41483756  0.73404089  1.0
  H  H141  1  0.65400679  0.46851009  0.76752103  1.0
  H  H142  1  0.76031754  0.40824537  0.81900833  1.0
  H  H143  1  0.79202227  0.46106012  0.77967807  1.0
  H  H144  1  0.60694499  0.57992186  0.83541453  1.0
  H  H145  1  0.78331854  0.45527345  0.85105485  1.0
  H  H146  1  0.59217450  0.62062745  0.89733266  1.0
  H  H147  1  0.76812788  0.49695624  0.91156364  1.0
  H  H148  1  0.26757886  0.50422620  0.81840949  1.0
  H  H149  1  0.17800917  0.57930864  0.93412256  1.0
  H  H150  1  0.20734858  0.59728119  0.77099465  1.0
  H  H151  1  0.11788366  0.67428024  0.88648397  1.0
  H  H152  1  0.15598700  0.69510649  0.73405698  1.0
  H  H153  1  0.10990739  0.65404273  0.76755637  1.0
  H  H154  1  0.01234270  0.76033292  0.81903966  1.0
  H  H155  1  0.96718050  0.79202606  0.77969586  1.0
  H  H156  1  0.97778194  0.60685859  0.83543944  1.0
  H  H157  1  0.91028565  0.78328780  0.85103178  1.0
  H  H158  1  0.88992977  0.59207410  0.89737675  1.0
  H  H159  1  0.82330916  0.76807068  0.91153701  1.0
  C  C160  1  0.97867039  0.76017376  0.40807444  1.0
  C  C161  1  0.03569996  0.72620892  0.37924414  1.0
  C  C162  1  0.04154543  0.73451537  0.33317533  1.0
  C  C163  1  0.08404507  0.68425158  0.39827663  1.0
  C  C164  1  0.09377756  0.70056407  0.30664488  1.0
  C  C165  1  0.13662416  0.65086657  0.37205709  1.0
  C  C166  1  0.14121708  0.65815660  0.32635144  1.0
  C  C167  1  0.19413843  0.61595365  0.26210397  1.0
  C  C168  1  0.25410521  0.50638354  0.29061080  1.0
  C  C169  1  0.19565045  0.44958820  0.33933326  1.0
  C  C170  1  0.14169857  0.44371381  0.35259024  1.0
  C  C171  1  0.24128299  0.40640112  0.36076813  1.0
  C  C172  1  0.13365936  0.39502992  0.38689865  1.0
  C  C173  1  0.23274954  0.35749106  0.39493645  1.0
  C  C174  1  0.17918203  0.35113657  0.40845976  1.0
  C  C175  1  0.17138532  0.29798493  0.44438490  1.0
  C  C176  1  0.76020858  0.85309387  0.40806212  1.0
  C  C177  1  0.72622732  0.85888042  0.37924491  1.0
  C  C178  1  0.73455440  0.89077168  0.33316191  1.0
  C  C179  1  0.68424676  0.83348860  0.39828827  1.0
  C  C180  1  0.70060843  0.89901172  0.30663501  1.0
  C  C181  1  0.65088122  0.84049143  0.37206254  1.0
  C  C182  1  0.65818970  0.87428370  0.32635146  1.0
  C  C183  1  0.61598489  0.92778728  0.26210359  1.0
  C  C184  1  0.50641310  0.94883354  0.29059142  1.0
  C  C185  1  0.44954496  0.01532728  0.33935863  1.0
  C  C186  1  0.44368523  0.06189418  0.35259543  1.0
  C  C187  1  0.40636842  0.99143192  0.36080288  1.0
  C  C188  1  0.39502092  0.08432039  0.38690105  1.0
  C  C189  1  0.35747352  0.01472265  0.39497817  1.0
  C  C190  1  0.35113415  0.06113068  0.40848591  1.0
  C  C191  1  0.29799349  0.08618308  0.44440971  1.0
  C  C192  1  0.85305716  0.97867485  0.40809003  1.0
  C  C193  1  0.85884856  0.03568877  0.37924235  1.0
  C  C194  1  0.89075175  0.04152852  0.33316631  1.0
  C  C195  1  0.83343900  0.08403886  0.39826772  1.0
  C  C196  1  0.89900194  0.09375719  0.30662939  1.0
  C  C197  1  0.84045125  0.13661498  0.37203254  1.0
  C  C198  1  0.87426613  0.14120379  0.32632801  1.0
  C  C199  1  0.92781663  0.19411586  0.26207585  1.0
  C  C200  1  0.94888210  0.25408999  0.29059753  1.0
  C  C201  1  0.01537226  0.19569383  0.33934995  1.0
  C  C202  1  0.06197328  0.14177099  0.35258071  1.0
  C  C203  1  0.99144393  0.24132731  0.36079315  1.0
  C  C204  1  0.08438602  0.13374896  0.38688194  1.0
  C  C205  1  0.01471844  0.23280640  0.39495744  1.0
  C  C206  1  0.06115484  0.17925630  0.40846250  1.0
  C  C207  1  0.08617379  0.17143709  0.44439861  1.0
  C  C208  1  0.64690708  0.73979174  0.09193703  1.0
  C  C209  1  0.64111906  0.77377370  0.12075390  1.0
  C  C210  1  0.60922731  0.76544716  0.16683688  1.0
  C  C211  1  0.66651180  0.81575412  0.10171119  1.0
  C  C212  1  0.60098734  0.79939266  0.19336392  1.0
  C  C213  1  0.65950878  0.84911950  0.12793703  1.0
  C  C214  1  0.62571577  0.84181124  0.17364799  1.0
  C  C215  1  0.57221255  0.88401466  0.23789621  1.0
  C  C216  1  0.55116593  0.99358671  0.20940873  1.0
  C  C217  1  0.48467240  0.05045510  0.16064139  1.0
  C  C218  1  0.43810560  0.05631482  0.14740457  1.0
  C  C219  1  0.50856770  0.09363158  0.13919718  1.0
  C  C220  1  0.41567895  0.10497962  0.11309925  1.0
  C  C221  1  0.48527706  0.14252659  0.10502244  1.0
  C  C222  1  0.43886886  0.14886638  0.09151432  1.0
  C  C223  1  0.41381688  0.20200658  0.05559055  1.0
  C  C224  1  0.52132436  0.64694309  0.09190973  1.0
  C  C225  1  0.46431154  0.64115048  0.12075654  1.0
  C  C226  1  0.45847178  0.60924712  0.16683294  1.0
  C  C227  1  0.41596058  0.66656022  0.10173201  1.0
  C  C228  1  0.40624255  0.60099729  0.19336993  1.0
  C  C229  1  0.36338415  0.65954849  0.12796683  1.0
  C  C230  1  0.35879554  0.62573343  0.17367165  1.0
  C  C231  1  0.30588411  0.57218341  0.23792405  1.0
  C  C232  1  0.24591057  0.55111695  0.20940281  1.0
  C  C233  1  0.30430633  0.48462707  0.16065053  1.0
  C  C234  1  0.35823012  0.43802578  0.14741923  1.0
  C  C235  1  0.25867330  0.50855464  0.13920762  1.0
  C  C236  1  0.36625196  0.41561417  0.11311769  1.0
  C  C237  1  0.26719405  0.48528061  0.10504274  1.0
  C  C238  1  0.32074387  0.43884533  0.09153738  1.0
  C  C239  1  0.32856325  0.41382678  0.05560109  1.0
  C  C240  1  0.73982574  0.52132903  0.09192454  1.0
  C  C241  1  0.77379151  0.46429950  0.12075494  1.0
  C  C242  1  0.76548505  0.45845456  0.16682297  1.0
  C  C243  1  0.81574947  0.41595422  0.10172228  1.0
  C  C244  1  0.79943617  0.40622236  0.19335409  1.0
  C  C245  1  0.84913436  0.36337551  0.12794204  1.0
  C  C246  1  0.84184359  0.35878322  0.17364802  1.0
  C  C247  1  0.88404574  0.30586241  0.23789556  1.0
  C  C248  1  0.99361620  0.24589496  0.20938943  1.0
  C  C249  1  0.05041146  0.30435017  0.16066667  1.0
  C  C250  1  0.05628548  0.35830161  0.14741027  1.0
  C  C251  1  0.09359792  0.25871742  0.13923176  1.0
  C  C252  1  0.10496957  0.36634058  0.11310216  1.0
  C  C253  1  0.14250862  0.26725082  0.10506324  1.0
  C  C254  1  0.14886358  0.32081840  0.09154006  1.0
  C  C255  1  0.20201437  0.32861476  0.05561591  1.0
  C  C256  1  0.02132961  0.23982635  0.59192562  1.0
  C  C257  1  0.96430005  0.27379119  0.62075592  1.0
  C  C258  1  0.95845457  0.26548474  0.66682442  1.0
  C  C259  1  0.91595493  0.31574853  0.60172342  1.0
  C  C260  1  0.90622221  0.29943560  0.69335539  1.0
  C  C261  1  0.86337603  0.34913310  0.62794306  1.0
  C  C262  1  0.85878292  0.34184351  0.67364862  1.0
  C  C263  1  0.80586198  0.38404646  0.73789565  1.0
  C  C264  1  0.74589462  0.49361702  0.70938917  1.0
  C  C265  1  0.80434996  0.55041191  0.66066666  1.0
  C  C266  1  0.85830202  0.55628586  0.64740977  1.0
  C  C267  1  0.75871701  0.59359899  0.63923162  1.0
  C  C268  1  0.86634041  0.60496974  0.61310163  1.0
  C  C269  1  0.76725046  0.64250905  0.60506330  1.0
  C  C270  1  0.82081838  0.64886354  0.59153956  1.0
  C  C271  1  0.82861445  0.70201473  0.55561538  1.0
  C  C272  1  0.23979102  0.14690624  0.59193807  1.0
  C  C273  1  0.27377286  0.14111925  0.62075494  1.0
  C  C274  1  0.26544560  0.10922843  0.66683815  1.0
  C  C275  1  0.31575365  0.16651151  0.60171135  1.0
  C  C276  1  0.29939157  0.10098839  0.69336505  1.0
  C  C277  1  0.34911878  0.15950868  0.62793721  1.0
  C  C278  1  0.34181030  0.12571641  0.67364859  1.0
  C  C279  1  0.38401494  0.07221328  0.73789638  1.0
  C  C280  1  0.49358691  0.05116657  0.70940863  1.0
  C  C281  1  0.55045522  0.98467239  0.66064121  1.0
  C  C282  1  0.55631477  0.93810593  0.64740432  1.0
  C  C283  1  0.59363158  0.00856819  0.63919687  1.0
  C  C284  1  0.60497926  0.91567928  0.61309910  1.0
  C  C285  1  0.64252648  0.98527747  0.60502218  1.0
  C  C286  1  0.64886603  0.93886899  0.59151453  1.0
  C  C287  1  0.70200651  0.91381703  0.55559035  1.0
  C  C288  1  0.14694266  0.02132571  0.59190964  1.0
  C  C289  1  0.14115122  0.96431090  0.62075702  1.0
  C  C290  1  0.10924802  0.95847114  0.66683336  1.0
  C  C291  1  0.16656042  0.91596169  0.60173208  1.0
  C  C292  1  0.10099806  0.90624292  0.69337006  1.0
  C  C293  1  0.15954875  0.86338513  0.62796691  1.0
  C  C294  1  0.12573387  0.85879632  0.67367144  1.0
  C  C295  1  0.07218396  0.80588381  0.73792355  1.0
  C  C296  1  0.05111732  0.74591056  0.70940257  1.0
  C  C297  1  0.98462775  0.80430628  0.66065071  1.0
  C  C298  1  0.93802636  0.85823001  0.64741887  1.0
  C  C299  1  0.00855525  0.75867281  0.63920777  1.0
  C  C300  1  0.91561445  0.86625204  0.61311797  1.0
  C  C301  1  0.98528057  0.76719416  0.60504310  1.0
  C  C302  1  0.93884557  0.82074381  0.59153742  1.0
  C  C303  1  0.91382621  0.82856302  0.55560175  1.0
  C  C304  1  0.35309292  0.26020837  0.90806302  1.0
  C  C305  1  0.35888072  0.22622597  0.87924608  1.0
  C  C306  1  0.39077228  0.23455295  0.83316331  1.0
  C  C307  1  0.33348815  0.18424511  0.89828918  1.0
  C  C308  1  0.39901285  0.20060701  0.80663622  1.0
  C  C309  1  0.34049158  0.15087972  0.87206320  1.0
  C  C310  1  0.37428401  0.15818843  0.82635229  1.0
  C  C311  1  0.42778763  0.11598501  0.76210363  1.0
  C  C312  1  0.44883367  0.00641340  0.79059116  1.0
  C  C313  1  0.51532760  0.94954501  0.83935836  1.0
  C  C314  1  0.56189423  0.94368574  0.85259540  1.0
  C  C315  1  0.49143212  0.90636897  0.86080309  1.0
  C  C316  1  0.58432029  0.89502138  0.88690137  1.0
  C  C317  1  0.51472259  0.85747441  0.89497805  1.0
  C  C318  1  0.56113079  0.85113462  0.90848586  1.0
  C  C319  1  0.58618300  0.79799487  0.94441001  1.0
  C  C320  1  0.47867524  0.35305702  0.90809046  1.0
  C  C321  1  0.53568923  0.35884874  0.87924356  1.0
  C  C322  1  0.54152899  0.39075210  0.83316686  1.0
  C  C323  1  0.58404018  0.33343900  0.89826809  1.0
  C  C324  1  0.59375804  0.39900238  0.80663008  1.0
  C  C325  1  0.63661604  0.34045118  0.87203331  1.0
  C  C326  1  0.64120464  0.37426623  0.82632819  1.0
  C  C327  1  0.69411590  0.42781670  0.76207631  1.0
  C  C328  1  0.75408943  0.44888316  0.79059725  1.0
  C  C329  1  0.69569327  0.51537304  0.83934966  1.0
  C  C330  1  0.64177006  0.56197389  0.85258091  1.0
  C  C331  1  0.74132705  0.49144458  0.86079232  1.0
  C  C332  1  0.63374822  0.58438550  0.88688215  1.0
  C  C333  1  0.73280572  0.51471905  0.89495724  1.0
  C  C334  1  0.67925590  0.56115433  0.90846289  1.0
  C  C335  1  0.67143676  0.58617333  0.94439896  1.0
  C  C336  1  0.26017327  0.47867153  0.90807569  1.0
  C  C337  1  0.22620809  0.53570061  0.87924525  1.0
  C  C338  1  0.23451495  0.54154555  0.83317679  1.0
  C  C339  1  0.18424977  0.58404678  0.89827743  1.0
  C  C340  1  0.20056401  0.59377730  0.80664575  1.0
  C  C341  1  0.15086564  0.63662460  0.87205772  1.0
  C  C342  1  0.15815659  0.64121645  0.82635182  1.0
  C  C343  1  0.11595408  0.69413814  0.76210410  1.0
  C  C344  1  0.00638340  0.75410515  0.79061045  1.0
  C  C345  1  0.94958790  0.69564949  0.83933345  1.0
  C  C346  1  0.94371429  0.64169805  0.85258971  1.0
  C  C347  1  0.90640162  0.74128180  0.86076874  1.0
  C  C348  1  0.89503021  0.63365909  0.88689781  1.0
  C  C349  1  0.85749156  0.73274885  0.89493660  1.0
  C  C350  1  0.85113619  0.67918127  0.90846022  1.0
  C  C351  1  0.79798522  0.67138535  0.94438428  1.0
  C  C352  1  0.25001274  0.56145799  0.25001179  1.0
  C  C353  1  0.56150601  0.93849338  0.25000046  1.0
  C  C354  1  0.93854134  0.24998703  0.24998872  1.0
  C  C355  1  0.74998686  0.43854212  0.74998810  1.0
  C  C356  1  0.43849359  0.06150673  0.75000003  1.0
  C  C357  1  0.06145867  0.75001308  0.75001134  1.0
  O  O358  1  0.93891456  0.80259075  0.38770587  1.0
  O  O359  1  0.97383087  0.74379015  0.45113259  1.0
  O  O360  1  0.87948770  0.70404185  0.54318218  1.0
  O  O361  1  0.93469221  0.78357569  0.54002975  1.0
  O  O362  1  0.19357763  0.62165202  0.30352230  1.0
  O  O363  1  0.19985572  0.49872244  0.30504700  1.0
  O  O364  1  0.80260858  0.87082060  0.38769082  1.0
  O  O365  1  0.74387185  0.83120008  0.45111794  1.0
  O  O366  1  0.70402522  0.87333580  0.54318043  1.0
  O  O367  1  0.78359230  0.74175297  0.54009727  1.0
  O  O368  1  0.62169531  0.88123751  0.30352539  1.0
  O  O369  1  0.49867854  0.99631461  0.30505004  1.0
  O  O370  1  0.87074889  0.93891569  0.38773424  1.0
  O  O371  1  0.83119291  0.97385734  0.45114697  1.0
  O  O372  1  0.87331195  0.87942305  0.54320811  1.0
  O  O373  1  0.74174365  0.93461833  0.54004871  1.0
  O  O374  1  0.88126423  0.19355286  0.30350034  1.0
  O  O375  1  0.99635050  0.19986588  0.30505722  1.0
  O  O376  1  0.62917993  0.69739120  0.11230864  1.0
  O  O377  1  0.66880038  0.75612856  0.04888104  1.0
  O  O378  1  0.62666434  0.79597648  0.95681978  1.0
  O  O379  1  0.75824782  0.71640700  0.95990228  1.0
  O  O380  1  0.61876198  0.87830463  0.19647439  1.0
  O  O381  1  0.50368452  0.00132152  0.19494985  1.0
  O  O382  1  0.56108375  0.62925207  0.11226519  1.0
  O  O383  1  0.52614173  0.66880742  0.04885281  1.0
  O  O384  1  0.62057628  0.62668673  0.95679305  1.0
  O  O385  1  0.56538260  0.75825735  0.95995087  1.0
  O  O386  1  0.30644636  0.61873520  0.19649971  1.0
  O  O387  1  0.30013532  0.50364824  0.19494299  1.0
  O  O388  1  0.69740883  0.56108451  0.11229321  1.0
  O  O389  1  0.75620952  0.52616850  0.04886665  1.0
  O  O390  1  0.79595791  0.62051245  0.95681742  1.0
  O  O391  1  0.71642489  0.56530763  0.95996999  1.0
  O  O392  1  0.87834834  0.30642258  0.19647742  1.0
  O  O393  1  0.00127790  0.30014414  0.19495265  1.0
  O  O394  1  0.06108544  0.19740936  0.61229419  1.0
  O  O395  1  0.02616914  0.25620996  0.54886746  1.0
  O  O396  1  0.12051248  0.29595782  0.45681796  1.0
  O  O397  1  0.06530739  0.21642442  0.45997104  1.0
  O  O398  1  0.80642220  0.37834853  0.69647736  1.0
  O  O399  1  0.80014428  0.50127767  0.69495305  1.0
  O  O400  1  0.19739101  0.12917951  0.61230907  1.0
  O  O401  1  0.25612815  0.16880003  0.54888181  1.0
  O  O402  1  0.29597519  0.12666431  0.45681949  1.0
  O  O403  1  0.21640747  0.25824669  0.45990300  1.0
  O  O404  1  0.37830429  0.11876260  0.69647450  1.0
  O  O405  1  0.50132164  0.00368505  0.69494980  1.0
  O  O406  1  0.12925111  0.06108442  0.61226551  1.0
  O  O407  1  0.16880709  0.02614277  0.54885279  1.0
  O  O408  1  0.12668864  0.12057661  0.45679160  1.0
  O  O409  1  0.25825635  0.06538178  0.45995104  1.0
  O  O410  1  0.11873577  0.80644725  0.69649942  1.0
  O  O411  1  0.00364932  0.80013467  0.69494275  1.0
  O  O412  1  0.37081926  0.30260891  0.88769138  1.0
  O  O413  1  0.33119904  0.24387200  0.95111876  1.0
  O  O414  1  0.37333576  0.20402541  0.04318026  1.0
  O  O415  1  0.24175259  0.28359311  0.04009764  1.0
  O  O416  1  0.38123820  0.12169503  0.80352576  1.0
  O  O417  1  0.49631548  0.99867859  0.80504991  1.0
  O  O418  1  0.43891625  0.37074804  0.88773486  1.0
  O  O419  1  0.47385845  0.33119224  0.95114734  1.0
  O  O420  1  0.37942413  0.37331338  0.04320657  1.0
  O  O421  1  0.43461769  0.24174409  0.04004956  1.0
  O  O422  1  0.69355324  0.38126491  0.80350048  1.0
  O  O423  1  0.69986486  0.49635143  0.80505715  1.0
  O  O424  1  0.30259076  0.43891560  0.88770728  1.0
  O  O425  1  0.24378967  0.47383161  0.95113397  1.0
  O  O426  1  0.20404151  0.37948811  0.04318268  1.0
  O  O427  1  0.28357529  0.43469203  0.04002985  1.0
  O  O428  1  0.12165166  0.69357753  0.80352263  1.0
  O  O429  1  0.99872268  0.69985553  0.80504705  1.0
  O  O430  1  0.84015634  0.84013968  0.47957532  1.0
  O  O431  1  0.65986095  0.65984389  0.02042395  1.0
  O  O432  1  0.15984366  0.15986043  0.52042443  1.0
  O  O433  1  0.34013946  0.34015622  0.97957566  1.0
