# generated using pymatgen
data_MgH4C12NO5
_symmetry_space_group_name_H-M   'P 1'
_cell_length_a   6.85369861
_cell_length_b   34.36558690
_cell_length_c   34.36500953
_cell_angle_alpha   119.56463008
_cell_angle_beta   93.81183057
_cell_angle_gamma   93.81103734
_symmetry_Int_Tables_number   1
_chemical_formula_structural   MgH4C12NO5
_chemical_formula_sum   'Mg6 H24 C72 N6 O30'
_cell_volume   6978.51498422
_cell_formula_units_Z   6
loop_
 _symmetry_equiv_pos_site_id
 _symmetry_equiv_pos_as_xyz
  1  'x, y, z'
loop_
 _atom_site_type_symbol
 _atom_site_label
 _atom_site_symmetry_multiplicity
 _atom_site_fract_x
 _atom_site_fract_y
 _atom_site_fract_z
 _atom_site_occupancy
  Mg  Mg0  1  0.44116835  0.67216805  0.30572868  1.0
  Mg  Mg1  1  0.13547304  0.69425603  0.36646036  1.0
  Mg  Mg2  1  0.76898728  0.63353675  0.32782822  1.0
  Mg  Mg3  1  0.66195245  0.33324256  0.69732741  1.0
  Mg  Mg4  1  0.96459694  0.30266536  0.63590232  1.0
  Mg  Mg5  1  0.32874061  0.36410107  0.66674923  1.0
  H  H6  1  0.91872466  0.82057539  0.42922010  1.0
  H  H7  1  0.48953935  0.57076130  0.39136292  1.0
  H  H8  1  0.09810339  0.60865317  0.17943035  1.0
  H  H9  1  0.38719732  0.88143803  0.42996964  1.0
  H  H10  1  0.95724302  0.57001509  0.45147844  1.0
  H  H11  1  0.50570625  0.54854256  0.11855730  1.0
  H  H12  1  0.20156473  0.80603520  0.38594311  1.0
  H  H13  1  0.81566016  0.61404333  0.42010570  1.0
  H  H14  1  0.39549895  0.57988624  0.19395732  1.0
  H  H15  1  0.31165322  0.96833789  0.45434295  1.0
  H  H16  1  0.85731261  0.54570662  0.51406415  1.0
  H  H17  1  0.34329586  0.48601505  0.03167164  1.0
  H  H18  1  0.81355483  0.03124933  0.56695849  1.0
  H  H19  1  0.24694522  0.43297326  0.46420809  1.0
  H  H20  1  0.78239662  0.53573169  0.96875619  1.0
  H  H21  1  0.73230211  0.12210375  0.59351750  1.0
  H  H22  1  0.13911230  0.40645844  0.52857732  1.0
  H  H23  1  0.61029758  0.47143648  0.87788609  1.0
  H  H24  1  0.90963343  0.19859318  0.63286493  1.0
  H  H25  1  0.27694049  0.36708664  0.56572053  1.0
  H  H26  1  0.71111862  0.43431074  0.80139445  1.0
  H  H27  1  0.19293381  0.17718818  0.58557202  1.0
  H  H28  1  0.60762750  0.41444566  0.59159695  1.0
  H  H29  1  0.01588429  0.40837505  0.82281203  1.0
  C  C30  1  0.77475158  0.73622315  0.38029681  1.0
  C  C31  1  0.39446978  0.61969080  0.35593838  1.0
  C  C32  1  0.03845902  0.64405688  0.26378078  1.0
  C  C33  1  0.65938005  0.77467178  0.39334406  1.0
  C  C34  1  0.26606810  0.60664819  0.38134474  1.0
  C  C35  1  0.88464220  0.61864749  0.22532608  1.0
  C  C36  1  0.76199365  0.81793258  0.41954458  1.0
  C  C37  1  0.34249749  0.58044674  0.39840313  1.0
  C  C38  1  0.94399787  0.60161165  0.18206735  1.0
  C  C39  1  0.66741592  0.85615587  0.43220337  1.0
  C  C40  1  0.23523968  0.56777655  0.42395426  1.0
  C  C41  1  0.81119629  0.57605810  0.14384344  1.0
  C  C42  1  0.46386021  0.85181618  0.42037306  1.0
  C  C43  1  0.04354517  0.57961494  0.43146314  1.0
  C  C44  1  0.61199303  0.56855131  0.14817964  1.0
  C  C45  1  0.35915280  0.80938620  0.39544718  1.0
  C  C46  1  0.96372503  0.60453201  0.41395123  1.0
  C  C47  1  0.54970821  0.58604039  0.19060645  1.0
  C  C48  1  0.45235150  0.76974174  0.38022983  1.0
  C  C49  1  0.07212976  0.61975751  0.38952893  1.0
  C  C50  1  0.68252315  0.61045913  0.23025199  1.0
  C  C51  1  0.73021331  0.93736565  0.49413185  1.0
  C  C52  1  0.23622778  0.50583400  0.44321158  1.0
  C  C53  1  0.79288926  0.55680157  0.06264270  1.0
  C  C54  1  0.89510999  0.97358753  0.50702262  1.0
  C  C55  1  0.38825036  0.49294813  0.46655500  1.0
  C  C56  1  0.92155520  0.53347289  0.02641964  1.0
  C  C57  1  0.03292445  0.95640505  0.47599766  1.0
  C  C58  1  0.55699155  0.52401030  0.48043966  1.0
  C  C59  1  0.07651164  0.51961634  0.04360043  1.0
  C  C60  1  0.96031736  0.90879552  0.44232555  1.0
  C  C61  1  0.51804993  0.55768802  0.46649926  1.0
  C  C62  1  0.05148812  0.53354838  0.09121101  1.0
  C  C63  1  0.20527577  0.98186470  0.47859207  1.0
  C  C64  1  0.72675669  0.52143038  0.50331327  1.0
  C  C65  1  0.22339961  0.49674521  0.01814582  1.0
  C  C66  1  0.23056560  0.02596669  0.51442093  1.0
  C  C67  1  0.71632363  0.48559199  0.51156402  1.0
  C  C68  1  0.20461614  0.48846243  0.97404124  1.0
  C  C69  1  0.09216096  0.04318656  0.54529801  1.0
  C  C70  1  0.54713387  0.45467969  0.49787044  1.0
  C  C71  1  0.04904555  0.50213579  0.95682312  1.0
  C  C72  1  0.92031833  0.01767572  0.54282059  1.0
  C  C73  1  0.37778978  0.45713365  0.47482183  1.0
  C  C74  1  0.90272119  0.52517091  0.98233052  1.0
  C  C75  1  0.16130674  0.09119579  0.57822830  1.0
  C  C76  1  0.58342146  0.42174185  0.51292291  1.0
  C  C77  1  0.07020169  0.48704633  0.90881225  1.0
  C  C78  1  0.39406412  0.06244854  0.52708621  1.0
  C  C79  1  0.86716082  0.47293816  0.53538276  1.0
  C  C80  1  0.33165522  0.46464377  0.93755922  1.0
  C  C81  1  0.44908099  0.14446683  0.58693800  1.0
  C  C82  1  0.86239400  0.41306436  0.55751933  1.0
  C  C83  1  0.30468503  0.44248476  0.85553616  1.0
  C  C84  1  0.65219271  0.15067351  0.60013202  1.0
  C  C85  1  0.05229134  0.39985507  0.55052989  1.0
  C  C86  1  0.50157257  0.44948706  0.84932366  1.0
  C  C87  1  0.75223913  0.19370825  0.62241250  1.0
  C  C88  1  0.13000224  0.37756173  0.57127772  1.0
  C  C89  1  0.55858087  0.42873853  0.80628753  1.0
  C  C90  1  0.65509433  0.23219956  0.63323149  1.0
  C  C91  1  0.02198120  0.36675451  0.59895195  1.0
  C  C92  1  0.42295293  0.40105029  0.76779586  1.0
  C  C93  1  0.44783743  0.22533283  0.61939875  1.0
  C  C94  1  0.82856897  0.38059657  0.60592475  1.0
  C  C95  1  0.22255530  0.39407597  0.77466295  1.0
  C  C96  1  0.34979816  0.18139624  0.59610162  1.0
  C  C97  1  0.75392811  0.40390623  0.58529071  1.0
  C  C98  1  0.16850102  0.41470767  0.81860246  1.0
  C  C99  1  0.32825005  0.26233736  0.62807685  1.0
  C  C100  1  0.70022559  0.37192004  0.63424092  1.0
  C  C101  1  0.06596570  0.36574764  0.73766113  1.0
  N  N102  1  0.78046738  0.89911889  0.45557704  1.0
  N  N103  1  0.32494225  0.54442037  0.44356056  1.0
  N  N104  1  0.88132803  0.55648111  0.10088448  1.0
  N  N105  1  0.34134203  0.10088624  0.56511819  1.0
  N  N106  1  0.77651039  0.43487546  0.53574489  1.0
  N  N107  1  0.24055640  0.46425031  0.89912171  1.0
  O  O108  1  0.95439947  0.74206119  0.39595764  1.0
  O  O109  1  0.55849883  0.60403530  0.34612331  1.0
  O  O110  1  0.21230181  0.65388391  0.25794362  1.0
  O  O111  1  0.68903974  0.69633351  0.35177149  1.0
  O  O112  1  0.33727130  0.64821393  0.34457663  1.0
  O  O113  1  0.99266531  0.65540148  0.30366473  1.0
  O  O114  1  0.34469836  0.72974140  0.35410490  1.0
  O  O115  1  0.99064152  0.64589136  0.37565769  1.0
  O  O116  1  0.61490278  0.62432537  0.27025519  1.0
  O  O117  1  0.14752722  0.25436667  0.61242010  1.0
  O  O118  1  0.53517554  0.38758122  0.64192625  1.0
  O  O119  1  0.89322688  0.35805130  0.74562448  1.0
  O  O120  1  0.41130208  0.30331328  0.65262420  1.0
  O  O121  1  0.75871642  0.34736735  0.65066567  1.0
  O  O122  1  0.10804133  0.34933422  0.69668590  1.0
  O  O123  1  0.76011707  0.27294707  0.65586161  1.0
  O  O124  1  0.10428001  0.34411795  0.61707125  1.0
  O  O125  1  0.48721832  0.38293320  0.72704353  1.0
  O  O126  1  0.58085039  0.93931414  0.51225391  1.0
  O  O127  1  0.06879024  0.48767615  0.42700520  1.0
  O  O128  1  0.64159426  0.57297805  0.06069184  1.0
  O  O129  1  0.03658617  0.88269420  0.40948923  1.0
  O  O130  1  0.62708463  0.59053725  0.47324775  1.0
  O  O131  1  0.15377926  0.52680133  0.11731000  1.0
  O  O132  1  0.08173407  0.11765710  0.61025049  1.0
  O  O133  1  0.47194679  0.38969210  0.50733299  1.0
  O  O134  1  0.96423246  0.49262450  0.88235598  1.0
  O  O135  1  0.54378340  0.06066002  0.50912607  1.0
  O  O136  1  0.03477373  0.49091551  0.55157118  1.0
  O  O137  1  0.48314137  0.44847234  0.93935651  1.0
