# generated using pymatgen
data_AlC12S3(ClO2)3
_symmetry_space_group_name_H-M   'P 1'
_cell_length_a   3.96914806
_cell_length_b   20.15006374
_cell_length_c   20.15002675
_cell_angle_alpha   120.00002179
_cell_angle_beta   90.00021366
_cell_angle_gamma   89.99975642
_symmetry_Int_Tables_number   1
_chemical_formula_structural   AlC12S3(ClO2)3
_chemical_formula_sum   'Al2 C24 S6 Cl6 O12'
_cell_volume   1395.66082143
_cell_formula_units_Z   2
loop_
 _symmetry_equiv_pos_site_id
 _symmetry_equiv_pos_as_xyz
  1  'x, y, z'
loop_
 _atom_site_type_symbol
 _atom_site_label
 _atom_site_symmetry_multiplicity
 _atom_site_fract_x
 _atom_site_fract_y
 _atom_site_fract_z
 _atom_site_occupancy
  Al  Al0  1  0.99912129  0.00000188  0.50000111  1.0
  Al  Al1  1  0.99913003  0.33333591  0.16666820  1.0
  C  C2  1  0.49903963  0.05844241  0.61745137  1.0
  C  C3  1  0.49904989  0.88255244  0.44099076  1.0
  C  C4  1  0.49903301  0.05901187  0.44156065  1.0
  C  C5  1  0.49903970  0.45078683  0.22567940  1.0
  C  C6  1  0.49905406  0.27432224  0.22510494  1.0
  C  C7  1  0.49905752  0.27489744  0.04921809  1.0
  C  C8  1  0.50990891  0.74909290  0.32028629  1.0
  C  C9  1  0.50992087  0.58424579  0.34638606  1.0
  C  C10  1  0.50082657  0.79772604  0.39887279  1.0
  C  C11  1  0.50082802  0.53561208  0.26779878  1.0
  C  C12  1  0.49609109  0.66223970  0.36567937  1.0
  C  C13  1  0.49608035  0.67109786  0.30099192  1.0
  C  C14  1  0.50990556  0.17971633  0.42880636  1.0
  C  C15  1  0.50992175  0.15361602  0.23785717  1.0
  C  C16  1  0.50082100  0.10112874  0.39885245  1.0
  C  C17  1  0.50083112  0.23220304  0.26781128  1.0
  C  C18  1  0.49609330  0.13432204  0.29655796  1.0
  C  C19  1  0.49608827  0.19900918  0.37010400  1.0
  C  C20  1  0.50990448  0.07119574  0.75091026  1.0
  C  C21  1  0.50992168  0.26214317  0.91575919  1.0
  C  C22  1  0.50082372  0.10115020  0.70227717  1.0
  C  C23  1  0.50083482  0.23218872  0.96439228  1.0
  C  C24  1  0.49608989  0.20344212  0.83776452  1.0
  C  C25  1  0.49608551  0.12989681  0.82890543  1.0
  S  S26  1  0.48141276  0.74884030  0.44955534  1.0
  S  S27  1  0.48139218  0.58449727  0.21711544  1.0
  S  S28  1  0.48140840  0.05044637  0.29928353  1.0
  S  S29  1  0.48139912  0.28288428  0.36737962  1.0
  S  S30  1  0.48141093  0.20071834  0.75116353  1.0
  S  S31  1  0.48140048  0.13262060  0.91550542  1.0
  Cl  Cl32  1  0.51582869  0.77785253  0.25355507  1.0
  Cl  Cl33  1  0.51586257  0.55548673  0.41311758  1.0
  Cl  Cl34  1  0.51583145  0.24644814  0.52429580  1.0
  Cl  Cl35  1  0.51585735  0.08688536  0.14236682  1.0
  Cl  Cl36  1  0.51582585  0.97570489  0.72215036  1.0
  Cl  Cl37  1  0.51585172  0.35763288  0.94451852  1.0
  O  O38  1  0.26400812  0.01017027  0.42597148  1.0
  O  O39  1  0.26401141  0.07403115  0.58419956  1.0
  O  O40  1  0.26402223  0.91580439  0.48983300  1.0
  O  O41  1  0.73310116  0.07413177  0.49029484  1.0
  O  O42  1  0.73311476  0.91616634  0.42587032  1.0
  O  O43  1  0.73310768  0.00970722  0.58383720  1.0
  O  O44  1  0.26402517  0.25930829  0.08247050  1.0
  O  O45  1  0.26401435  0.41753389  0.17683698  1.0
  O  O46  1  0.26402594  0.32316457  0.24069529  1.0
  O  O47  1  0.73312268  0.32363247  0.08283335  1.0
  O  O48  1  0.73312164  0.25920391  0.17637122  1.0
  O  O49  1  0.73311055  0.41717162  0.24079887  1.0
