# generated using pymatgen
data_VH8(C2O)5
_symmetry_space_group_name_H-M   'P 1'
_cell_length_a   6.76314286
_cell_length_b   12.18405144
_cell_length_c   17.55095761
_cell_angle_alpha   90.00053216
_cell_angle_beta   90.00010302
_cell_angle_gamma   89.99935861
_symmetry_Int_Tables_number   1
_chemical_formula_structural   VH8(C2O)5
_chemical_formula_sum   'V4 H32 C40 O20'
_cell_volume   1446.24244210
_cell_formula_units_Z   4
loop_
 _symmetry_equiv_pos_site_id
 _symmetry_equiv_pos_as_xyz
  1  'x, y, z'
loop_
 _atom_site_type_symbol
 _atom_site_label
 _atom_site_symmetry_multiplicity
 _atom_site_fract_x
 _atom_site_fract_y
 _atom_site_fract_z
 _atom_site_occupancy
  V  V0  1  0.72624230  0.73362967  0.24999079  1.0
  V  V1  1  0.77376097  0.23360538  0.74999951  1.0
  V  V2  1  0.27378901  0.26639354  0.74999660  1.0
  V  V3  1  0.22622303  0.76637925  0.25000326  1.0
  H  H4  1  0.24171116  0.01846112  0.09818918  1.0
  H  H5  1  0.78867994  0.76687474  0.03529437  1.0
  H  H6  1  0.94005254  0.87610816  0.06513246  1.0
  H  H7  1  0.91872612  0.84568347  0.96608263  1.0
  H  H8  1  0.25829306  0.51845281  0.90180337  1.0
  H  H9  1  0.71130801  0.26688743  0.96470868  1.0
  H  H10  1  0.55994695  0.37612322  0.93486389  1.0
  H  H11  1  0.58126646  0.34570854  0.03391352  1.0
  H  H12  1  0.75831203  0.98154858  0.59818685  1.0
  H  H13  1  0.21133555  0.23311606  0.53528454  1.0
  H  H14  1  0.05995126  0.12389946  0.56513094  1.0
  H  H15  1  0.08129293  0.15430158  0.46608460  1.0
  H  H16  1  0.74171385  0.48155109  0.40181588  1.0
  H  H17  1  0.28870512  0.73311155  0.46471226  1.0
  H  H18  1  0.44005569  0.62387126  0.43486173  1.0
  H  H19  1  0.41875641  0.65428307  0.53391739  1.0
  H  H20  1  0.75827136  0.98154650  0.90181302  1.0
  H  H21  1  0.21131589  0.23312631  0.96471353  1.0
  H  H22  1  0.05993442  0.12389946  0.93487373  1.0
  H  H23  1  0.08126822  0.15431594  0.03391729  1.0
  H  H24  1  0.74175451  0.48156220  0.09817661  1.0
  H  H25  1  0.28869817  0.73312921  0.03527928  1.0
  H  H26  1  0.44006810  0.62390081  0.06512122  1.0
  H  H27  1  0.41874711  0.65431631  0.96607272  1.0
  H  H28  1  0.24172668  0.01844180  0.40182732  1.0
  H  H29  1  0.78869724  0.76686940  0.46471937  1.0
  H  H30  1  0.94009040  0.87608928  0.43488209  1.0
  H  H31  1  0.91872951  0.84568142  0.53392900  1.0
  H  H32  1  0.25828641  0.51842698  0.59818518  1.0
  H  H33  1  0.71127296  0.26687719  0.53528425  1.0
  H  H34  1  0.55992535  0.37611830  0.56513192  1.0
  H  H35  1  0.58124237  0.34570813  0.46607912  1.0
  C  C36  1  0.51379311  0.93988822  0.06768054  1.0
  C  C37  1  0.66496983  0.92722319  0.01254053  1.0
  C  C38  1  0.35453292  0.01113526  0.05405428  1.0
  C  C39  1  0.51079666  0.87687273  0.14016412  1.0
  C  C40  1  0.83747755  0.85000034  0.02013423  1.0
  C  C41  1  0.98618761  0.43990582  0.93231850  1.0
  C  C42  1  0.83503179  0.42723773  0.98746469  1.0
  C  C43  1  0.14546994  0.51114314  0.94594620  1.0
  C  C44  1  0.98918655  0.37687785  0.85984077  1.0
  C  C45  1  0.66250314  0.35001196  0.97986708  1.0
  C  C46  1  0.48620184  0.06009399  0.56767945  1.0
  C  C47  1  0.33504555  0.07275828  0.51254171  1.0
  C  C48  1  0.64546492  0.98886154  0.55405021  1.0
  C  C49  1  0.48920307  0.12311865  0.64016117  1.0
  C  C50  1  0.16251716  0.14999519  0.52012952  1.0
  C  C51  1  0.01377657  0.56010504  0.43232420  1.0
  C  C52  1  0.16494744  0.57276238  0.48745405  1.0
  C  C53  1  0.85451944  0.48886134  0.44594687  1.0
  C  C54  1  0.01082755  0.62311892  0.35982750  1.0
  C  C55  1  0.33749824  0.64997902  0.47986901  1.0
  C  C56  1  0.48618646  0.06011037  0.93232451  1.0
  C  C57  1  0.33503930  0.07277457  0.98746224  1.0
  C  C58  1  0.64543186  0.98887482  0.94595247  1.0
  C  C59  1  0.48921099  0.12314145  0.85984149  1.0
  C  C60  1  0.16248575  0.15000974  0.97987538  1.0
  C  C61  1  0.01380230  0.56011903  0.06766318  1.0
  C  C62  1  0.16496256  0.57278056  0.01253409  1.0
  C  C63  1  0.85455546  0.48888335  0.05404574  1.0
  C  C64  1  0.01081667  0.62314700  0.14015687  1.0
  C  C65  1  0.33750008  0.65000469  0.02011974  1.0
  C  C66  1  0.51381173  0.93988819  0.43233243  1.0
  C  C67  1  0.66498281  0.92721979  0.48746163  1.0
  C  C68  1  0.35453978  0.01112473  0.44595484  1.0
  C  C69  1  0.51082085  0.87686927  0.35984160  1.0
  C  C70  1  0.83750528  0.84999273  0.47987609  1.0
  C  C71  1  0.98616455  0.43989519  0.56767857  1.0
  C  C72  1  0.83502029  0.42722554  0.51253220  1.0
  C  C73  1  0.14544682  0.51111838  0.55404793  1.0
  C  C74  1  0.98918454  0.37685669  0.64016501  1.0
  C  C75  1  0.66247245  0.35000069  0.52012692  1.0
  O  O76  1  0.67405100  0.84155975  0.16728851  1.0
  O  O77  1  0.34120855  0.86102498  0.17065295  1.0
  O  O78  1  0.82590469  0.34154520  0.83270362  1.0
  O  O79  1  0.15881822  0.36102969  0.82933385  1.0
  O  O80  1  0.32591042  0.15844759  0.66730334  1.0
  O  O81  1  0.65884604  0.13897255  0.67066332  1.0
  O  O82  1  0.17406935  0.65844135  0.33271234  1.0
  O  O83  1  0.84120608  0.63896996  0.32935485  1.0
  O  O84  1  0.32590934  0.15846264  0.83271312  1.0
  O  O85  1  0.65882572  0.13897361  0.82934127  1.0
  O  O86  1  0.17404973  0.65845338  0.16728604  1.0
  O  O87  1  0.84122640  0.63900255  0.17064784  1.0
  O  O88  1  0.67404844  0.84155674  0.33271310  1.0
  O  O89  1  0.34120450  0.86100798  0.32935426  1.0
  O  O90  1  0.82589246  0.34154246  0.66728815  1.0
  O  O91  1  0.15882523  0.36100976  0.67065476  1.0
  O  O92  1  0.49725594  0.68708360  0.24999968  1.0
  O  O93  1  0.00271893  0.18706872  0.75000594  1.0
  O  O94  1  0.50272657  0.31293140  0.75000195  1.0
  O  O95  1  0.99726654  0.81292166  0.25000709  1.0
