# generated using pymatgen
data_CuSiH12C24Br4(N2F3)2
_symmetry_space_group_name_H-M   'P 1'
_cell_length_a   8.02861710
_cell_length_b   13.74404613
_cell_length_c   13.74377960
_cell_angle_alpha   89.84263425
_cell_angle_beta   88.75291964
_cell_angle_gamma   88.76106940
_symmetry_Int_Tables_number   1
_chemical_formula_structural   CuSiH12C24Br4(N2F3)2
_chemical_formula_sum   'Cu1 Si1 H12 C24 Br4 N4 F6'
_cell_volume   1515.84915554
_cell_formula_units_Z   1
loop_
 _symmetry_equiv_pos_site_id
 _symmetry_equiv_pos_as_xyz
  1  'x, y, z'
loop_
 _atom_site_type_symbol
 _atom_site_label
 _atom_site_symmetry_multiplicity
 _atom_site_fract_x
 _atom_site_fract_y
 _atom_site_fract_z
 _atom_site_occupancy
  Cu  Cu0  1  0.50004607  0.50000622  0.49997632  1.0
  Si  Si1  1  0.00000345  0.50001031  0.49998814  1.0
  H  H2  1  0.24503089  0.34615049  0.50019427  1.0
  H  H3  1  0.23762608  0.16546798  0.50022253  1.0
  H  H4  1  0.76486350  0.34231417  0.50000546  1.0
  H  H5  1  0.23517449  0.65767453  0.50000213  1.0
  H  H6  1  0.75501075  0.65387534  0.49978124  1.0
  H  H7  1  0.76237153  0.83454871  0.49971834  1.0
  H  H8  1  0.24499511  0.50011542  0.34614375  1.0
  H  H9  1  0.23766930  0.50022353  0.16546094  1.0
  H  H10  1  0.76483092  0.49996932  0.34231766  1.0
  H  H11  1  0.23517876  0.49998972  0.65770107  1.0
  H  H12  1  0.75500673  0.49997324  0.65383265  1.0
  H  H13  1  0.76239051  0.49989678  0.83451505  1.0
  C  C14  1  0.35989375  0.30256710  0.50015240  1.0
  C  C15  1  0.35670517  0.20186702  0.50012814  1.0
  C  C16  1  0.50665702  0.14668586  0.49998927  1.0
  C  C17  1  0.65594097  0.19927765  0.49983811  1.0
  C  C18  1  0.65087884  0.30062175  0.49998360  1.0
  C  C19  1  0.50433562  0.04420924  0.49998733  1.0
  C  C20  1  0.49566019  0.95579649  0.49999431  1.0
  C  C21  1  0.49335400  0.85332053  0.49997699  1.0
  C  C22  1  0.34407240  0.80072362  0.50014125  1.0
  C  C23  1  0.34915302  0.69937939  0.50000655  1.0
  C  C24  1  0.64013205  0.69744647  0.49981594  1.0
  C  C25  1  0.64331706  0.79815314  0.49982493  1.0
  C  C26  1  0.35989344  0.50011299  0.30257262  1.0
  C  C27  1  0.35670920  0.50012564  0.20185674  1.0
  C  C28  1  0.50668336  0.50001102  0.14668188  1.0
  C  C29  1  0.65595629  0.49985018  0.19926423  1.0
  C  C30  1  0.65088340  0.49996720  0.30062160  1.0
  C  C31  1  0.50438286  0.50002188  0.04420605  1.0
  C  C32  1  0.49569141  0.50003354  0.95579395  1.0
  C  C33  1  0.49337120  0.50003289  0.85331681  1.0
  C  C34  1  0.34409018  0.50015011  0.80074475  1.0
  C  C35  1  0.34914845  0.50001936  0.69938312  1.0
  C  C36  1  0.64013497  0.49994565  0.69741166  1.0
  C  C37  1  0.64332763  0.49994968  0.79812674  1.0
  Br  Br38  1  0.86502849  0.13323044  0.49934863  1.0
  Br  Br39  1  0.13497852  0.86676283  0.50064533  1.0
  Br  Br40  1  0.86505279  0.49937879  0.13321055  1.0
  Br  Br41  1  0.13500295  0.50058359  0.86680643  1.0
  N  N42  1  0.50478870  0.35077617  0.50011264  1.0
  N  N43  1  0.49525050  0.64922855  0.49988037  1.0
  N  N44  1  0.50475645  0.50007441  0.35077683  1.0
  N  N45  1  0.49525264  0.49993996  0.64921854  1.0
  F  F46  1  0.21674969  0.50138638  0.50142369  1.0
  F  F47  1  0.78324968  0.49864118  0.49854553  1.0
  F  F48  1  0.99990705  0.41200807  0.58790819  1.0
  F  F49  1  0.00008989  0.58801295  0.41206397  1.0
  F  F50  1  0.00898579  0.41229577  0.41217971  1.0
  F  F51  1  0.99100988  0.58772016  0.58779901  1.0
