# generated using pymatgen
data_Zn2H20C25N8
_symmetry_space_group_name_H-M   'P 1'
_cell_length_a   14.77963444
_cell_length_b   14.80675401
_cell_length_c   14.91742727
_cell_angle_alpha   102.82941772
_cell_angle_beta   112.70085108
_cell_angle_gamma   112.36829003
_symmetry_Int_Tables_number   1
_chemical_formula_structural   Zn2H20C25N8
_chemical_formula_sum   'Zn4 H40 C50 N16'
_cell_volume   2511.15161259
_cell_formula_units_Z   2
loop_
 _symmetry_equiv_pos_site_id
 _symmetry_equiv_pos_as_xyz
  1  'x, y, z'
loop_
 _atom_site_type_symbol
 _atom_site_label
 _atom_site_symmetry_multiplicity
 _atom_site_fract_x
 _atom_site_fract_y
 _atom_site_fract_z
 _atom_site_occupancy
  Zn  Zn106  1  0.14187545  0.00491899  0.14088026  1.0
  Zn  Zn107  1  0.86237132  0.87025139  0.00355805  1.0
  Zn  Zn108  1  0.85823060  0.00415572  0.85819260  1.0
  Zn  Zn109  1  0.14124978  0.14352463  0.99985536  1.0
  H  H50  1  0.18406037  0.82394935  0.22575787  1.0
  H  H51  1  0.81770722  0.99930275  0.17136926  1.0
  H  H52  1  0.39750870  0.87161277  0.78490179  1.0
  H  H53  1  0.34390994  0.92628269  0.88177268  1.0
  H  H54  1  0.18919647  0.24145668  0.67488850  1.0
  H  H55  1  0.80934743  0.32411722  0.02596684  1.0
  H  H56  1  0.19005141  0.22536813  0.50881404  1.0
  H  H57  1  0.81070792  0.49277521  0.04430358  1.0
  H  H58  1  0.82287755  0.07991708  0.33182827  1.0
  H  H59  1  0.17609610  0.67541929  0.26729094  1.0
  H  H60  1  0.82212894  0.09616871  0.49849532  1.0
  H  H61  1  0.17472904  0.50612464  0.24912090  1.0
  H  H62  1  0.47729511  0.51008096  0.36418584  1.0
  H  H63  1  0.62872564  0.67655929  0.53163193  1.0
  H  H64  1  0.81641513  0.05018716  0.63985558  1.0
  H  H65  1  0.18115962  0.35150890  0.17022660  1.0
  H  H66  1  0.81496306  0.65162200  0.83607130  1.0
  H  H67  1  0.40311075  0.18053246  0.36212903  1.0
  H  H68  1  0.19905980  0.02054993  0.83901402  1.0
  H  H69  1  0.57852549  0.93965596  0.75014911  1.0
  H  H70  1  0.83020346  0.84184230  0.65383746  1.0
  H  H71  1  0.40216880  0.36974309  0.17935102  1.0
  H  H72  1  0.16189998  0.81709159  0.00670280  1.0
  H  H73  1  0.59745500  0.77315772  0.95516160  1.0
  H  H74  1  0.18740299  0.23484181  0.82724838  1.0
  H  H75  1  0.80925999  0.16423456  0.98706509  1.0
  H  H76  1  0.81309284  0.65016310  0.04875804  1.0
  H  H77  1  0.18973227  0.18116624  0.35018558  1.0
  H  H78  1  0.89429688  0.59190748  0.72896239  1.0
  H  H79  1  0.80303455  0.45464683  0.69694784  1.0
  H  H80  1  0.87372181  0.48496531  0.62621164  1.0
  H  H81  1  0.63969186  0.27828816  0.51762152  1.0
  H  H82  1  0.59441483  0.25513786  0.38146952  1.0
  H  H83  1  0.74199397  0.33695874  0.48315788  1.0
  H  H84  1  0.28516203  0.58673584  0.82519786  1.0
  H  H85  1  0.41855923  0.64331957  0.83249041  1.0
  H  H86  1  0.41128517  0.68573124  0.94980024  1.0
  H  H87  1  0.12068206  0.59279771  0.75090313  1.0
  H  H88  1  0.18027660  0.63904406  0.89154542  1.0
  H  H89  1  0.08923170  0.68027919  0.81907744  1.0
  C  C0  1  0.09339696  0.79614623  0.18041959  1.0
  C  C1  1  0.90870810  0.03654843  0.20064394  1.0
  C  C2  1  0.00268773  0.15299549  0.69356349  1.0
  C  C3  1  0.99442019  0.30114073  0.09982206  1.0
  C  C4  1  0.79883850  0.70380593  0.70197017  1.0
  C  C5  1  0.44991121  0.31570635  0.31127806  1.0
  C  C6  1  0.20127582  0.89551607  0.90198317  1.0
  C  C7  1  0.53436904  0.83962057  0.83739761  1.0
  C  C8  1  0.35042549  0.74921059  0.83626212  1.0
  C  C9  1  0.25759160  0.76072094  0.84256441  1.0
  C  C10  1  0.42217331  0.81876447  0.81511114  1.0
  C  C11  1  0.26853184  0.85983112  0.87111380  1.0
  C  C12  1  0.10803823  0.20613986  0.59993849  1.0
  C  C13  1  0.89040367  0.40091769  0.08012710  1.0
  C  C14  1  0.10855824  0.19715914  0.50548768  1.0
  C  C15  1  0.89125458  0.49677910  0.09030705  1.0
  C  C16  1  0.00578792  0.14569282  0.40525209  1.0
  C  C17  1  0.99446803  0.59782331  0.15294468  1.0
  C  C18  1  0.90400771  0.11536400  0.40683391  1.0
  C  C19  1  0.09504249  0.59838902  0.21373753  1.0
  C  C20  1  0.90352062  0.12439907  0.50147622  1.0
  C  C21  1  0.09418368  0.50230506  0.20353875  1.0
  C  C22  1  0.90723437  0.09322501  0.70017393  1.0
  C  C23  1  0.09030178  0.29111095  0.11822094  1.0
  C  C24  1  0.00482777  0.16438338  0.59945315  1.0
  C  C25  1  0.99274247  0.40094255  0.13188060  1.0
  C  C26  1  0.54986936  0.51067435  0.42345505  1.0
  C  C27  1  0.63482407  0.60417024  0.51733809  1.0
  C  C28  1  0.72471687  0.60533806  0.59927475  1.0
  C  C29  1  0.55093444  0.41391166  0.40665757  1.0
  C  C30  1  0.73140116  0.51092378  0.58071826  1.0
  C  C31  1  0.64499515  0.41538040  0.48422330  1.0
  C  C32  1  0.82677926  0.71345435  0.80655219  1.0
  C  C33  1  0.38601667  0.21189669  0.30214039  1.0
  C  C34  1  0.18355751  0.97982160  0.88834770  1.0
  C  C35  1  0.60167062  0.90321139  0.80430766  1.0
  C  C36  1  0.83331916  0.81032940  0.71345680  1.0
  C  C37  1  0.38428172  0.30851833  0.20934599  1.0
  C  C38  1  0.16273476  0.87451605  0.97219026  1.0
  C  C39  1  0.61020646  0.81729957  0.90779602  1.0
  C  C40  1  0.09600926  0.18664460  0.79532072  1.0
  C  C41  1  0.90077888  0.19601189  0.02458063  1.0
  C  C42  1  0.90455195  0.70736669  0.08963334  1.0
  C  C43  1  0.09830044  0.12878916  0.29203624  1.0
  C  C44  1  0.99749067  0.69554791  0.14571688  1.0
  C  C45  1  0.00429646  0.11201243  0.30456735  1.0
  C  C46  1  0.83063620  0.51094963  0.66270957  1.0
  C  C47  1  0.65527264  0.31629332  0.46525849  1.0
  C  C48  1  0.36761975  0.66202713  0.86224424  1.0
  C  C49  1  0.15689344  0.66337757  0.82536717  1.0
  N  N90  1  0.05989171  0.86154608  0.14742449  1.0
  N  N91  1  0.94414953  0.00974990  0.13370539  1.0
  N  N92  1  0.94128112  0.09161525  0.79728131  1.0
  N  N93  1  0.05544865  0.18918337  0.05667425  1.0
  N  N94  1  0.87120833  0.81696948  0.87302917  1.0
  N  N95  1  0.29045403  0.14884523  0.20324741  1.0
  N  N96  1  0.13957396  0.00651474  0.94657282  1.0
  N  N97  1  0.70707633  0.91676693  0.85044223  1.0
  N  N98  1  0.87567764  0.87667979  0.81594743  1.0
  N  N99  1  0.28959849  0.20914387  0.14533530  1.0
  N  N100  1  0.12810827  0.94289766  0.99929572  1.0
  N  N101  1  0.71210195  0.86329446  0.91505508  1.0
  N  N102  1  0.05907358  0.14986887  0.85661109  1.0
  N  N103  1  0.93901576  0.13076758  0.99922362  1.0
  N  N104  1  0.94214508  0.80605854  0.09077048  1.0
  N  N105  1  0.06060644  0.06636858  0.18986607  1.0
