# generated using pymatgen
data_Zr3H13C13NO16
_symmetry_space_group_name_H-M   'P 1'
_cell_length_a   14.67635095
_cell_length_b   20.04676138
_cell_length_c   20.20761389
_cell_angle_alpha   87.84242982
_cell_angle_beta   69.69405127
_cell_angle_gamma   84.61719572
_symmetry_Int_Tables_number   1
_chemical_formula_structural   Zr3H13C13NO16
_chemical_formula_sum   'Zr12 H52 C52 N4 O64'
_cell_volume   5551.19152320
_cell_formula_units_Z   4
loop_
 _symmetry_equiv_pos_site_id
 _symmetry_equiv_pos_as_xyz
  1  'x, y, z'
loop_
 _atom_site_type_symbol
 _atom_site_label
 _atom_site_symmetry_multiplicity
 _atom_site_fract_x
 _atom_site_fract_y
 _atom_site_fract_z
 _atom_site_occupancy
  Zr  Zr0  1  0.61460879  0.57120386  0.54080519  1.0
  Zr  Zr1  1  0.30569754  0.45150741  0.62549149  1.0
  Zr  Zr2  1  0.48445297  0.48634911  0.69600306  1.0
  Zr  Zr3  1  0.43286883  0.53942540  0.47112831  1.0
  Zr  Zr4  1  0.55690723  0.40452052  0.53131245  1.0
  Zr  Zr5  1  0.35861676  0.62133849  0.63658717  1.0
  Zr  Zr6  1  0.17440176  0.07126352  0.11478260  1.0
  Zr  Zr7  1  0.52419008  0.98761674  0.01808702  1.0
  Zr  Zr8  1  0.39698412  0.13724203  0.09528530  1.0
  Zr  Zr9  1  0.30245070  0.91993888  0.03297750  1.0
  Zr  Zr10  1  0.36159069  0.07723954  0.94312623  1.0
  Zr  Zr11  1  0.34448659  0.97883548  0.18534952  1.0
  H  H12  1  0.88316744  0.68719228  0.28065295  1.0
  H  H13  1  0.00962914  0.77020485  0.19170198  1.0
  H  H14  1  0.89377727  0.37357632  0.81993398  1.0
  H  H15  1  0.73463863  0.31415233  0.90514608  1.0
  H  H16  1  0.63557018  0.49633116  0.41953684  1.0
  H  H17  1  0.42224104  0.36156519  0.67695298  1.0
  H  H18  1  0.24573863  0.57428971  0.56339363  1.0
  H  H19  1  0.51533813  0.62853071  0.68083805  1.0
  H  H20  1  0.59738002  0.29104168  0.58489399  1.0
  H  H21  1  0.43571944  0.56347901  0.82195933  1.0
  H  H22  1  0.26053767  0.65876194  0.76734070  1.0
  H  H23  1  0.65245810  0.36645823  0.39374083  1.0
  H  H24  1  0.53454913  0.42486991  0.39123987  1.0
  H  H25  1  0.38621387  0.66698159  0.42306109  1.0
  H  H26  1  0.22545232  0.70463850  0.60080539  1.0
  H  H27  1  0.51768253  0.29307669  0.49201476  1.0
  H  H28  1  0.29048096  0.34141241  0.55223487  1.0
  H  H29  1  0.66794046  0.68458454  0.57667757  1.0
  H  H30  1  0.41565039  0.74426714  0.58518387  1.0
  H  H31  1  0.53548271  0.48653431  0.33354791  1.0
  H  H32  1  0.39010484  0.32253744  0.56978423  1.0
  H  H33  1  0.51075548  0.40788790  0.80381527  1.0
  H  H34  1  0.70196419  0.31855481  0.56453571  1.0
  H  H35  1  0.32277517  0.66725570  0.50764856  1.0
  H  H36  1  0.36795539  0.59538565  0.77605567  1.0
  H  H37  1  0.51940115  0.70571436  0.58440938  1.0
  H  H38  1  0.25107076  0.40792049  0.18957278  1.0
  H  H39  1  0.26550846  0.49328704  0.28698848  1.0
  H  H40  1  0.79398630  0.79565171  0.89745708  1.0
  H  H41  1  0.97000533  0.72491229  0.83159816  1.0
  H  H42  1  0.18646284  0.01341357  0.98396722  1.0
  H  H43  1  0.53915015  0.11684235  0.95050052  1.0
  H  H44  1  0.44723124  0.87153270  0.08948057  1.0
  H  H45  1  0.25225807  0.10821789  0.22806438  1.0
  H  H46  1  0.34522045  0.21832301  0.91433011  1.0
  H  H47  1  0.47823444  0.20534215  0.17487157  1.0
  H  H48  1  0.41481902  0.00195495  0.28447732  1.0
  H  H49  1  0.38201268  0.00700504  0.82803350  1.0
  H  H50  1  0.21675586  0.88681086  0.94196428  1.0
  H  H51  1  0.21042567  0.82555812  0.11780600  1.0
  H  H52  1  0.36465721  0.84149270  0.21839901  1.0
  H  H53  1  0.49886865  0.11908597  0.82896510  1.0
  H  H54  1  0.70908397  0.01045609  0.93061715  1.0
  H  H55  1  0.04353656  0.09596511  0.24444140  1.0
  H  H56  1  0.19979658  0.99789223  0.31087100  1.0
  H  H57  1  0.31016459  0.95982214  0.89084169  1.0
  H  H58  1  0.67893912  0.94634365  0.89955974  1.0
  H  H59  1  0.49724904  0.23610574  0.02205135  1.0
  H  H60  1  0.40565549  0.21159605  0.96871350  1.0
  H  H61  1  0.29396908  0.85152535  0.16861131  1.0
  H  H62  1  0.36531721  0.23033296  0.19527680  1.0
  H  H63  1  0.13927226  0.01290018  0.25579580  1.0
  C  C64  1  0.77309067  0.74886506  0.24967266  1.0
  C  C65  1  0.86693681  0.72872624  0.24941011  1.0
  C  C66  1  0.93168897  0.77071371  0.20334153  1.0
  C  C67  1  0.87789359  0.81804709  0.17610727  1.0
  C  C68  1  0.97604548  0.29388996  0.85837307  1.0
  C  C69  1  0.89265730  0.32983034  0.85336706  1.0
  C  C70  1  0.81045255  0.29936195  0.89786051  1.0
  C  C71  1  0.84178358  0.24394154  0.93087137  1.0
  C  C72  1  0.78228177  0.44973699  0.46425028  1.0
  C  C73  1  0.60507440  0.62864203  0.38528485  1.0
  C  C74  1  0.67475271  0.56298276  0.68413955  1.0
  C  C75  1  0.25045902  0.34217882  0.74915137  1.0
  C  C76  1  0.13822376  0.56928773  0.69511925  1.0
  C  C77  1  0.22886454  0.47803114  0.49345496  1.0
  C  C78  1  0.10943059  0.39116310  0.26933448  1.0
  C  C79  1  0.19673364  0.42167496  0.24033127  1.0
  C  C80  1  0.20374033  0.46607425  0.28978161  1.0
  C  C81  1  0.12102707  0.46294277  0.35014814  1.0
  C  C82  1  0.73911873  0.72728486  0.84089043  1.0
  C  C83  1  0.81017503  0.75430972  0.86091111  1.0
  C  C84  1  0.89968444  0.71835048  0.82747780  1.0
  C  C85  1  0.88442554  0.66885884  0.78654435  1.0
  C  C86  1  0.14144195  0.14518413  0.97795211  1.0
  C  C87  1  0.06267104  0.94856746  0.09181674  1.0
  C  C88  1  0.17287288  0.22230015  0.16874597  1.0
  C  C89  1  0.64114013  0.11901266  0.03963635  1.0
  C  C90  1  0.57631593  0.91212294  0.14551240  1.0
  C  C91  1  0.51690970  0.84445372  0.94736447  1.0
  C  C92  1  0.64152781  0.75229459  0.86586467  1.0
  C  C93  1  0.57602391  0.79222321  0.90122351  1.0
  C  C94  1  0.11924637  0.28257640  0.20467376  1.0
  C  C95  1  0.09195330  0.33333333  0.24071258  1.0
  C  C96  1  0.88264442  0.43151906  0.41993241  1.0
  C  C97  1  0.96498242  0.41906050  0.37802740  1.0
  C  C98  1  0.11901688  0.47690375  0.41738513  1.0
  C  C99  1  0.15228393  0.48360340  0.46428613  1.0
  C  C100  1  0.71796114  0.60066222  0.72438003  1.0
  C  C101  1  0.74604592  0.63628200  0.75945930  1.0
  C  C102  1  0.03695445  0.59203639  0.72251132  1.0
  C  C103  1  0.95599755  0.62130514  0.74775736  1.0
  C  C104  1  0.00488176  0.20308466  0.93193390  1.0
  C  C105  1  0.06942889  0.17541122  0.95028492  1.0
  C  C106  1  0.78435175  0.19625577  0.97417593  1.0
  C  C107  1  0.72339997  0.15899764  0.00900334  1.0
  C  C108  1  0.07431438  0.30472041  0.82529369  1.0
  C  C109  1  0.15719687  0.31922617  0.79259344  1.0
  C  C110  1  0.97500934  0.91453791  0.10960852  1.0
  C  C111  1  0.91509312  0.87454896  0.13784307  1.0
  C  C112  1  0.70746590  0.83878344  0.18750500  1.0
  C  C113  1  0.64805261  0.87267610  0.16820737  1.0
  C  C114  1  0.64409798  0.67641980  0.33064204  1.0
  C  C115  1  0.69134283  0.71627302  0.28815053  1.0
  N  N116  1  0.77963225  0.80415679  0.20379771  1.0
  N  N117  1  0.94434364  0.24077995  0.90659267  1.0
  N  N118  1  0.05905187  0.41968775  0.33626545  1.0
  N  N119  1  0.78513077  0.67406761  0.79470710  1.0
  O  O120  1  0.62789910  0.67243129  0.55029198  1.0
  O  O121  1  0.75992548  0.51075247  0.48313153  1.0
  O  O122  1  0.70109712  0.57414562  0.61811120  1.0
  O  O123  1  0.52764118  0.60183780  0.38684759  1.0
  O  O124  1  0.61055815  0.52453019  0.72020038  1.0
  O  O125  1  0.65263387  0.61635165  0.42665071  1.0
  O  O126  1  0.72452539  0.40287178  0.47872370  1.0
  O  O127  1  0.58032307  0.47901990  0.59338970  1.0
  O  O128  1  0.58583909  0.49979596  0.46596924  1.0
  O  O129  1  0.50189463  0.59412206  0.65377053  1.0
  O  O130  1  0.47430568  0.59333823  0.53906468  1.0
  O  O131  1  0.34511353  0.63981711  0.46051158  1.0
  O  O132  1  0.63315711  0.32781052  0.59246374  1.0
  O  O133  1  0.42663647  0.45239857  0.53033843  1.0
  O  O134  1  0.44149764  0.40082396  0.64498244  1.0
  O  O135  1  0.36025511  0.51987035  0.67266792  1.0
  O  O136  1  0.30557226  0.55640907  0.57024715  1.0
  O  O137  1  0.49263184  0.41362056  0.76221936  1.0
  O  O138  1  0.32971883  0.30982313  0.74184115  1.0
  O  O139  1  0.23875521  0.40020069  0.71985043  1.0
  O  O140  1  0.44688511  0.71611386  0.61299845  1.0
  O  O141  1  0.16193651  0.50859571  0.67661307  1.0
  O  O142  1  0.40075069  0.55120222  0.79194800  1.0
  O  O143  1  0.33010610  0.65099797  0.74139614  1.0
  O  O144  1  0.29567084  0.69470232  0.58049883  1.0
  O  O145  1  0.19513310  0.61507675  0.69190746  1.0
  O  O146  1  0.31733991  0.34172177  0.58996540  1.0
  O  O147  1  0.49364029  0.46690405  0.37685919  1.0
  O  O148  1  0.21985995  0.44673831  0.55110996  1.0
  O  O149  1  0.30434974  0.50587792  0.45403030  1.0
  O  O150  1  0.58392362  0.37434188  0.42234667  1.0
  O  O151  1  0.50021958  0.30757549  0.54074026  1.0
  O  O152  1  0.08322746  0.05719767  0.21934954  1.0
  O  O153  1  0.10989906  0.12912882  0.04285223  1.0
  O  O154  1  0.12595440  0.17612466  0.15857068  1.0
  O  O155  1  0.13992438  0.90865780  0.06714960  1.0
  O  O156  1  0.26529401  0.22176217  0.15190103  1.0
  O  O157  1  0.05720235  0.01044787  0.10433982  1.0
  O  O158  1  0.22941994  0.13729886  0.93515896  1.0
  O  O159  1  0.30319119  0.11462700  0.04999788  1.0
  O  O160  1  0.23354576  0.01927158  0.00663224  1.0
  O  O161  1  0.28070566  0.08831249  0.18155306  1.0
  O  O162  1  0.25288042  0.98345796  0.12348057  1.0
  O  O163  1  0.27703245  0.83741785  0.10579248  1.0
  O  O164  1  0.39669859  0.19130109  0.92547276  1.0
  O  O165  1  0.41272861  0.98622102  0.97979512  1.0
  O  O166  1  0.48844445  0.09213173  0.98340667  1.0
  O  O167  1  0.44627905  0.03725220  0.10885946  1.0
  O  O168  1  0.42093891  0.91694896  0.08473303  1.0
  O  O169  1  0.42994805  0.22542416  0.03560192  1.0
  O  O170  1  0.56231887  0.15048323  0.07946127  1.0
  O  O171  1  0.65056354  0.05795284  0.02129652  1.0
  O  O172  1  0.19059996  0.98128173  0.26912793  1.0
  O  O173  1  0.60517133  0.93178683  0.08107181  1.0
  O  O174  1  0.41212427  0.19104500  0.19161898  1.0
  O  O175  1  0.35405582  0.01250788  0.27574098  1.0
  O  O176  1  0.31129339  0.87032595  0.21198243  1.0
  O  O177  1  0.49123938  0.92287892  0.19099879  1.0
  O  O178  1  0.65986156  0.99290112  0.91483625  1.0
  O  O179  1  0.28074022  0.89912688  0.93824777  1.0
  O  O180  1  0.56836509  0.88890559  0.95870973  1.0
  O  O181  1  0.42597759  0.84262453  0.97344473  1.0
  O  O182  1  0.32405117  0.00775814  0.87052049  1.0
  O  O183  1  0.46524752  0.07908468  0.84603284  1.0
