# generated using pymatgen
data_Zn2H56C57Br6N4O19
_symmetry_space_group_name_H-M   'P 1'
_cell_length_a   10.08335392
_cell_length_b   10.73664013
_cell_length_c   23.63245257
_cell_angle_alpha   89.23476601
_cell_angle_beta   88.73748601
_cell_angle_gamma   89.46093335
_symmetry_Int_Tables_number   1
_chemical_formula_structural   Zn2H56C57Br6N4O19
_chemical_formula_sum   'Zn2 H56 C57 Br6 N4 O19'
_cell_volume   2557.52550754
_cell_formula_units_Z   1
loop_
 _symmetry_equiv_pos_site_id
 _symmetry_equiv_pos_as_xyz
  1  'x, y, z'
loop_
 _atom_site_type_symbol
 _atom_site_label
 _atom_site_symmetry_multiplicity
 _atom_site_fract_x
 _atom_site_fract_y
 _atom_site_fract_z
 _atom_site_occupancy
  Zn  Zn0  1  0.35925944  0.49199369  0.50028178  1.0
  Zn  Zn1  1  0.63630202  0.49440683  0.49779806  1.0
  H  H2  1  0.30432409  0.56904309  0.32556653  1.0
  H  H3  1  0.69534501  0.40901827  0.31713579  1.0
  H  H4  1  0.47287842  0.81964632  0.94311850  1.0
  H  H5  1  0.43684065  0.19877195  0.05792456  1.0
  H  H6  1  0.29114630  0.45918384  0.66897203  1.0
  H  H7  1  0.65347465  0.56850045  0.79572472  1.0
  H  H8  1  0.30178055  0.58410649  0.21923392  1.0
  H  H9  1  0.88802986  0.20244872  0.46226666  1.0
  H  H10  1  0.89176157  0.03874278  0.44992443  1.0
  H  H11  1  0.93801719  0.11099543  0.54811053  1.0
  H  H12  1  0.77163944  0.15964812  0.55618023  1.0
  H  H13  1  0.69448992  0.94036542  0.55542184  1.0
  H  H14  1  0.83087503  0.94645750  0.60089240  1.0
  H  H15  1  0.85185581  0.88684593  0.53130158  1.0
  H  H16  1  0.25325212  0.99443605  0.56243145  1.0
  H  H17  1  0.25897171  0.14020095  0.52492015  1.0
  H  H18  1  0.36387804  0.08860261  0.64436884  1.0
  H  H19  1  0.37581561  0.23367324  0.60802333  1.0
  H  H20  1  0.12919869  0.25179016  0.60429951  1.0
  H  H21  1  0.17870454  0.23207229  0.67568191  1.0
  H  H22  1  0.11109780  0.10491565  0.63903197  1.0
  H  H23  1  0.85016541  0.84785753  0.36922209  1.0
  H  H24  1  0.75034133  0.98363049  0.35929198  1.0
  H  H25  1  0.64338870  0.71686079  0.35527432  1.0
  H  H26  1  0.55610736  0.85469250  0.33785818  1.0
  H  H27  1  0.72380812  0.89846172  0.25772293  1.0
  H  H28  1  0.63763099  0.75758895  0.24858243  1.0
  H  H29  1  0.80291304  0.75388671  0.27292170  1.0
  H  H30  1  0.21150223  0.78515491  0.43943359  1.0
  H  H31  1  0.33778035  0.78700950  0.38560970  1.0
  H  H32  1  0.13183047  0.99257540  0.40953799  1.0
  H  H33  1  0.27185824  0.01393677  0.36418080  1.0
  H  H34  1  0.19907274  0.84610337  0.30064109  1.0
  H  H35  1  0.06354803  0.95086281  0.31084345  1.0
  H  H36  1  0.06652168  0.80605551  0.34787609  1.0
  H  H37  1  0.23606279  0.30638610  0.37225472  1.0
  H  H38  1  0.13733368  0.44225451  0.36127518  1.0
  H  H39  1  0.03552389  0.17309111  0.37006840  1.0
  H  H40  1  0.93150421  0.30535641  0.36291044  1.0
  H  H41  1  0.04380939  0.35980873  0.26922993  1.0
  H  H42  1  0.97620698  0.20832425  0.26830794  1.0
  H  H43  1  0.14977394  0.22748975  0.27587637  1.0
  H  H44  1  0.24591468  0.68144023  0.57172923  1.0
  H  H45  1  0.13993583  0.56516386  0.60362688  1.0
  H  H46  1  0.06326243  0.83685725  0.57656498  1.0
  H  H47  1  0.94984789  0.72215256  0.59994195  1.0
  H  H48  1  0.07722695  0.69264784  0.69062802  1.0
  H  H49  1  0.02341326  0.84931122  0.68164883  1.0
  H  H50  1  0.19170582  0.80799150  0.66742854  1.0
  H  H51  1  0.29403780  0.08269952  0.89305794  1.0
  H  H52  1  0.22321059  0.22236832  0.92048007  1.0
  H  H53  1  0.25770018  0.97452492  0.98568676  1.0
  H  H54  1  0.20322336  0.11412957  0.01735990  1.0
  H  H55  1  0.00102767  0.12001581  0.95683136  1.0
  H  H56  1  0.01048794  0.97775863  0.99555486  1.0
  H  H57  1  0.05474458  0.98162800  0.92247098  1.0
  C  C58  1  0.50145213  0.72362549  0.47192963  1.0
  C  C59  1  0.48656968  0.73638846  0.02693931  1.0
  C  C60  1  0.46950908  0.73366703  0.96813114  1.0
  C  C61  1  0.45045323  0.62241386  0.94058584  1.0
  C  C62  1  0.44645201  0.50774876  0.97095713  1.0
  C  C63  1  0.42853413  0.39306997  0.94237241  1.0
  C  C64  1  0.42342448  0.28130818  0.97445062  1.0
  C  C65  1  0.44042999  0.28542403  0.03343431  1.0
  C  C66  1  0.43849188  0.62674454  0.87831325  1.0
  C  C67  1  0.42908281  0.39198066  0.87974313  1.0
  C  C68  1  0.34766807  0.48180084  0.75554020  1.0
  C  C69  1  0.50054430  0.51549589  0.60847863  1.0
  C  C70  1  0.36982812  0.48376804  0.69737731  1.0
  C  C71  1  0.49244519  0.51787022  0.67254506  1.0
  C  C72  1  0.59450820  0.54987082  0.70919568  1.0
  C  C73  1  0.57355046  0.54438140  0.76773263  1.0
  C  C74  1  0.45111862  0.51067421  0.79138775  1.0
  C  C75  1  0.38730971  0.54590030  0.24118756  1.0
  C  C76  1  0.38818400  0.53688188  0.29975229  1.0
  C  C77  1  0.49828408  0.48482966  0.32670039  1.0
  C  C78  1  0.61014515  0.44737823  0.29514340  1.0
  C  C79  1  0.60954522  0.45896928  0.23647104  1.0
  C  C80  1  0.50582303  0.25538464  0.50790545  1.0
  C  C81  1  0.49695570  0.50494078  0.20932211  1.0
  C  C82  1  0.60543169  0.06105735  0.46628841  1.0
  C  C83  1  0.51604996  0.11607047  0.50355848  1.0
  C  C84  1  0.60163068  0.93169443  0.45042817  1.0
  C  C85  1  0.49141490  0.85580598  0.45359676  1.0
  C  C86  1  0.07760495  0.45851241  0.46532873  1.0
  C  C87  1  0.93500500  0.49455386  0.46074886  1.0
  C  C88  1  0.49619672  0.47089946  0.38986991  1.0
  C  C89  1  0.46688899  0.39172557  0.12338279  1.0
  C  C90  1  0.49966688  0.62399005  0.12143293  1.0
  C  C91  1  0.48243993  0.62592710  0.05922539  1.0
  C  C92  1  0.46186815  0.51122622  0.03084417  1.0
  C  C93  1  0.45771618  0.39629154  0.06119509  1.0
  C  C94  1  0.83705361  0.11435985  0.47164909  1.0
  C  C95  1  0.83592797  0.08993324  0.53546329  1.0
  C  C96  1  0.80119778  0.95863233  0.55664506  1.0
  C  C97  1  0.30767997  0.08222685  0.55709445  1.0
  C  C98  1  0.31496998  0.14964989  0.61321212  1.0
  C  C99  1  0.17586156  0.18657319  0.63437568  1.0
  C  C100  1  0.74861795  0.88516122  0.37342850  1.0
  C  C101  1  0.65518370  0.81098074  0.33709761  1.0
  C  C102  1  0.70762261  0.80474130  0.27586592  1.0
  C  C103  1  0.27860888  0.84621508  0.41461821  1.0
  C  C104  1  0.20194645  0.94366712  0.38094445  1.0
  C  C105  1  0.12861332  0.88367807  0.33243506  1.0
  C  C106  1  0.13663078  0.34694414  0.37859944  1.0
  C  C107  1  0.03090910  0.26813399  0.35232363  1.0
  C  C108  1  0.05172038  0.26570164  0.28791135  1.0
  C  C109  1  0.14291461  0.65072842  0.57755540  1.0
  C  C110  1  0.05390970  0.75127789  0.60238339  1.0
  C  C111  1  0.08875451  0.77664862  0.66384105  1.0
  C  C112  1  0.27670678  0.13605470  0.93185808  1.0
  C  C113  1  0.20240040  0.06161516  0.97761372  1.0
  C  C114  1  0.05947946  0.03378333  0.96208327  1.0
  Br  Br115  1  0.51598167  0.89649876  0.05662831  1.0
  Br  Br116  1  0.76332828  0.41248779  0.19351704  1.0
  Br  Br117  1  0.88774594  0.57665356  0.39302875  1.0
  Br  Br118  1  0.90026223  0.40100183  0.56717470  1.0
  Br  Br119  1  0.17560823  0.44369987  0.78464948  1.0
  Br  Br120  1  0.76574712  0.60479395  0.68537102  1.0
  N  N121  1  0.48944878  0.50670807  0.14886834  1.0
  N  N122  1  0.43706988  0.51009817  0.85195046  1.0
  N  N123  1  0.15490266  0.52035895  0.49752739  1.0
  N  N124  1  0.84413672  0.47374302  0.49829568  1.0
  O  O125  1  0.39772155  0.67957133  0.49689010  1.0
  O  O126  1  0.52051764  0.71639444  0.14984474  1.0
  O  O127  1  0.43395508  0.72436080  0.85067944  1.0
  O  O128  1  0.42738537  0.29737016  0.85124285  1.0
  O  O129  1  0.61107921  0.66385586  0.46529521  1.0
  O  O130  1  0.39402374  0.48170229  0.58499782  1.0
  O  O131  1  0.60767890  0.54470917  0.58299870  1.0
  O  O132  1  0.39357368  0.30256542  0.49573120  1.0
  O  O133  1  0.60788075  0.31460312  0.52232528  1.0
  O  O134  1  0.38608667  0.49952983  0.41421629  1.0
  O  O135  1  0.60105490  0.43403257  0.41371380  1.0
  O  O136  1  0.45464816  0.29569991  0.15181033  1.0
  O  O137  1  0.70937426  0.13138072  0.44453049  1.0
  O  O138  1  0.43652639  0.04193413  0.53559145  1.0
  O  O139  1  0.72272837  0.88105685  0.43417174  1.0
  O  O140  1  0.36664782  0.90819328  0.45267766  1.0
  O  O141  1  0.12218424  0.35419612  0.44100323  1.0
  O  O142  1  0.09014319  0.62205104  0.52208013  1.0
  O  O143  1  0.40750044  0.16677523  0.95257277  1.0
