# generated using pymatgen
data_Zn3H32C52(NO6)2
_symmetry_space_group_name_H-M   'P 1'
_cell_length_a   14.71581997
_cell_length_b   18.06942484
_cell_length_c   24.91583204
_cell_angle_alpha   90.00008856
_cell_angle_beta   90.05928601
_cell_angle_gamma   89.99995378
_symmetry_Int_Tables_number   1
_chemical_formula_structural   Zn3H32C52(NO6)2
_chemical_formula_sum   'Zn12 H128 C208 N8 O48'
_cell_volume   6625.27572641
_cell_formula_units_Z   4
loop_
 _symmetry_equiv_pos_site_id
 _symmetry_equiv_pos_as_xyz
  1  'x, y, z'
loop_
 _atom_site_type_symbol
 _atom_site_label
 _atom_site_symmetry_multiplicity
 _atom_site_fract_x
 _atom_site_fract_y
 _atom_site_fract_z
 _atom_site_occupancy
  Zn  Zn0  1  0.53911355  0.06483843  0.85066441  1.0
  Zn  Zn1  1  0.50640235  0.25618653  0.84892346  1.0
  Zn  Zn2  1  0.46855606  0.44914067  0.84995896  1.0
  Zn  Zn3  1  0.03911359  0.43516086  0.35066338  1.0
  Zn  Zn4  1  0.00640327  0.24381333  0.34892301  1.0
  Zn  Zn5  1  0.96855664  0.05085890  0.34995835  1.0
  Zn  Zn6  1  0.96088681  0.56483850  0.64933646  1.0
  Zn  Zn7  1  0.99359578  0.75618714  0.65107722  1.0
  Zn  Zn8  1  0.03144240  0.94914047  0.65004109  1.0
  Zn  Zn9  1  0.46088686  0.93516093  0.14933623  1.0
  Zn  Zn10  1  0.49359737  0.74381283  0.15107678  1.0
  Zn  Zn11  1  0.53144503  0.55086035  0.15004127  1.0
  H  H12  1  0.48707824  0.94943503  0.92892161  1.0
  H  H13  1  0.46507463  0.81205436  0.93128383  1.0
  H  H14  1  0.55777167  0.80611041  0.76641333  1.0
  H  H15  1  0.57625917  0.94331732  0.77146893  1.0
  H  H16  1  0.52542067  0.56386990  0.92701202  1.0
  H  H17  1  0.54828190  0.70118694  0.92978458  1.0
  H  H18  1  0.44167062  0.70972055  0.76788912  1.0
  H  H19  1  0.42486148  0.57218658  0.77202302  1.0
  H  H20  1  0.83024595  0.08701277  0.81692853  1.0
  H  H21  1  0.98757473  0.13447964  0.81032144  1.0
  H  H22  1  0.90185778  0.33891127  0.88452509  1.0
  H  H23  1  0.74411415  0.29139791  0.88818332  1.0
  H  H24  1  0.01197188  0.38533635  0.84657484  1.0
  H  H25  1  0.16864447  0.43323434  0.84535246  1.0
  H  H26  1  0.27283034  0.21177898  0.83423971  1.0
  H  H27  1  0.11612086  0.16191802  0.84029314  1.0
  H  H28  1  0.37786848  0.01964627  0.98670078  1.0
  H  H29  1  0.28713191  0.02016996  0.07036248  1.0
  H  H30  1  0.25685270  0.25696720  0.05751697  1.0
  H  H31  1  0.34773928  0.25510533  0.97280338  1.0
  H  H32  1  0.15298671  0.03060535  0.10539496  1.0
  H  H33  1  0.07400561  0.02401755  0.19331008  1.0
  H  H34  1  0.17987393  0.23687547  0.23653748  1.0
  H  H35  1  0.26126763  0.24428344  0.14889688  1.0
  H  H36  1  0.33567888  0.03874845  0.73402535  1.0
  H  H37  1  0.23533492  0.03834606  0.65414128  1.0
  H  H38  1  0.34885296  0.24829344  0.60523781  1.0
  H  H39  1  0.44438042  0.24961395  0.68775918  1.0
  H  H40  1  0.22676958  0.02012624  0.57149659  1.0
  H  H41  1  0.12758144  0.01357424  0.49152018  1.0
  H  H42  1  0.11768681  0.25051315  0.48340693  1.0
  H  H43  1  0.21696836  0.25875088  0.56462355  1.0
  H  H44  1  0.98707882  0.55056608  0.42892100  1.0
  H  H45  1  0.96507576  0.68794567  0.43128377  1.0
  H  H46  1  0.05777127  0.69388843  0.26641282  1.0
  H  H47  1  0.07625959  0.55668207  0.27146827  1.0
  H  H48  1  0.02542139  0.93613096  0.42701219  1.0
  H  H49  1  0.04828140  0.79881336  0.42978419  1.0
  H  H50  1  0.94166893  0.79027859  0.26788837  1.0
  H  H51  1  0.92485966  0.92781314  0.27202282  1.0
  H  H52  1  0.33024398  0.41298736  0.31692948  1.0
  H  H53  1  0.48757281  0.36552149  0.31032153  1.0
  H  H54  1  0.40185945  0.16109008  0.38452455  1.0
  H  H55  1  0.24411578  0.20860244  0.38818323  1.0
  H  H56  1  0.51197172  0.11466406  0.34657430  1.0
  H  H57  1  0.66864368  0.06676542  0.34535146  1.0
  H  H58  1  0.77283069  0.28821957  0.33423856  1.0
  H  H59  1  0.61612252  0.33808120  0.34029245  1.0
  H  H60  1  0.87786660  0.48035420  0.48670065  1.0
  H  H61  1  0.78713146  0.47983134  0.57036318  1.0
  H  H62  1  0.75685248  0.24303354  0.55751700  1.0
  H  H63  1  0.84773831  0.24489568  0.47280298  1.0
  H  H64  1  0.65298695  0.46939335  0.60539564  1.0
  H  H65  1  0.57400583  0.47598084  0.69331037  1.0
  H  H66  1  0.67987573  0.26312349  0.73653754  1.0
  H  H67  1  0.76127012  0.25571528  0.64889692  1.0
  H  H68  1  0.83567770  0.46125151  0.23402479  1.0
  H  H69  1  0.73533374  0.46165380  0.15414112  1.0
  H  H70  1  0.84885267  0.25170569  0.10523782  1.0
  H  H71  1  0.94438013  0.25038528  0.18775959  1.0
  H  H72  1  0.72676974  0.47987344  0.07149645  1.0
  H  H73  1  0.62758166  0.48642530  0.99152008  1.0
  H  H74  1  0.61768590  0.24948693  0.98340657  1.0
  H  H75  1  0.71696740  0.24124990  0.06462355  1.0
  H  H76  1  0.01292023  0.44943494  0.57107884  1.0
  H  H77  1  0.03492601  0.31205591  0.56871688  1.0
  H  H78  1  0.94222845  0.30611204  0.73358742  1.0
  H  H79  1  0.92374014  0.44331840  0.72853157  1.0
  H  H80  1  0.97457833  0.06386951  0.57298805  1.0
  H  H81  1  0.95171764  0.20118766  0.57021564  1.0
  H  H82  1  0.05832808  0.20972133  0.73211186  1.0
  H  H83  1  0.07513735  0.07218733  0.72797782  1.0
  H  H84  1  0.66975507  0.58701255  0.68307116  1.0
  H  H85  1  0.51242624  0.63448064  0.68967871  1.0
  H  H86  1  0.59814163  0.83891150  0.61547529  1.0
  H  H87  1  0.75588531  0.79139748  0.61181660  1.0
  H  H88  1  0.48802868  0.88533641  0.65342514  1.0
  H  H89  1  0.33135605  0.93323450  0.65464797  1.0
  H  H90  1  0.22717107  0.71177924  0.66576008  1.0
  H  H91  1  0.38387924  0.66191816  0.65970659  1.0
  H  H92  1  0.12213244  0.51964737  0.51329919  1.0
  H  H93  1  0.21286759  0.52016968  0.42963706  1.0
  H  H94  1  0.24314657  0.75696693  0.44248244  1.0
  H  H95  1  0.15226141  0.75510534  0.52719726  1.0
  H  H96  1  0.34701210  0.53060657  0.39460500  1.0
  H  H97  1  0.42599321  0.52401797  0.30669027  1.0
  H  H98  1  0.32012468  0.73687532  0.26346270  1.0
  H  H99  1  0.23872961  0.74428464  0.35110331  1.0
  H  H100  1  0.16431999  0.53874674  0.76597585  1.0
  H  H101  1  0.26466735  0.53834612  0.84585832  1.0
  H  H102  1  0.15114638  0.74829367  0.89476242  1.0
  H  H103  1  0.05561824  0.74961353  0.81224105  1.0
  H  H104  1  0.27323135  0.52012813  0.92850419  1.0
  H  H105  1  0.37241943  0.51357572  0.00847975  1.0
  H  H106  1  0.38231382  0.75051354  0.01659367  1.0
  H  H107  1  0.28303165  0.75875112  0.93537669  1.0
  H  H108  1  0.51292217  0.05056488  0.07107943  1.0
  H  H109  1  0.53492510  0.18794445  0.06871722  1.0
  H  H110  1  0.44222806  0.19388840  0.23358772  1.0
  H  H111  1  0.42373988  0.05668149  0.22853212  1.0
  H  H112  1  0.47457906  0.43613113  0.07298741  1.0
  H  H113  1  0.45171782  0.29881409  0.07021526  1.0
  H  H114  1  0.55833047  0.29027936  0.23211112  1.0
  H  H115  1  0.57514028  0.42781279  0.22797722  1.0
  H  H116  1  0.16975581  0.91298659  0.18307171  1.0
  H  H117  1  0.01242635  0.86552194  0.18967880  1.0
  H  H118  1  0.09814127  0.66108976  0.11547515  1.0
  H  H119  1  0.25588490  0.70860200  0.11181732  1.0
  H  H120  1  0.98802921  0.61466412  0.15342620  1.0
  H  H121  1  0.83135594  0.56676724  0.15464738  1.0
  H  H122  1  0.72717006  0.78822204  0.16575933  1.0
  H  H123  1  0.88387886  0.83808245  0.15970670  1.0
  H  H124  1  0.62213124  0.98035310  0.01329906  1.0
  H  H125  1  0.71286713  0.97982940  0.92963776  1.0
  H  H126  1  0.74314703  0.74303326  0.94248287  1.0
  H  H127  1  0.65226045  0.74489458  0.02719646  1.0
  H  H128  1  0.84701301  0.96939290  0.89460448  1.0
  H  H129  1  0.92599344  0.97598181  0.80668976  1.0
  H  H130  1  0.82012443  0.76312389  0.76346155  1.0
  H  H131  1  0.73873074  0.75571537  0.85110256  1.0
  H  H132  1  0.66432152  0.96125147  0.26597489  1.0
  H  H133  1  0.76466549  0.96165331  0.34585816  1.0
  H  H134  1  0.65114744  0.75170593  0.39476203  1.0
  H  H135  1  0.55561998  0.75038541  0.31224026  1.0
  H  H136  1  0.77323083  0.97987312  0.42850365  1.0
  H  H137  1  0.87241829  0.98642512  0.50848006  1.0
  H  H138  1  0.88231427  0.74948676  0.51659371  1.0
  H  H139  1  0.78303272  0.74124959  0.43537669  1.0
  C  C140  1  0.50210016  0.91496129  0.89417838  1.0
  C  C141  1  0.49013961  0.83885538  0.89504169  1.0
  C  C142  1  0.50931104  0.79769187  0.84872726  1.0
  C  C143  1  0.54047084  0.83559009  0.80318825  1.0
  C  C144  1  0.55162146  0.91180834  0.80581762  1.0
  C  C145  1  0.50792232  0.59886489  0.89295761  1.0
  C  C146  1  0.52027518  0.67493427  0.89405342  1.0
  C  C147  1  0.49738982  0.71679389  0.84863658  1.0
  C  C148  1  0.46238602  0.67960120  0.80377356  1.0
  C  C149  1  0.45185767  0.60330990  0.80598348  1.0
  C  C150  1  0.68267233  0.15834884  0.85791064  1.0
  C  C151  1  0.77767660  0.18619861  0.85330772  1.0
  C  C152  1  0.84688049  0.14227741  0.83142767  1.0
  C  C153  1  0.93513857  0.16935848  0.82803419  1.0
  C  C154  1  0.95738668  0.24080903  0.84663299  1.0
  C  C155  1  0.88689302  0.28413032  0.86852224  1.0
  C  C156  1  0.79845861  0.25760156  0.87149906  1.0
  C  C157  1  0.05126528  0.26966414  0.84350019  1.0
  C  C158  1  0.06845657  0.34637881  0.84472483  1.0
  C  C159  1  0.15667896  0.37382071  0.84343884  1.0
  C  C160  1  0.23064294  0.32538306  0.83920617  1.0
  C  C161  1  0.21471260  0.24895783  0.83678913  1.0
  C  C162  1  0.12651999  0.22165816  0.83962435  1.0
  C  C163  1  0.32623562  0.35299542  0.83790255  1.0
  C  C164  1  0.42471598  0.13633391  0.92489662  1.0
  C  C165  1  0.36860422  0.13743473  0.97481096  1.0
  C  C166  1  0.35032067  0.07136630  0.00217539  1.0
  C  C167  1  0.29879523  0.07184065  0.04882023  1.0
  C  C168  1  0.26527559  0.13862532  0.07012694  1.0
  C  C169  1  0.28383460  0.20477902  0.04230543  1.0
  C  C170  1  0.33401742  0.20421608  0.99491647  1.0
  C  C171  1  0.21397709  0.13754677  0.12098042  1.0
  C  C172  1  0.16019181  0.07573631  0.13411967  1.0
  C  C173  1  0.11564575  0.07178772  0.18307098  1.0
  C  C174  1  0.12357949  0.12935849  0.22048359  1.0
  C  C175  1  0.17515700  0.19203505  0.20741987  1.0
  C  C176  1  0.21954858  0.19603511  0.15818917  1.0
  C  C177  1  0.07789119  0.12328975  0.27376349  1.0
  C  C178  1  0.45721458  0.14200297  0.76348310  1.0
  C  C179  1  0.39664590  0.14380211  0.71542170  1.0
  C  C180  1  0.33737190  0.08455618  0.70561067  1.0
  C  C181  1  0.28186754  0.08447591  0.66057031  1.0
  C  C182  1  0.28521291  0.14307264  0.62334411  1.0
  C  C183  1  0.34402880  0.20280060  0.63387260  1.0
  C  C184  1  0.39853682  0.20356324  0.67959614  1.0
  C  C185  1  0.22839066  0.14009354  0.57458037  1.0
  C  C186  1  0.20277363  0.07113560  0.55289728  1.0
  C  C187  1  0.14714093  0.06710888  0.50796283  1.0
  C  C188  1  0.11482332  0.13175398  0.48344726  1.0
  C  C189  1  0.14158771  0.20075453  0.50380507  1.0
  C  C190  1  0.19781290  0.20473531  0.54865302  1.0
  C  C191  1  0.05230786  0.12779699  0.43635808  1.0
  C  C192  1  0.00209987  0.58503896  0.39417895  1.0
  C  C193  1  0.99014009  0.66114344  0.39504120  1.0
  C  C194  1  0.00931064  0.70230773  0.34872677  1.0
  C  C195  1  0.04047047  0.66440884  0.30318811  1.0
  C  C196  1  0.05162253  0.58819114  0.30581660  1.0
  C  C197  1  0.00792240  0.90113369  0.39295694  1.0
  C  C198  1  0.02027533  0.82506320  0.39405346  1.0
  C  C199  1  0.99738882  0.78320760  0.34863582  1.0
  C  C200  1  0.96238498  0.82039801  0.30377325  1.0
  C  C201  1  0.95185723  0.89668987  0.30598285  1.0
  C  C202  1  0.18267111  0.34165093  0.35791352  1.0
  C  C203  1  0.27767812  0.31380385  0.35330815  1.0
  C  C204  1  0.34687858  0.35772386  0.33142815  1.0
  C  C205  1  0.43513871  0.33064272  0.32803424  1.0
  C  C206  1  0.45738622  0.25919109  0.34663256  1.0
  C  C207  1  0.38689328  0.21587100  0.36852297  1.0
  C  C208  1  0.29845953  0.24239816  0.37150062  1.0
  C  C209  1  0.55126569  0.23033624  0.34349817  1.0
  C  C210  1  0.56845570  0.15362156  0.34472313  1.0
  C  C211  1  0.65667879  0.12617960  0.34343750  1.0
  C  C212  1  0.73064068  0.17461553  0.33920328  1.0
  C  C213  1  0.71471094  0.25104132  0.33678673  1.0
  C  C214  1  0.62652035  0.27834106  0.33962199  1.0
  C  C215  1  0.82623610  0.14700421  0.33790083  1.0
  C  C216  1  0.92471557  0.36366474  0.42489515  1.0
  C  C217  1  0.86860313  0.36256682  0.47481149  1.0
  C  C218  1  0.85032027  0.42863426  0.50217442  1.0
  C  C219  1  0.79879618  0.42815950  0.54882047  1.0
  C  C220  1  0.76527729  0.36137434  0.57012750  1.0
  C  C221  1  0.78383500  0.29522112  0.54230512  1.0
  C  C222  1  0.83401640  0.29578388  0.49491573  1.0
  C  C223  1  0.71397811  0.36245413  0.62098139  1.0
  C  C224  1  0.66019141  0.42426355  0.63412111  1.0
  C  C225  1  0.61564534  0.42821172  0.68307162  1.0
  C  C226  1  0.62357914  0.37064103  0.72048457  1.0
  C  C227  1  0.67515807  0.30796440  0.70741997  1.0
  C  C228  1  0.71954966  0.30396421  0.65819007  1.0
  C  C229  1  0.57789015  0.37670936  0.77376407  1.0
  C  C230  1  0.95721282  0.35799531  0.26348323  1.0
  C  C231  1  0.89664278  0.35619832  0.21542102  1.0
  C  C232  1  0.83737280  0.41544261  0.20561126  1.0
  C  C233  1  0.78186708  0.41552504  0.16056930  1.0
  C  C234  1  0.78521116  0.35692822  0.12334343  1.0
  C  C235  1  0.84402643  0.29719914  0.13387186  1.0
  C  C236  1  0.89853444  0.29643490  0.17959539  1.0
  C  C237  1  0.72838958  0.35990615  0.07458010  1.0
  C  C238  1  0.70277180  0.42886572  0.05289668  1.0
  C  C239  1  0.64714045  0.43289183  0.00796304  1.0
  C  C240  1  0.61482365  0.36824555  0.98344743  1.0
  C  C241  1  0.64158737  0.29924507  0.00380553  1.0
  C  C242  1  0.69781121  0.29526379  0.04865308  1.0
  C  C243  1  0.55230547  0.37220303  0.93635866  1.0
  C  C244  1  0.99790121  0.41496206  0.60582169  1.0
  C  C245  1  0.00986304  0.33885703  0.60495904  1.0
  C  C246  1  0.99069113  0.29769274  0.65127347  1.0
  C  C247  1  0.95953061  0.33559218  0.69681213  1.0
  C  C248  1  0.94837856  0.41180988  0.69418364  1.0
  C  C249  1  0.99207461  0.09886733  0.60704250  1.0
  C  C250  1  0.97972235  0.17493561  0.60594717  1.0
  C  C251  1  0.00260955  0.21679343  0.65136401  1.0
  C  C252  1  0.03761203  0.17960191  0.69622780  1.0
  C  C253  1  0.04813910  0.10331004  0.69401779  1.0
  C  C254  1  0.81732658  0.65834788  0.64208873  1.0
  C  C255  1  0.72232364  0.68619772  0.64669129  1.0
  C  C256  1  0.65311911  0.64227717  0.66857209  1.0
  C  C257  1  0.56486101  0.66935830  0.67196520  1.0
  C  C258  1  0.54261351  0.74080882  0.65336688  1.0
  C  C259  1  0.61310712  0.78413002  0.63147727  1.0
  C  C260  1  0.70154156  0.75760120  0.62850042  1.0
  C  C261  1  0.44873540  0.76966312  0.65649966  1.0
  C  C262  1  0.43154403  0.84637891  0.65527470  1.0
  C  C263  1  0.34332025  0.87382032  0.65656113  1.0
  C  C264  1  0.26935700  0.82538273  0.66079414  1.0
  C  C265  1  0.28528878  0.74895804  0.66321070  1.0
  C  C266  1  0.37348073  0.72165830  0.66037544  1.0
  C  C267  1  0.17376430  0.85299625  0.66209700  1.0
  C  C268  1  0.07528619  0.63633407  0.57510348  1.0
  C  C269  1  0.13139659  0.63743475  0.52518834  1.0
  C  C270  1  0.14967878  0.57136620  0.49782421  1.0
  C  C271  1  0.20120287  0.57184097  0.45117937  1.0
  C  C272  1  0.23472311  0.63862613  0.42987314  1.0
  C  C273  1  0.21616404  0.70477935  0.45769392  1.0
  C  C274  1  0.16598265  0.70421714  0.50508371  1.0
  C  C275  1  0.28602161  0.63754578  0.37901885  1.0
  C  C276  1  0.33980831  0.57573637  0.36587953  1.0
  C  C277  1  0.38435371  0.57178764  0.31692862  1.0
  C  C278  1  0.37641991  0.62935834  0.27951607  1.0
  C  C279  1  0.32484166  0.69203496  0.29257987  1.0
  C  C280  1  0.28045006  0.69603571  0.34181017  1.0
  C  C281  1  0.42210957  0.62329000  0.22623657  1.0
  C  C282  1  0.04278419  0.64200128  0.73651982  1.0
  C  C283  1  0.10335490  0.64380104  0.78457962  1.0
  C  C284  1  0.16262829  0.58455509  0.79438938  1.0
  C  C285  1  0.21813400  0.58447488  0.83943014  1.0
  C  C286  1  0.21479061  0.64307280  0.87665440  1.0
  C  C287  1  0.15597194  0.70280133  0.86612838  1.0
  C  C288  1  0.10146460  0.70356280  0.82040525  1.0
  C  C289  1  0.27161015  0.64009432  0.92541933  1.0
  C  C290  1  0.29722793  0.57113586  0.94710315  1.0
  C  C291  1  0.35285995  0.56710809  0.99203760  1.0
  C  C292  1  0.38517743  0.63175437  0.01655241  1.0
  C  C293  1  0.35841304  0.70075540  0.99619511  1.0
  C  C294  1  0.30218920  0.70473668  0.95134756  1.0
  C  C295  1  0.44769630  0.62779744  0.06364198  1.0
  C  C296  1  0.49790160  0.08503807  0.10582106  1.0
  C  C297  1  0.50986215  0.16114232  0.10495855  1.0
  C  C298  1  0.49069004  0.20230804  0.15127338  1.0
  C  C299  1  0.45952821  0.16440983  0.19681159  1.0
  C  C300  1  0.44837963  0.08819102  0.19418342  1.0
  C  C301  1  0.49207808  0.40113392  0.10704223  1.0
  C  C302  1  0.47972455  0.32506288  0.10594642  1.0
  C  C303  1  0.50261058  0.28320547  0.15136486  1.0
  C  C304  1  0.53761507  0.32039761  0.19622628  1.0
  C  C305  1  0.54814410  0.39669113  0.19401595  1.0
  C  C306  1  0.31732943  0.84165163  0.14208879  1.0
  C  C307  1  0.22232381  0.81380130  0.14669332  1.0
  C  C308  1  0.15312059  0.85772361  0.16857257  1.0
  C  C309  1  0.06486252  0.83064199  0.17196565  1.0
  C  C310  1  0.04261305  0.75919144  0.15336845  1.0
  C  C311  1  0.11310739  0.71587070  0.13147800  1.0
  C  C312  1  0.20154247  0.74239780  0.12850158  1.0
  C  C313  1  0.94873376  0.73033688  0.15650005  1.0
  C  C314  1  0.93154315  0.65362111  0.15527581  1.0
  C  C315  1  0.84332008  0.62618031  0.15656060  1.0
  C  C316  1  0.76935815  0.67461851  0.16079286  1.0
  C  C317  1  0.78528713  0.75104264  0.16321071  1.0
  C  C318  1  0.87347973  0.77834287  0.16037508  1.0
  C  C319  1  0.67376411  0.64700450  0.16209528  1.0
  C  C320  1  0.57528443  0.86366601  0.07510362  1.0
  C  C321  1  0.63139619  0.86256463  0.02518888  1.0
  C  C322  1  0.64967905  0.92863362  0.99782445  1.0
  C  C323  1  0.70120450  0.92815872  0.95117881  1.0
  C  C324  1  0.73472345  0.86137515  0.92987250  1.0
  C  C325  1  0.71616513  0.79522145  0.95769521  1.0
  C  C326  1  0.66598095  0.79578328  0.00508457  1.0
  C  C327  1  0.78602331  0.86245370  0.87901902  1.0
  C  C328  1  0.83980927  0.92426305  0.86587976  1.0
  C  C329  1  0.88435398  0.92821164  0.81692926  1.0
  C  C330  1  0.87641956  0.87064087  0.77951625  1.0
  C  C331  1  0.82484137  0.80796431  0.79257997  1.0
  C  C332  1  0.78045114  0.80396370  0.84181027  1.0
  C  C333  1  0.92210854  0.87671183  0.72623635  1.0
  C  C334  1  0.54278515  0.85799584  0.23651714  1.0
  C  C335  1  0.60335654  0.85619781  0.28457854  1.0
  C  C336  1  0.66262715  0.91544207  0.29438877  1.0
  C  C337  1  0.71813423  0.91552512  0.33943034  1.0
  C  C338  1  0.71478953  0.85692894  0.37665573  1.0
  C  C339  1  0.65597228  0.79720042  0.36612804  1.0
  C  C340  1  0.60146563  0.79643501  0.32040451  1.0
  C  C341  1  0.77160907  0.85990638  0.42541987  1.0
  C  C342  1  0.79722746  0.92886542  0.44710336  1.0
  C  C343  1  0.85285880  0.93289159  0.49203741  1.0
  C  C344  1  0.88517573  0.86824538  0.51655298  1.0
  C  C345  1  0.85841202  0.79924539  0.49619477  1.0
  C  C346  1  0.80218750  0.79526405  0.45134681  1.0
  C  C347  1  0.94769255  0.87220459  0.56364336  1.0
  N  N348  1  0.53267426  0.95085889  0.85041233  1.0
  N  N349  1  0.47424219  0.56348299  0.84970003  1.0
  N  N350  1  0.03267332  0.54914125  0.35041207  1.0
  N  N351  1  0.97424308  0.93651575  0.34969985  1.0
  N  N352  1  0.96732640  0.45085867  0.64958777  1.0
  N  N353  1  0.02575393  0.06348417  0.65030119  1.0
  N  N354  1  0.46732955  0.04914103  0.14958831  1.0
  N  N355  1  0.52575957  0.43651748  0.15029980  1.0
  O  O356  1  0.66738873  0.09155091  0.84172146  1.0
  O  O357  1  0.62266679  0.19977687  0.87819756  1.0
  O  O358  1  0.33984872  0.42038164  0.85385880  1.0
  O  O359  1  0.38779687  0.31049763  0.82130335  1.0
  O  O360  1  0.47854526  0.08038578  0.91994569  1.0
  O  O361  1  0.41535209  0.18792544  0.89128720  1.0
  O  O362  1  0.02536152  0.06683861  0.27991122  1.0
  O  O363  1  0.09430213  0.17128633  0.30938968  1.0
  O  O364  1  0.46014045  0.07968945  0.78855886  1.0
  O  O365  1  0.50172039  0.19917192  0.77616532  1.0
  O  O366  1  0.04329385  0.06359625  0.41443446  1.0
  O  O367  1  0.01149575  0.18575567  0.42170451  1.0
  O  O368  1  0.16738812  0.40845105  0.34172320  1.0
  O  O369  1  0.12266765  0.30022630  0.37820039  1.0
  O  O370  1  0.83984928  0.07961636  0.35385781  1.0
  O  O371  1  0.88779460  0.18950027  0.32130329  1.0
  O  O372  1  0.97854684  0.41961448  0.41994669  1.0
  O  O373  1  0.91535173  0.31207646  0.39128608  1.0
  O  O374  1  0.52536247  0.43315944  0.77991307  1.0
  O  O375  1  0.59430114  0.32871008  0.80939142  1.0
  O  O376  1  0.96013796  0.42031000  0.28855906  1.0
  O  O377  1  0.00171649  0.30082891  0.27616373  1.0
  O  O378  1  0.54329140  0.43640096  0.91443510  1.0
  O  O379  1  0.51149274  0.31423992  0.92170462  1.0
  O  O380  1  0.83261093  0.59155108  0.65827784  1.0
  O  O381  1  0.87733276  0.69977638  0.62180065  1.0
  O  O382  1  0.16014977  0.92038079  0.64613961  1.0
  O  O383  1  0.11220308  0.81049854  0.67869694  1.0
  O  O384  1  0.02145832  0.58038488  0.58005475  1.0
  O  O385  1  0.08464867  0.68792622  0.60871376  1.0
  O  O386  1  0.47463929  0.56684048  0.22008757  1.0
  O  O387  1  0.40569790  0.67128818  0.19060963  1.0
  O  O388  1  0.03985769  0.57968937  0.71144238  1.0
  O  O389  1  0.99827916  0.69917101  0.72383651  1.0
  O  O390  1  0.45670901  0.56359840  0.08556473  1.0
  O  O391  1  0.48850902  0.68575999  0.07829442  1.0
  O  O392  1  0.33261236  0.90844956  0.15827838  1.0
  O  O393  1  0.37733430  0.80022415  0.12180227  1.0
  O  O394  1  0.66015304  0.57961828  0.14613863  1.0
  O  O395  1  0.61220285  0.68950118  0.17869367  1.0
  O  O396  1  0.52145718  0.91961524  0.08005415  1.0
  O  O397  1  0.58464832  0.81207558  0.10871424  1.0
  O  O398  1  0.97463481  0.93316241  0.72008741  1.0
  O  O399  1  0.90569828  0.82871193  0.69060895  1.0
  O  O400  1  0.53986063  0.92030992  0.21144138  1.0
  O  O401  1  0.49828070  0.80082855  0.22383532  1.0
  O  O402  1  0.95670520  0.93640256  0.58556578  1.0
  O  O403  1  0.98850466  0.81423982  0.57829613  1.0
