# generated using pymatgen
data_ZnH2C19Br2(O2F3)2
_symmetry_space_group_name_H-M   'P 1'
_cell_length_a   15.02422219
_cell_length_b   15.14419663
_cell_length_c   39.14502585
_cell_angle_alpha   89.86542321
_cell_angle_beta   89.67163294
_cell_angle_gamma   89.23346535
_symmetry_Int_Tables_number   1
_chemical_formula_structural   ZnH2C19Br2(O2F3)2
_chemical_formula_sum   'Zn4 H8 C76 Br8 O16 F24'
_cell_volume   8905.69260504
_cell_formula_units_Z   4
loop_
 _symmetry_equiv_pos_site_id
 _symmetry_equiv_pos_as_xyz
  1  'x, y, z'
loop_
 _atom_site_type_symbol
 _atom_site_label
 _atom_site_symmetry_multiplicity
 _atom_site_fract_x
 _atom_site_fract_y
 _atom_site_fract_z
 _atom_site_occupancy
  Zn  Zn0  1  0.58598745  0.99783938  0.49925021  1.0
  Zn  Zn1  1  0.41398476  0.00009852  0.49992360  1.0
  Zn  Zn2  1  0.50086162  0.90607768  0.99966927  1.0
  Zn  Zn3  1  0.49849726  0.08627337  0.99954070  1.0
  H  H4  1  0.35790661  0.27662254  0.50119081  1.0
  H  H5  1  0.64307947  0.27275249  0.49776890  1.0
  H  H6  1  0.64350036  0.72103881  0.50055973  1.0
  H  H7  1  0.35824755  0.72513615  0.49893370  1.0
  H  H8  1  0.22375043  0.17538565  0.99851233  1.0
  H  H9  1  0.22689859  0.89253936  0.99884298  1.0
  H  H10  1  0.77514759  0.89267016  0.00132802  1.0
  H  H11  1  0.77084631  0.17552409  0.00134052  1.0
  C  C12  1  0.49877350  0.00070134  0.43328534  1.0
  C  C13  1  0.50054990  0.16820750  0.49941663  1.0
  C  C14  1  0.49941608  0.00094865  0.56588759  1.0
  C  C15  1  0.50106926  0.82973131  0.49971226  1.0
  C  C16  1  0.49819115  0.95765337  0.06381888  1.0
  C  C17  1  0.33240471  0.03209318  0.99817134  1.0
  C  C18  1  0.50240739  0.95809658  0.93546067  1.0
  C  C19  1  0.66596825  0.03224835  0.00129332  1.0
  C  C20  1  0.41975086  0.31307797  0.50039661  1.0
  C  C21  1  0.41806354  0.40552263  0.50015344  1.0
  C  C22  1  0.33577797  0.45591322  0.50044653  1.0
  C  C23  1  0.58128752  0.31088417  0.49858706  1.0
  C  C24  1  0.58306796  0.40325329  0.49900384  1.0
  C  C25  1  0.66543545  0.45131000  0.49890879  1.0
  C  C26  1  0.58158927  0.68470121  0.50012212  1.0
  C  C27  1  0.58321817  0.59226428  0.49977016  1.0
  C  C28  1  0.66551368  0.54188544  0.49949391  1.0
  C  C29  1  0.42006113  0.68702261  0.49931717  1.0
  C  C30  1  0.41821563  0.59462683  0.49962756  1.0
  C  C31  1  0.33585148  0.54651180  0.49998808  1.0
  C  C32  1  0.50051907  0.26660619  0.49944733  1.0
  C  C33  1  0.50059219  0.45205218  0.49959517  1.0
  C  C34  1  0.50089566  0.73128839  0.49971391  1.0
  C  C35  1  0.50067190  0.54576443  0.49965352  1.0
  C  C36  1  0.49848059  0.96063882  0.89721926  1.0
  C  C37  1  0.54109411  0.89730452  0.87653909  1.0
  C  C38  1  0.54185108  0.90575965  0.84102945  1.0
  C  C39  1  0.45528759  0.03162483  0.88074384  1.0
  C  C40  1  0.45668344  0.03964100  0.84532561  1.0
  C  C41  1  0.50014263  0.97719407  0.82476356  1.0
  C  C42  1  0.49998436  0.98601842  0.78708209  1.0
  C  C43  1  0.55520904  0.04571539  0.77019127  1.0
  C  C44  1  0.44328826  0.93503117  0.76726233  1.0
  C  C45  1  0.49987628  0.00324103  0.60428594  1.0
  C  C46  1  0.43119253  0.04492951  0.62282258  1.0
  C  C47  1  0.43139693  0.04595581  0.65844481  1.0
  C  C48  1  0.56894617  0.96330302  0.62293895  1.0
  C  C49  1  0.56868666  0.96447804  0.65853458  1.0
  C  C50  1  0.49983338  0.00539770  0.67700924  1.0
  C  C51  1  0.49841885  0.00164004  0.71483531  1.0
  C  C52  1  0.44206543  0.94312722  0.73182763  1.0
  C  C53  1  0.55488387  0.05294462  0.73467414  1.0
  C  C54  1  0.50223627  0.96017555  0.10206052  1.0
  C  C55  1  0.54531206  0.03018383  0.11832771  1.0
  C  C56  1  0.54385102  0.03855504  0.15371988  1.0
  C  C57  1  0.45958366  0.89813721  0.12288802  1.0
  C  C58  1  0.45859828  0.90698087  0.15836886  1.0
  C  C59  1  0.50029531  0.97742052  0.17444005  1.0
  C  C60  1  0.50037681  0.98634396  0.21211250  1.0
  C  C61  1  0.55728722  0.93409516  0.23204620  1.0
  C  C62  1  0.44467124  0.04706246  0.22890174  1.0
  C  C63  1  0.49874321  0.00307905  0.39488826  1.0
  C  C64  1  0.43007844  0.96462942  0.37620042  1.0
  C  C65  1  0.43077359  0.96568585  0.34060524  1.0
  C  C66  1  0.56754329  0.04309575  0.37639034  1.0
  C  C67  1  0.56773130  0.04409678  0.34076778  1.0
  C  C68  1  0.49962679  0.00511100  0.32217252  1.0
  C  C69  1  0.50134937  0.00150469  0.28435906  1.0
  C  C70  1  0.44463530  0.05400712  0.26442045  1.0
  C  C71  1  0.55826581  0.94202235  0.26747182  1.0
  C  C72  1  0.18674518  0.11415608  0.99879927  1.0
  C  C73  1  0.09348133  0.11593024  0.99944880  1.0
  C  C74  1  0.04269013  0.19755471  0.99977799  1.0
  C  C75  1  0.18842121  0.95384832  0.99897669  1.0
  C  C76  1  0.09538558  0.95223403  0.99961862  1.0
  C  C77  1  0.04693706  0.87052981  0.00006911  1.0
  C  C78  1  0.81203125  0.95395801  0.00121089  1.0
  C  C79  1  0.90511070  0.95231223  0.00082470  1.0
  C  C80  1  0.95566330  0.87057129  0.00062071  1.0
  C  C81  1  0.80945283  0.11426824  0.00120371  1.0
  C  C82  1  0.90267824  0.11599943  0.00079049  1.0
  C  C83  1  0.95133520  0.19759450  0.00048447  1.0
  C  C84  1  0.23330965  0.03388181  0.99857072  1.0
  C  C85  1  0.04638374  0.03416346  0.99987549  1.0
  C  C86  1  0.76501638  0.03400467  0.00132567  1.0
  C  C87  1  0.95193698  0.03420482  0.00052147  1.0
  Br  Br88  1  0.22727667  0.61176676  0.50001160  1.0
  Br  Br89  1  0.22711651  0.39370181  0.50140344  1.0
  Br  Br90  1  0.77417590  0.60408813  0.49983372  1.0
  Br  Br91  1  0.77398895  0.38604722  0.49809160  1.0
  Br  Br92  1  0.88565172  0.30533745  0.00104334  1.0
  Br  Br93  1  0.10553467  0.30527455  0.99918553  1.0
  Br  Br94  1  0.89268128  0.76290814  0.00108463  1.0
  Br  Br95  1  0.11274304  0.76281477  0.99986542  1.0
  O  O96  1  0.57316665  0.98421229  0.44747285  1.0
  O  O97  1  0.42438956  0.01514997  0.44807669  1.0
  O  O98  1  0.42599630  0.13064863  0.50479624  1.0
  O  O99  1  0.57515739  0.12874720  0.49403477  1.0
  O  O100  1  0.42496068  0.98635617  0.55179245  1.0
  O  O101  1  0.57368862  0.01363937  0.55100987  1.0
  O  O102  1  0.57584193  0.86722901  0.50443832  1.0
  O  O103  1  0.42640916  0.86935229  0.49496610  1.0
  O  O104  1  0.50138666  0.88219478  0.04890247  1.0
  O  O105  1  0.49144523  0.03181302  0.04913313  1.0
  O  O106  1  0.37213053  0.10721120  0.99802748  1.0
  O  O107  1  0.37142679  0.95718154  0.99807900  1.0
  O  O108  1  0.50700432  0.03221599  0.95006776  1.0
  O  O109  1  0.50125198  0.88256791  0.95046491  1.0
  O  O110  1  0.62893889  0.95735380  0.00123263  1.0
  O  O111  1  0.62424071  0.10738289  0.00122114  1.0
  F  F112  1  0.40939786  0.09328300  0.89854290  1.0
  F  F113  1  0.41402623  0.10888144  0.83061211  1.0
  F  F114  1  0.58523108  0.82821621  0.89043841  1.0
  F  F115  1  0.58498978  0.84395000  0.82212098  1.0
  F  F116  1  0.61053321  0.09675658  0.78841279  1.0
  F  F117  1  0.61021158  0.11054592  0.71933607  1.0
  F  F118  1  0.38838051  0.87712851  0.78264483  1.0
  F  F119  1  0.38649884  0.89224501  0.71364474  1.0
  F  F120  1  0.63552702  0.92325443  0.67548081  1.0
  F  F121  1  0.63602623  0.91987622  0.60696460  1.0
  F  F122  1  0.36395708  0.08721833  0.67523320  1.0
  F  F123  1  0.36399335  0.08705540  0.60662758  1.0
  F  F124  1  0.41561453  0.83006543  0.10914553  1.0
  F  F125  1  0.41534467  0.84653293  0.17745852  1.0
  F  F126  1  0.59114246  0.09046465  0.10029797  1.0
  F  F127  1  0.58643431  0.10681686  0.16822934  1.0
  F  F128  1  0.61258456  0.87503734  0.21679339  1.0
  F  F129  1  0.61411457  0.88999910  0.28576467  1.0
  F  F130  1  0.38917133  0.09936445  0.21057047  1.0
  F  F131  1  0.38868109  0.11247729  0.27965885  1.0
  F  F132  1  0.63520507  0.08380096  0.32401274  1.0
  F  F133  1  0.63446795  0.08364688  0.39260431  1.0
  F  F134  1  0.36436792  0.92578936  0.32364000  1.0
  F  F135  1  0.36302774  0.92269094  0.39214619  1.0
