# generated using pymatgen
data_NiH18C18(NO3)2
_symmetry_space_group_name_H-M   'P 1'
_cell_length_a   9.26693143
_cell_length_b   12.90547095
_cell_length_c   19.99592842
_cell_angle_alpha   71.23487587
_cell_angle_beta   76.95135842
_cell_angle_gamma   89.85213994
_symmetry_Int_Tables_number   1
_chemical_formula_structural   NiH18C18(NO3)2
_chemical_formula_sum   'Ni4 H72 C72 N8 O24'
_cell_volume   2199.44464230
_cell_formula_units_Z   4
loop_
 _symmetry_equiv_pos_site_id
 _symmetry_equiv_pos_as_xyz
  1  'x, y, z'
loop_
 _atom_site_type_symbol
 _atom_site_label
 _atom_site_symmetry_multiplicity
 _atom_site_fract_x
 _atom_site_fract_y
 _atom_site_fract_z
 _atom_site_occupancy
  Ni  Ni0  1  0.82532329  0.36521167  0.72738541  1.0
  Ni  Ni1  1  0.67386032  0.09147552  0.27211680  1.0
  Ni  Ni2  1  0.17404593  0.63514340  0.27276938  1.0
  Ni  Ni3  1  0.32718804  0.90871842  0.72774481  1.0
  H  H4  1  0.56169169  0.39739313  0.76151940  1.0
  H  H5  1  0.93644649  0.15809981  0.23797292  1.0
  H  H6  1  0.43741661  0.60254349  0.23830962  1.0
  H  H7  1  0.06403865  0.84212314  0.76235139  1.0
  H  H8  1  0.57186128  0.26863488  0.77327156  1.0
  H  H9  1  0.92731174  0.04080098  0.22651836  1.0
  H  H10  1  0.42824175  0.73129952  0.22679021  1.0
  H  H11  1  0.07332244  0.95971160  0.77334481  1.0
  H  H12  1  0.94153420  0.16253376  0.75019804  1.0
  H  H13  1  0.55914829  0.91119418  0.24968543  1.0
  H  H14  1  0.05931940  0.83764304  0.24989712  1.0
  H  H15  1  0.44232260  0.08840605  0.75033970  1.0
  H  H16  1  0.76561544  0.16084827  0.76743628  1.0
  H  H17  1  0.73484046  0.92673538  0.23204735  1.0
  H  H18  1  0.23513286  0.83925203  0.23224528  1.0
  H  H19  1  0.26653757  0.07298399  0.76814313  1.0
  H  H20  1  0.21784960  0.52695737  0.49240571  1.0
  H  H21  1  0.28202221  0.02011991  0.50705021  1.0
  H  H22  1  0.78134088  0.47310988  0.50788250  1.0
  H  H23  1  0.71858817  0.98078985  0.49243068  1.0
  H  H24  1  0.96387112  0.47520001  0.57424356  1.0
  H  H25  1  0.53600618  0.04971295  0.42498058  1.0
  H  H26  1  0.03523153  0.52534196  0.42602354  1.0
  H  H27  1  0.46497697  0.95137011  0.57464418  1.0
  H  H28  1  0.62833337  0.19131181  0.45961800  1.0
  H  H29  1  0.87145443  0.65167824  0.54017637  1.0
  H  H30  1  0.37242479  0.80894277  0.54016431  1.0
  H  H31  1  0.12835000  0.34863029  0.46005287  1.0
  H  H32  1  0.95403416  0.28824141  0.39982065  1.0
  H  H33  1  0.54507243  0.68932325  0.59931734  1.0
  H  H34  1  0.04704784  0.71148760  0.60062372  1.0
  H  H35  1  0.45417594  0.31060620  0.40015800  1.0
  H  H36  1  0.39196010  0.36697451  0.68033032  1.0
  H  H37  1  0.10762227  0.04598140  0.31943630  1.0
  H  H38  1  0.60701342  0.63266537  0.31993046  1.0
  H  H39  1  0.89413296  0.95256899  0.67991430  1.0
  H  H40  1  0.84722428  0.29146443  0.52452723  1.0
  H  H41  1  0.65225512  0.81641427  0.47479809  1.0
  H  H42  1  0.15294108  0.70895450  0.47543381  1.0
  H  H43  1  0.34830319  0.18391421  0.52495028  1.0
  H  H44  1  0.53476108  0.17305833  0.59616222  1.0
  H  H45  1  0.96579610  0.76903715  0.40392183  1.0
  H  H46  1  0.46560346  0.82712780  0.40407625  1.0
  H  H47  1  0.03519112  0.23129887  0.59637813  1.0
  H  H48  1  0.56537046  0.45020564  0.56695623  1.0
  H  H49  1  0.93434134  0.01688055  0.43287525  1.0
  H  H50  1  0.43362808  0.54934324  0.43325545  1.0
  H  H51  1  0.06682375  0.98311342  0.56633926  1.0
  H  H52  1  0.13013153  0.32051880  0.75338998  1.0
  H  H53  1  0.36945014  0.07199622  0.24628864  1.0
  H  H54  1  0.86864765  0.67987724  0.24692209  1.0
  H  H55  1  0.63259352  0.92677739  0.75340320  1.0
  H  H56  1  0.90395583  0.31454586  0.98098995  1.0
  H  H57  1  0.59110360  0.29330615  0.01917065  1.0
  H  H58  1  0.09522774  0.68558572  0.01930242  1.0
  H  H59  1  0.40721950  0.70515210  0.98091307  1.0
  H  H60  1  0.83370096  0.25915169  0.88340867  1.0
  H  H61  1  0.66300256  0.14035113  0.11637767  1.0
  H  H62  1  0.16537309  0.74094684  0.11686659  1.0
  H  H63  1  0.33740328  0.85903347  0.88365246  1.0
  H  H64  1  0.04585679  0.61491193  0.94285178  1.0
  H  H65  1  0.45019300  0.55609873  0.05777662  1.0
  H  H66  1  0.95262741  0.38522409  0.05760024  1.0
  H  H67  1  0.54764735  0.44245225  0.94226760  1.0
  H  H68  1  0.00629370  0.64422622  0.82589911  1.0
  H  H69  1  0.49126838  0.46851747  0.17456831  1.0
  H  H70  1  0.99186889  0.35609735  0.17454573  1.0
  H  H71  1  0.50771549  0.53065927  0.82528079  1.0
  H  H72  1  0.93213933  0.57428283  0.73606115  1.0
  H  H73  1  0.56714055  0.30855877  0.26385514  1.0
  H  H74  1  0.06615935  0.42598933  0.26439683  1.0
  H  H75  1  0.43428100  0.69154055  0.73568767  1.0
  C  C76  1  0.20438148  0.48087885  0.54987661  1.0
  C  C77  1  0.29541063  0.03119088  0.44957301  1.0
  C  C78  1  0.79475458  0.51924759  0.45039284  1.0
  C  C79  1  0.70552460  0.96954141  0.54987142  1.0
  C  C80  1  0.06304427  0.45273710  0.59450609  1.0
  C  C81  1  0.43673685  0.04731169  0.40487795  1.0
  C  C82  1  0.93607516  0.54765520  0.40574580  1.0
  C  C83  1  0.56438941  0.95341979  0.59469428  1.0
  C  C84  1  0.73268525  0.22934867  0.46065966  1.0
  C  C85  1  0.76690881  0.69072704  0.53895408  1.0
  C  C86  1  0.26798574  0.77080228  0.53929663  1.0
  C  C87  1  0.23294357  0.30953065  0.46104184  1.0
  C  C88  1  0.84674329  0.25170966  0.40113356  1.0
  C  C89  1  0.65238933  0.65378533  0.59821368  1.0
  C  C90  1  0.15432408  0.74839743  0.59897769  1.0
  C  C91  1  0.34686848  0.34617842  0.40148180  1.0
  C  C92  1  0.30022903  0.39120035  0.65432181  1.0
  C  C93  1  0.19941137  0.04471017  0.34532740  1.0
  C  C94  1  0.69873231  0.60868675  0.34597257  1.0
  C  C95  1  0.80217053  0.95470110  0.65407938  1.0
  C  C96  1  0.74346240  0.24993377  0.52590886  1.0
  C  C97  1  0.75630770  0.77628741  0.47369467  1.0
  C  C98  1  0.25684049  0.75025290  0.47410154  1.0
  C  C99  1  0.24416218  0.22401702  0.52627249  1.0
  C  C100  1  0.63861715  0.21928531  0.58932276  1.0
  C  C101  1  0.86160138  0.80851190  0.41046006  1.0
  C  C102  1  0.36181275  0.78090389  0.41074004  1.0
  C  C103  1  0.13922040  0.19168377  0.58964506  1.0
  C  C104  1  0.47985262  0.47495994  0.53656548  1.0
  C  C105  1  0.01994938  0.01145756  0.46318188  1.0
  C  C106  1  0.51911064  0.52463929  0.46368588  1.0
  C  C107  1  0.98108235  0.98861414  0.53607512  1.0
  C  C108  1  0.32824412  0.44986888  0.57950052  1.0
  C  C109  1  0.17149153  0.02922557  0.42010151  1.0
  C  C110  1  0.67077506  0.54994542  0.42076872  1.0
  C  C111  1  0.82965497  0.97084003  0.57925182  1.0
  C  C112  1  0.83951001  0.21951751  0.33684631  1.0
  C  C113  1  0.65923181  0.55731536  0.66246006  1.0
  C  C114  1  0.16188806  0.78081926  0.66312861  1.0
  C  C115  1  0.33968779  0.44261660  0.33729884  1.0
  C  C116  1  0.66546684  0.24121553  0.65403406  1.0
  C  C117  1  0.83490426  0.89484256  0.34565138  1.0
  C  C118  1  0.33517901  0.75899465  0.34599828  1.0
  C  C119  1  0.16621814  0.10546856  0.65442169  1.0
  C  C120  1  0.15512130  0.36595056  0.69529359  1.0
  C  C121  1  0.34452610  0.06007116  0.30431997  1.0
  C  C122  1  0.84384098  0.63434376  0.30502247  1.0
  C  C123  1  0.65725202  0.93934412  0.69527670  1.0
  C  C124  1  0.91132378  0.37568010  0.92777749  1.0
  C  C125  1  0.58475095  0.30138867  0.07235299  1.0
  C  C126  1  0.08759836  0.62445702  0.07253423  1.0
  C  C127  1  0.41410929  0.69745371  0.92765046  1.0
  C  C128  1  0.87202077  0.34363425  0.87400626  1.0
  C  C129  1  0.62489619  0.21559402  0.12585103  1.0
  C  C130  1  0.12692334  0.65649278  0.12629666  1.0
  C  C131  1  0.37515625  0.78374151  0.87410080  1.0
  C  C132  1  0.96087179  0.48591017  0.91257020  1.0
  C  C133  1  0.53565410  0.39669329  0.08774768  1.0
  C  C134  1  0.03776898  0.51426631  0.08780612  1.0
  C  C135  1  0.46272679  0.60214343  0.91223244  1.0
  C  C136  1  0.00376466  0.52860964  0.96484011  1.0
  C  C137  1  0.49319407  0.49200438  0.03555612  1.0
  C  C138  1  0.99476265  0.47153450  0.03557801  1.0
  C  C139  1  0.50447522  0.50654596  0.96448723  1.0
  C  C140  1  0.96860107  0.55791316  0.84189373  1.0
  C  C141  1  0.52869940  0.39807957  0.15840640  1.0
  C  C142  1  0.02975733  0.44235929  0.15853629  1.0
  C  C143  1  0.47058151  0.60113958  0.84142712  1.0
  C  C144  1  0.92797879  0.51962569  0.79090967  1.0
  C  C145  1  0.57025879  0.30883191  0.20904483  1.0
  C  C146  1  0.07044997  0.48061989  0.20951798  1.0
  C  C147  1  0.43033085  0.69087769  0.79065374  1.0
  N  N148  1  0.03770149  0.39600217  0.66619662  1.0
  N  N149  1  0.46196702  0.06153006  0.33325716  1.0
  N  N150  1  0.96137687  0.60452170  0.33407618  1.0
  N  N151  1  0.53957890  0.93873722  0.66636037  1.0
  N  N152  1  0.88011997  0.41415640  0.80639972  1.0
  N  N153  1  0.61802072  0.21878605  0.19333238  1.0
  N  N154  1  0.11864793  0.58604165  0.19394924  1.0
  N  N155  1  0.38284266  0.78092614  0.80646526  1.0
  O  O156  1  0.59897138  0.32723156  0.79136514  1.0
  O  O157  1  0.89993680  0.11742487  0.20810100  1.0
  O  O158  1  0.40040526  0.67296662  0.20863096  1.0
  O  O159  1  0.10081833  0.88313422  0.79190058  1.0
  O  O160  1  0.76205708  0.31895225  0.64277332  1.0
  O  O161  1  0.73761955  0.96134649  0.35678638  1.0
  O  O162  1  0.23764570  0.68187427  0.35723245  1.0
  O  O163  1  0.26384296  0.03920991  0.64327763  1.0
  O  O164  1  0.85347723  0.18918810  0.77782214  1.0
  O  O165  1  0.64669007  0.96543078  0.22184087  1.0
  O  O166  1  0.14702069  0.81087744  0.22211045  1.0
  O  O167  1  0.35470240  0.03421521  0.77829143  1.0
  O  O168  1  0.71038542  0.19239003  0.33169554  1.0
  O  O169  1  0.78831945  0.52466737  0.66782498  1.0
  O  O170  1  0.29100109  0.80874878  0.66782841  1.0
  O  O171  1  0.21058381  0.47565705  0.33241615  1.0
  O  O172  1  0.59218871  0.18137849  0.71777249  1.0
  O  O173  1  0.90896689  0.89850202  0.28200715  1.0
  O  O174  1  0.40946783  0.81818878  0.28231518  1.0
  O  O175  1  0.09207582  0.10168042  0.71807265  1.0
  O  O176  1  0.96213876  0.21830900  0.29307395  1.0
  O  O177  1  0.53646299  0.51281576  0.70597578  1.0
  O  O178  1  0.03939181  0.78155410  0.70713421  1.0
  O  O179  1  0.46225665  0.48689583  0.29346599  1.0
