# generated using pymatgen
data_Zn4H39C44N17O2
_symmetry_space_group_name_H-M   'P 1'
_cell_length_a   14.87599617
_cell_length_b   14.91501872
_cell_length_c   14.91291775
_cell_angle_alpha   117.63386943
_cell_angle_beta   93.93900780
_cell_angle_gamma   117.70379948
_symmetry_Int_Tables_number   1
_chemical_formula_structural   Zn4H39C44N17O2
_chemical_formula_sum   'Zn4 H39 C44 N17 O2'
_cell_volume   2418.81912297
_cell_formula_units_Z   1
loop_
 _symmetry_equiv_pos_site_id
 _symmetry_equiv_pos_as_xyz
  1  'x, y, z'
loop_
 _atom_site_type_symbol
 _atom_site_label
 _atom_site_symmetry_multiplicity
 _atom_site_fract_x
 _atom_site_fract_y
 _atom_site_fract_z
 _atom_site_occupancy
  Zn  Zn0  1  0.00390243  0.65104985  0.14585494  1.0
  Zn  Zn1  1  0.00273952  0.34615315  0.84355932  1.0
  Zn  Zn2  1  0.15228662  0.64690930  0.99472660  1.0
  Zn  Zn3  1  0.85502343  0.35008727  0.99655538  1.0
  H  H4  1  0.82882923  0.66763368  0.01989113  1.0
  H  H5  1  0.85938075  0.32908521  0.65275870  1.0
  H  H6  1  0.23625400  0.69597614  0.81034865  1.0
  H  H7  1  0.62106612  0.30169966  0.02907733  1.0
  H  H8  1  0.04716384  0.30025369  0.61386223  1.0
  H  H9  1  0.81890671  0.69723834  0.22384265  1.0
  H  H10  1  0.66019714  0.32407144  0.85197427  1.0
  H  H11  1  0.03177483  0.67104145  0.82441210  1.0
  H  H12  1  0.17764309  0.70074880  0.33859197  1.0
  H  H13  1  0.15556154  0.29776084  0.95284082  1.0
  H  H14  1  0.38689109  0.91660797  0.17884822  1.0
  H  H15  1  0.77091969  0.08210744  0.96255992  1.0
  H  H16  1  0.95184512  0.06846178  0.74697105  1.0
  H  H17  1  0.18378299  0.92584987  0.37275762  1.0
  H  H18  1  0.97897671  0.30363508  0.13861875  1.0
  H  H19  1  0.35248074  0.69432353  0.15090096  1.0
  H  H20  1  0.49551013  0.37836864  0.17216812  1.0
  H  H21  1  0.46661680  0.30306538  0.03098939  1.0
  H  H22  1  0.30970259  0.29922305  0.00541544  1.0
  H  H23  1  0.33723813  0.37504877  0.14658964  1.0
  H  H24  1  0.45489236  0.59817465  0.26781214  1.0
  H  H25  1  0.61603636  0.57924093  0.02580062  1.0
  H  H26  1  0.53318852  0.41817922  0.94703092  1.0
  H  H27  1  0.37970688  0.42517759  0.92400178  1.0
  H  H28  1  0.46143748  0.58571754  0.01003550  1.0
  H  H29  1  0.65450626  0.69502497  0.21736162  1.0
  H  H30  1  0.49804181  0.69286209  0.21815756  1.0
  H  H31  1  0.35359196  0.11239328  0.52887982  1.0
  H  H32  1  0.50176291  0.08723589  0.39860160  1.0
  H  H33  1  0.51006111  0.23684124  0.68930611  1.0
  H  H34  1  0.64917950  0.23865710  0.54604003  1.0
  H  H35  1  0.08994353  0.31764016  0.45971716  1.0
  H  H36  1  0.18592182  0.59302377  0.59056103  1.0
  H  H37  1  0.05495443  0.31560007  0.29980527  1.0
  H  H38  1  0.19473062  0.59696003  0.44556335  1.0
  H  H39  1  0.90415550  0.86737111  0.71772413  1.0
  H  H40  1  0.82547953  0.91511049  0.91024067  1.0
  H  H41  1  0.94436778  0.74515280  0.75127188  1.0
  H  H42  1  0.81188510  0.75789295  0.90088348  1.0
  C  C43  1  0.88713927  0.66378979  0.98079722  1.0
  C  C44  1  0.82423249  0.33267733  0.71485061  1.0
  C  C45  1  0.18810130  0.59885187  0.77766434  1.0
  C  C46  1  0.68483898  0.39882351  0.07537375  1.0
  C  C47  1  0.09257960  0.39730002  0.67737150  1.0
  C  C48  1  0.78540619  0.60013656  0.17362923  1.0
  C  C49  1  0.72199013  0.32977895  0.81596845  1.0
  C  C50  1  0.99051448  0.66573918  0.88082313  1.0
  C  C51  1  0.90751324  0.68535782  0.89946838  1.0
  C  C52  1  0.72053790  0.30927734  0.71327864  1.0
  C  C53  1  0.14888184  0.49871685  0.67004107  1.0
  C  C54  1  0.67693108  0.49948831  0.12764249  1.0
  C  C55  1  0.12057764  0.60366127  0.27628749  1.0
  C  C56  1  0.19012339  0.39496117  0.99462433  1.0
  C  C57  1  0.32168771  0.90080349  0.21097708  1.0
  C  C58  1  0.81812663  0.09698852  0.91244901  1.0
  C  C59  1  0.90946545  0.08905066  0.80185304  1.0
  C  C60  1  0.21863807  0.90676478  0.31011372  1.0
  C  C61  1  0.01936569  0.40099255  0.17468852  1.0
  C  C62  1  0.29059596  0.59689797  0.09552926  1.0
  C  C63  1  0.10056167  0.50215891  0.27762507  1.0
  C  C64  1  0.29531005  0.49615699  0.06930112  1.0
  C  C65  1  0.32796718  0.96949841  0.31815493  1.0
  C  C66  1  0.85500791  0.02676574  0.84875314  1.0
  C  C67  1  0.47714354  0.38304469  0.10255300  1.0
  C  C68  1  0.37186747  0.38066673  0.08513999  1.0
  C  C69  1  0.59151775  0.61588699  0.21500402  1.0
  C  C70  1  0.54553106  0.50006961  0.01788026  1.0
  C  C71  1  0.57512262  0.49832025  0.11887136  1.0
  C  C72  1  0.39563029  0.49634616  0.09213155  1.0
  C  C73  1  0.48338897  0.60752754  0.20468620  1.0
  C  C74  1  0.44337803  0.50244045  0.00426526  1.0
  C  C75  1  0.43048445  0.13242079  0.51619535  1.0
  C  C76  1  0.42584002  0.06934316  0.41279696  1.0
  C  C77  1  0.52631282  0.21468805  0.61394270  1.0
  C  C78  1  0.63095882  0.25615318  0.61998742  1.0
  C  C79  1  0.12006003  0.40674651  0.47291739  1.0
  C  C80  1  0.15580105  0.50340535  0.57611579  1.0
  C  C81  1  0.10615024  0.40647991  0.37577960  1.0
  C  C82  1  0.14026920  0.50538646  0.37087886  1.0
  C  C83  1  0.88012528  0.85506468  0.78098904  1.0
  C  C84  1  0.84931857  0.92639027  0.84646195  1.0
  C  C85  1  0.89578001  0.77258060  0.79437919  1.0
  C  C86  1  0.86551438  0.73674815  0.86206523  1.0
  N  N87  1  0.95412157  0.63658315  0.00901520  1.0
  N  N88  1  0.88050504  0.36157549  0.80939975  1.0
  N  N89  1  0.15798306  0.56040118  0.84281495  1.0
  N  N90  1  0.78959498  0.43656816  0.08889051  1.0
  N  N91  1  0.09791644  0.43450131  0.77997237  1.0
  N  N92  1  0.85217582  0.56214584  0.15046269  1.0
  N  N93  1  0.81755610  0.35991378  0.87137957  1.0
  N  N94  1  0.01741994  0.63774994  0.94745983  1.0
  N  N95  1  0.05462780  0.56501573  0.18173647  1.0
  N  N96  1  0.12884377  0.43363931  0.97727734  1.0
  N  N97  1  0.21822699  0.80562332  0.14545087  1.0
  N  N98  1  0.84818459  0.19236109  0.90438611  1.0
  N  N99  1  0.90585023  0.18772051  0.83580810  1.0
  N  N100  1  0.15413805  0.80940248  0.20764213  1.0
  N  N101  1  0.99266469  0.44054112  0.11948999  1.0
  N  N102  1  0.19055666  0.55767757  0.03925335  1.0
  N  N103  1  0.64097175  0.64146688  0.32375298  1.0
  O  O104  1  0.58367070  0.57256278  0.34955818  1.0
  O  O105  1  0.73717206  0.72959469  0.37922072  1.0
