# generated using pymatgen
data_Al2H17C24N3O10
_symmetry_space_group_name_H-M   'P 1'
_cell_length_a   6.66521177
_cell_length_b   16.94615823
_cell_length_c   19.72441618
_cell_angle_alpha   72.01501939
_cell_angle_beta   89.36030120
_cell_angle_gamma   89.68428823
_symmetry_Int_Tables_number   1
_chemical_formula_structural   Al2H17C24N3O10
_chemical_formula_sum   'Al4 H34 C48 N6 O20'
_cell_volume   2118.87128934
_cell_formula_units_Z   2
loop_
 _symmetry_equiv_pos_site_id
 _symmetry_equiv_pos_as_xyz
  1  'x, y, z'
loop_
 _atom_site_type_symbol
 _atom_site_label
 _atom_site_symmetry_multiplicity
 _atom_site_fract_x
 _atom_site_fract_y
 _atom_site_fract_z
 _atom_site_occupancy
  Al  Al0  1  0.12292123  0.49974441  0.50030493  1.0
  Al  Al1  1  0.62218761  0.49973317  0.49819342  1.0
  Al  Al2  1  0.60879861  0.00151509  0.99867020  1.0
  Al  Al3  1  0.10846259  0.99818594  0.99970758  1.0
  H  H4  1  0.57317381  0.20353396  0.81590191  1.0
  H  H5  1  0.06187623  0.80295819  0.19511272  1.0
  H  H6  1  0.02500437  0.18155159  0.79232034  1.0
  H  H7  1  0.52291014  0.80955566  0.19753422  1.0
  H  H8  1  0.16510558  0.41363648  0.32114947  1.0
  H  H9  1  0.08347319  0.58340534  0.67756810  1.0
  H  H10  1  0.59371386  0.31160876  0.40772066  1.0
  H  H11  1  0.65573350  0.68705097  0.59359522  1.0
  H  H12  1  0.42850791  0.20568004  0.36380034  1.0
  H  H13  1  0.81489858  0.79372448  0.63839127  1.0
  H  H14  1  0.42412705  0.12200689  0.28092065  1.0
  H  H15  1  0.81098187  0.87817026  0.72062279  1.0
  H  H16  1  0.57459819  0.08487892  0.17923129  1.0
  H  H17  1  0.65245151  0.91578751  0.82108580  1.0
  H  H18  1  0.13881535  0.18598793  0.08965632  1.0
  H  H19  1  0.08878890  0.81170787  0.90847283  1.0
  H  H20  1  0.32128507  0.37455026  0.22078587  1.0
  H  H21  1  0.92180065  0.62132600  0.77738019  1.0
  H  H22  1  0.47665005  0.32191106  0.13485802  1.0
  H  H23  1  0.37853322  0.24515046  0.10847301  1.0
  H  H24  1  0.75981480  0.67347651  0.86247317  1.0
  H  H25  1  0.85351307  0.75079755  0.88918449  1.0
  H  H26  1  0.40768392  0.26095206  0.70767212  1.0
  H  H27  1  0.50318489  0.34813407  0.64552052  1.0
  H  H28  1  0.90531539  0.73678142  0.29752905  1.0
  H  H29  1  0.01218345  0.65565922  0.36487364  1.0
  H  H30  1  0.16193596  0.35924334  0.68432052  1.0
  H  H31  1  0.07610801  0.30104362  0.76504079  1.0
  H  H32  1  0.66381450  0.63841201  0.30844033  1.0
  H  H33  1  0.56669342  0.69147013  0.22902031  1.0
  H  H34  1  0.37282219  0.40333251  0.48584551  1.0
  H  H35  1  0.86739840  0.59459128  0.51478370  1.0
  H  H36  1  0.35472250  0.10666561  0.95636548  1.0
  H  H37  1  0.85201468  0.89481492  0.04616093  1.0
  C  C38  1  0.36630360  0.58239212  0.57979079  1.0
  C  C39  1  0.88253682  0.41627974  0.41956854  1.0
  C  C40  1  0.37885027  0.61056361  0.38638221  1.0
  C  C41  1  0.86396672  0.38885869  0.61264739  1.0
  C  C42  1  0.71616533  0.21966549  0.78711182  1.0
  C  C43  1  0.20997715  0.78202261  0.21723633  1.0
  C  C44  1  0.87808121  0.17438683  0.81794151  1.0
  C  C45  1  0.36954607  0.82271643  0.17941672  1.0
  C  C46  1  0.70465819  0.28559994  0.71990967  1.0
  C  C47  1  0.20720839  0.71543964  0.28451862  1.0
  C  C48  1  0.87282375  0.32774956  0.68401163  1.0
  C  C49  1  0.37895783  0.67181633  0.31545857  1.0
  C  C50  1  0.03966808  0.37266640  0.32089648  1.0
  C  C51  1  0.20806478  0.62443727  0.67864398  1.0
  C  C52  1  0.88029877  0.36678112  0.36901624  1.0
  C  C53  1  0.36920026  0.63090146  0.63109115  1.0
  C  C54  1  0.71656369  0.31496059  0.37004458  1.0
  C  C55  1  0.53152403  0.68307212  0.63088903  1.0
  C  C56  1  0.71215577  0.26638405  0.32403412  1.0
  C  C57  1  0.53189947  0.73173296  0.67694111  1.0
  C  C58  1  0.87280655  0.27297105  0.27397331  1.0
  C  C59  1  0.36897941  0.72473196  0.72620734  1.0
  C  C60  1  0.03756211  0.32769900  0.27169029  1.0
  C  C61  1  0.20618156  0.66933850  0.72785213  1.0
  C  C62  1  0.55099201  0.21012243  0.32561544  1.0
  C  C63  1  0.69070038  0.78883249  0.67597850  1.0
  C  C64  1  0.54859743  0.16394409  0.27991898  1.0
  C  C65  1  0.68841103  0.83546896  0.72134854  1.0
  C  C66  1  0.70618934  0.17029935  0.22837171  1.0
  C  C67  1  0.52828485  0.82875449  0.77204955  1.0
  C  C68  1  0.87072856  0.22521380  0.22612777  1.0
  C  C69  1  0.36626796  0.77287133  0.77377799  1.0
  C  C70  1  0.03066688  0.23165337  0.17554498  1.0
  C  C71  1  0.20384288  0.76592202  0.82351563  1.0
  C  C72  1  0.19611247  0.28752941  0.17427132  1.0
  C  C73  1  0.04083689  0.70909455  0.82428222  1.0
  C  C74  1  0.19513121  0.33352139  0.22106986  1.0
  C  C75  1  0.04616739  0.66294263  0.77764147  1.0
  C  C76  1  0.70083207  0.12554334  0.17930082  1.0
  C  C77  1  0.52843003  0.87422035  0.82063267  1.0
  C  C78  1  0.85732640  0.13216063  0.13021505  1.0
  C  C79  1  0.36936046  0.86714446  0.86883364  1.0
  C  C80  1  0.02151258  0.18375602  0.12911318  1.0
  C  C81  1  0.20798475  0.81434947  0.86959684  1.0
  C  C82  1  0.35122672  0.88925946  0.11122926  1.0
  C  C83  1  0.86866466  0.10935567  0.88717041  1.0
  C  C84  1  0.37146565  0.91546537  0.92061589  1.0
  C  C85  1  0.85007913  0.08447243  0.07799733  1.0
  N  N86  1  0.34908324  0.29530861  0.12472650  1.0
  N  N87  1  0.88572063  0.70074875  0.87309681  1.0
  N  N88  1  0.51154549  0.30693731  0.69564842  1.0
  N  N89  1  0.01950950  0.69591553  0.31440161  1.0
  N  N90  1  0.06724045  0.31290674  0.71129788  1.0
  N  N91  1  0.56923727  0.68516871  0.28209816  1.0
  O  O92  1  0.55003653  0.57857972  0.40934170  1.0
  O  O93  1  0.03291756  0.41004120  0.58059671  1.0
  O  O94  1  0.19690665  0.55534954  0.56731023  1.0
  O  O95  1  0.71447074  0.42808434  0.44646610  1.0
  O  O96  1  0.21356527  0.59278229  0.42227622  1.0
  O  O97  1  0.69272496  0.41687619  0.58646705  1.0
  O  O98  1  0.05079778  0.44343470  0.43310639  1.0
  O  O99  1  0.53253967  0.57122617  0.55126297  1.0
  O  O100  1  0.37229196  0.44784680  0.50713185  1.0
  O  O101  1  0.87210146  0.55151395  0.49184690  1.0
  O  O102  1  0.20577070  0.92200503  0.95138237  1.0
  O  O103  1  0.67922053  0.05793793  0.06673448  1.0
  O  O104  1  0.51698881  0.91101158  0.07721884  1.0
  O  O105  1  0.03634411  0.07394649  0.90949010  1.0
  O  O106  1  0.53943489  0.94531775  0.93057882  1.0
  O  O107  1  0.01538878  0.07503213  0.04830793  1.0
  O  O108  1  0.70147848  0.09295124  0.92108512  1.0
  O  O109  1  0.17916187  0.91982964  0.08966206  1.0
  O  O110  1  0.35680799  0.05120108  0.98997770  1.0
  O  O111  1  0.85759849  0.94807103  0.00926755  1.0
