# generated using pymatgen
data_Zn4H23C48Cl7O13
_symmetry_space_group_name_H-M   'P 1'
_cell_length_a   19.51902387
_cell_length_b   19.54667955
_cell_length_c   19.67904546
_cell_angle_alpha   90.67014145
_cell_angle_beta   95.58155803
_cell_angle_gamma   95.77957977
_symmetry_Int_Tables_number   1
_chemical_formula_structural   Zn4H23C48Cl7O13
_chemical_formula_sum   'Zn4 H23 C48 Cl7 O13'
_cell_volume   7432.85265030
_cell_formula_units_Z   1
loop_
 _symmetry_equiv_pos_site_id
 _symmetry_equiv_pos_as_xyz
  1  'x, y, z'
loop_
 _atom_site_type_symbol
 _atom_site_label
 _atom_site_symmetry_multiplicity
 _atom_site_fract_x
 _atom_site_fract_y
 _atom_site_fract_z
 _atom_site_occupancy
  Zn  Zn0  1  0.44330250  0.44325983  0.56091194  1.0
  Zn  Zn1  1  0.44388703  0.55163417  0.43738170  1.0
  Zn  Zn2  1  0.55036756  0.44344100  0.44686688  1.0
  Zn  Zn3  1  0.56767257  0.56383942  0.56182107  1.0
  H  H4  1  0.47354763  0.40925069  0.76501511  1.0
  H  H5  1  0.88405857  0.45545596  0.41100101  1.0
  H  H6  1  0.52241620  0.38260568  0.23969118  1.0
  H  H7  1  0.47437625  0.41173165  0.00142588  1.0
  H  H8  1  0.54523199  0.62000950  0.90581442  1.0
  H  H9  1  0.50925734  0.56866447  0.00317166  1.0
  H  H10  1  0.49333244  0.75568698  0.38232626  1.0
  H  H11  1  0.53659334  0.91087687  0.58605638  1.0
  H  H12  1  0.44165568  0.99071556  0.52310061  1.0
  H  H13  1  0.23266879  0.51017432  0.37644040  1.0
  H  H14  1  0.99271447  0.47988672  0.41295064  1.0
  H  H15  1  0.51651751  0.37383603  0.11281020  1.0
  H  H16  1  0.10173008  0.45659304  0.57649582  1.0
  H  H17  1  0.78325525  0.55622143  0.60718946  1.0
  H  H18  1  0.00887035  0.51333703  0.56727885  1.0
  H  H19  1  0.46683210  0.40521237  0.88961253  1.0
  H  H20  1  0.52084313  0.23744721  0.40542899  1.0
  H  H21  1  0.44235790  0.22535054  0.60204186  1.0
  H  H22  1  0.51666704  0.11002360  0.39929810  1.0
  H  H23  1  0.43336952  0.57463652  0.22352840  1.0
  H  H24  1  0.75742935  0.45956342  0.40797762  1.0
  H  H25  1  0.22967043  0.45561620  0.58715623  1.0
  H  H26  1  0.91075432  0.55029585  0.61226257  1.0
  C  C27  1  0.50954443  0.68447446  0.49532665  1.0
  C  C28  1  0.49856619  0.51698552  0.98060863  1.0
  C  C29  1  0.48120514  0.46454679  0.02185538  1.0
  C  C30  1  0.48817317  0.31585556  0.50768765  1.0
  C  C31  1  0.48033245  0.48029130  0.23948799  1.0
  C  C32  1  0.48307639  0.23920713  0.50444915  1.0
  C  C33  1  0.50375130  0.20634942  0.44728736  1.0
  C  C34  1  0.50213276  0.13533654  0.44448283  1.0
  C  C35  1  0.48180210  0.09451898  0.49902764  1.0
  C  C36  1  0.45932027  0.12879617  0.55520885  1.0
  C  C37  1  0.45930224  0.20000177  0.55799563  1.0
  C  C38  1  0.50540792  0.51280031  0.90768570  1.0
  C  C39  1  0.52789995  0.87687062  0.54114987  1.0
  C  C40  1  0.52431240  0.80579175  0.54925862  1.0
  C  C41  1  0.50443002  0.78997934  0.42686934  1.0
  C  C42  1  0.31600658  0.48685647  0.48901570  1.0
  C  C43  1  0.50925793  0.86085465  0.41888174  1.0
  C  C44  1  0.52132564  0.90564946  0.47628875  1.0
  C  C45  1  0.48219936  0.01994860  0.49772313  1.0
  C  C46  1  0.52704012  0.98141195  0.47113051  1.0
  C  C47  1  0.51305792  0.76138522  0.49171314  1.0
  C  C48  1  0.76263485  0.50830163  0.50734043  1.0
  C  C49  1  0.53021687  0.57286759  0.87555791  1.0
  C  C50  1  0.79166241  0.48004609  0.45210411  1.0
  C  C51  1  0.86259923  0.47799721  0.45414127  1.0
  C  C52  1  0.90697344  0.50310021  0.51188358  1.0
  C  C53  1  0.87712934  0.53089691  0.56711813  1.0
  C  C54  1  0.68623310  0.50873490  0.50539849  1.0
  C  C55  1  0.80614351  0.53429805  0.56467423  1.0
  C  C56  1  0.13054836  0.46913401  0.53274576  1.0
  C  C57  1  0.20180517  0.46813707  0.53902005  1.0
  C  C58  1  0.20368209  0.49821158  0.42005520  1.0
  C  C59  1  0.13206383  0.49731148  0.41403458  1.0
  C  C60  1  0.53545434  0.57431202  0.80534260  1.0
  C  C61  1  0.09332858  0.48453107  0.47056344  1.0
  C  C62  1  0.98159887  0.50079320  0.51673562  1.0
  C  C63  1  0.01882127  0.48710652  0.46452477  1.0
  C  C64  1  0.23905363  0.48385615  0.48274966  1.0
  C  C65  1  0.48656515  0.48770856  0.31534558  1.0
  C  C66  1  0.51302200  0.51146432  0.68811459  1.0
  C  C67  1  0.51433117  0.51503471  0.76419063  1.0
  C  C68  1  0.49021471  0.45484011  0.79703970  1.0
  C  C69  1  0.48634961  0.45291276  0.86681557  1.0
  C  C70  1  0.45091963  0.52697516  0.12832064  1.0
  C  C71  1  0.45287161  0.53128582  0.19913292  1.0
  C  C72  1  0.50239195  0.42278811  0.20801135  1.0
  C  C73  1  0.49895956  0.41835930  0.13736228  1.0
  C  C74  1  0.47608800  0.47122074  0.09517470  1.0
  Cl  Cl75  1  0.53057625  0.77522187  0.63129458  1.0
  Cl  Cl76  1  0.60006599  0.01556096  0.43439528  1.0
  Cl  Cl77  1  0.43293351  0.08204776  0.62426907  1.0
  Cl  Cl78  1  0.49680707  0.89280765  0.33758372  1.0
  Cl  Cl79  1  0.09080524  0.51509188  0.33490752  1.0
  Cl  Cl80  1  0.41335141  0.59164918  0.08294812  1.0
  Cl  Cl81  1  0.56508733  0.65235844  0.77276307  1.0
  O  O82  1  0.50088952  0.50143625  0.50324969  1.0
  O  O83  1  0.46019300  0.53814755  0.34104497  1.0
  O  O84  1  0.55495407  0.55305676  0.65920406  1.0
  O  O85  1  0.51869356  0.44312759  0.34884379  1.0
  O  O86  1  0.46900909  0.46517222  0.65821000  1.0
  O  O87  1  0.34519663  0.45905351  0.54110257  1.0
  O  O88  1  0.66315204  0.54487491  0.55098501  1.0
  O  O89  1  0.46194789  0.65142313  0.45520862  1.0
  O  O90  1  0.52882244  0.34654458  0.46822852  1.0
  O  O91  1  0.55469992  0.65957546  0.53604807  1.0
  O  O92  1  0.45251845  0.34423633  0.54904772  1.0
  O  O93  1  0.34640292  0.51770705  0.44160325  1.0
  O  O94  1  0.64960972  0.47226819  0.45802528  1.0
