# generated using pymatgen
data_Zn8H26C45I6O31
_symmetry_space_group_name_H-M   'P 1'
_cell_length_a   18.31820646
_cell_length_b   18.41567862
_cell_length_c   18.64366533
_cell_angle_alpha   91.02933410
_cell_angle_beta   118.88900015
_cell_angle_gamma   119.43538738
_symmetry_Int_Tables_number   1
_chemical_formula_structural   Zn8H26C45I6O31
_chemical_formula_sum   'Zn8 H26 C45 I6 O31'
_cell_volume   4518.81635736
_cell_formula_units_Z   1
loop_
 _symmetry_equiv_pos_site_id
 _symmetry_equiv_pos_as_xyz
  1  'x, y, z'
loop_
 _atom_site_type_symbol
 _atom_site_label
 _atom_site_symmetry_multiplicity
 _atom_site_fract_x
 _atom_site_fract_y
 _atom_site_fract_z
 _atom_site_occupancy
  Zn  Zn0  1  0.59234722  0.54111545  0.45618005  1.0
  Zn  Zn1  1  0.41548660  0.54357677  0.45174537  1.0
  Zn  Zn2  1  0.58876013  0.54494107  0.62630310  1.0
  Zn  Zn3  1  0.41655295  0.37191916  0.45537059  1.0
  Zn  Zn4  1  0.40785695  0.95893840  0.03836031  1.0
  Zn  Zn5  1  0.42131980  0.96141490  0.87359554  1.0
  Zn  Zn6  1  0.58627785  0.96036030  0.04856296  1.0
  Zn  Zn7  1  0.58694320  0.13506730  0.04514738  1.0
  H  H8  1  0.36376847  0.18524682  0.27329374  1.0
  H  H9  1  0.61094232  0.40028446  0.79657925  1.0
  H  H10  1  0.47114903  0.19777983  0.36296642  1.0
  H  H11  1  0.90898058  0.31196869  0.21982831  1.0
  H  H12  1  0.91812920  0.15330668  0.18526927  1.0
  H  H13  1  0.09403181  0.39627863  0.27800846  1.0
  H  H14  1  0.62871463  0.72905753  0.80107093  1.0
  H  H15  1  0.45616997  0.72979014  0.64635094  1.0
  H  H16  1  0.59800083  0.79614300  0.19646829  1.0
  H  H17  1  0.42044053  0.77894619  0.19441352  1.0
  H  H18  1  0.35978398  0.09514008  0.18058233  1.0
  H  H19  1  0.65229490  0.30722250  0.25441198  1.0
  H  H20  1  0.37764470  0.28247647  0.18344333  1.0
  H  H21  1  0.38123946  0.19323163  0.09663465  1.0
  H  H22  1  0.00755297  0.64604733  0.70837190  1.0
  H  H23  1  0.13740036  0.20684625  0.38711567  1.0
  H  H24  1  0.38696151  0.64503645  0.73343952  1.0
  H  H25  1  0.45613713  0.02896082  0.24302488  1.0
  H  H26  1  0.75547077  0.28531017  0.38951905  1.0
  H  H27  1  0.49775978  0.37278344  0.21170679  1.0
  H  H28  1  0.50446984  0.28198224  0.12997600  1.0
  H  H29  1  0.08835026  0.79817265  0.89529533  1.0
  H  H30  1  0.08444155  0.80642359  0.72845735  1.0
  H  H31  1  0.90070136  0.72340915  0.79256915  1.0
  H  H32  1  0.59741872  0.32107730  0.90067011  1.0
  H  H33  1  0.46463273  0.15506525  0.74087726  1.0
  C  C34  1  0.22802881  0.36578281  0.37335906  1.0
  C  C35  1  0.88891098  0.66125089  0.68819818  1.0
  C  C36  1  0.55064522  0.28309774  0.83149540  1.0
  C  C37  1  0.77568829  0.61412183  0.63402409  1.0
  C  C38  1  0.50708190  0.19511349  0.80822444  1.0
  C  C39  1  0.54460259  0.33212449  0.77143224  1.0
  C  C40  1  0.46830218  0.30743117  0.68777415  1.0
  C  C41  1  0.94546471  0.27737620  0.22821210  1.0
  C  C42  1  0.88601866  0.19065113  0.18204631  1.0
  C  C43  1  0.05553485  0.33023411  0.28249747  1.0
  C  C44  1  0.11688982  0.30697913  0.33608494  1.0
  C  C45  1  0.61421109  0.33149920  0.34125979  1.0
  C  C46  1  0.57095121  0.80005035  0.82395147  1.0
  C  C47  1  0.48785589  0.78379315  0.81945556  1.0
  C  C48  1  0.57205226  0.74400483  0.76932122  1.0
  C  C49  1  0.52171353  0.64713962  0.37518943  1.0
  C  C50  1  0.50962432  0.71240376  0.68183962  1.0
  C  C51  1  0.54185812  0.77395330  0.21232017  1.0
  C  C52  1  0.48088661  0.80228594  0.18417424  1.0
  C  C53  1  0.53504930  0.71224995  0.26036612  1.0
  C  C54  1  0.53407814  0.71616115  0.33191839  1.0
  C  C55  1  0.51138289  0.14456357  0.86897875  1.0
  C  C56  1  0.50317704  0.30084885  0.30340750  1.0
  C  C57  1  0.49089371  0.86537647  0.13584836  1.0
  C  C58  1  0.22662464  0.87255284  0.85775371  1.0
  C  C59  1  0.77389304  0.13881605  0.12778152  1.0
  C  C60  1  0.49238651  0.84990984  0.87297275  1.0
  C  C61  1  0.48434338  0.36680112  0.63503496  1.0
  C  C62  1  0.50246847  0.13935742  0.14451557  1.0
  C  C63  1  0.51040135  0.65227883  0.62870982  1.0
  C  C64  1  0.49718057  0.35891041  0.35772994  1.0
  C  C65  1  0.44051525  0.20372448  0.29793420  1.0
  C  C66  1  0.43739054  0.14067522  0.23971444  1.0
  C  C67  1  0.50359450  0.19538160  0.20719737  1.0
  C  C68  1  0.45598854  0.30420498  0.20979230  1.0
  C  C69  1  0.93889480  0.64102250  0.65529486  1.0
  C  C70  1  0.08457649  0.22771933  0.36437672  1.0
  C  C71  1  0.38808752  0.69672574  0.76662145  1.0
  C  C72  1  0.45958825  0.07749661  0.28286661  1.0
  C  C73  1  0.67678973  0.23382864  0.33317344  1.0
  C  C74  1  0.45808759  0.24343257  0.15381900  1.0
  C  C75  1  0.61315906  0.26818707  0.28377819  1.0
  C  C76  1  0.05290779  0.77937626  0.82504971  1.0
  C  C77  1  0.11441181  0.81609286  0.79714496  1.0
  C  C78  1  0.94357326  0.72021321  0.76880779  1.0
  I  I79  1  0.32249359  0.18844622  0.61980375  1.0
  I  I80  1  0.71763607  0.91647304  0.91401527  1.0
  I  I81  1  0.52250804  0.60251770  0.20215689  1.0
  I  I82  1  0.55405584  0.82444531  0.39982119  1.0
  I  I83  1  0.71525780  0.46675498  0.34912221  1.0
  I  I84  1  0.68311163  0.33224646  0.47819185  1.0
  O  O85  1  0.50359608  0.50143598  0.49865567  1.0
  O  O86  1  0.72888965  0.05482968  0.10036622  1.0
  O  O87  1  0.44791984  0.88463322  0.83044982  1.0
  O  O88  1  0.27154844  0.32592698  0.38579064  1.0
  O  O89  1  0.56940647  0.18073563  0.12829717  1.0
  O  O90  1  0.53924691  0.86359958  0.95414953  1.0
  O  O91  1  0.42956735  0.05772914  0.10837750  1.0
  O  O92  1  0.26482464  0.89113710  0.93912597  1.0
  O  O93  1  0.73183151  0.18009966  0.11366154  1.0
  O  O94  1  0.46286483  0.06147257  0.83224826  1.0
  O  O95  1  0.56586657  0.89952238  0.12870921  1.0
  O  O96  1  0.59386440  0.63723311  0.41091787  1.0
  O  O97  1  0.73157591  0.58857999  0.55221242  1.0
  O  O98  1  0.44056554  0.60628579  0.37295823  1.0
  O  O99  1  0.55210972  0.44956197  0.67641635  1.0
  O  O100  1  0.44683751  0.62673288  0.54659496  1.0
  O  O101  1  0.44578227  0.32038426  0.38905800  1.0
  O  O102  1  0.57207988  0.63063080  0.66866050  1.0
  O  O103  1  0.54100537  0.44029142  0.36465029  1.0
  O  O104  1  0.90993969  0.61820163  0.57946420  1.0
  O  O105  1  0.01050359  0.19117462  0.36814762  1.0
  O  O106  1  0.31251555  0.68080049  0.76226112  1.0
  O  O107  1  0.42972961  0.32868660  0.55328523  1.0
  O  O108  1  0.47375767  0.07575145  0.35366762  1.0
  O  O109  1  0.64735554  0.15687938  0.31016536  1.0
  O  O110  1  0.26965441  0.44878390  0.38919675  1.0
  O  O111  1  0.73399387  0.60471833  0.67500957  1.0
  O  O112  1  0.50078393  0.00497226  0.00125731  1.0
  O  O113  1  0.55978971  0.18492401  0.95006606  1.0
  O  O114  1  0.42198753  0.88024084  0.10515072  1.0
  O  O115  1  0.27484921  0.89666889  0.82156207  1.0
