# generated using pymatgen
data_CdH14C15NO7
_symmetry_space_group_name_H-M   'P 1'
_cell_length_a   6.86874224
_cell_length_b   11.76322312
_cell_length_c   22.37119709
_cell_angle_alpha   74.77252100
_cell_angle_beta   81.24817102
_cell_angle_gamma   89.99237490
_symmetry_Int_Tables_number   1
_chemical_formula_structural   CdH14C15NO7
_chemical_formula_sum   'Cd4 H56 C60 N4 O28'
_cell_volume   1722.28663945
_cell_formula_units_Z   4
loop_
 _symmetry_equiv_pos_site_id
 _symmetry_equiv_pos_as_xyz
  1  'x, y, z'
loop_
 _atom_site_type_symbol
 _atom_site_label
 _atom_site_symmetry_multiplicity
 _atom_site_fract_x
 _atom_site_fract_y
 _atom_site_fract_z
 _atom_site_occupancy
  Cd  Cd0  1  0.42773200  0.56028232  0.25564148  1.0
  Cd  Cd1  1  0.68597658  0.43954888  0.74433576  1.0
  Cd  Cd2  1  0.92745271  0.18364319  0.25558094  1.0
  Cd  Cd3  1  0.18582267  0.81636307  0.74450710  1.0
  H  H4  1  0.15671053  0.75771242  0.21996523  1.0
  H  H5  1  0.37978390  0.24217329  0.77989104  1.0
  H  H6  1  0.65685725  0.02186233  0.21984901  1.0
  H  H7  1  0.87958027  0.97822831  0.78002494  1.0
  H  H8  1  0.36337719  0.81005490  0.22282920  1.0
  H  H9  1  0.58927938  0.18973889  0.77708476  1.0
  H  H10  1  0.86349191  0.96661789  0.22269746  1.0
  H  H11  1  0.08912539  0.03353102  0.77705003  1.0
  H  H12  1  0.59614666  0.67889688  0.92046392  1.0
  H  H13  1  0.51628205  0.32035724  0.07964225  1.0
  H  H14  1  0.09598495  0.40097155  0.92043648  1.0
  H  H15  1  0.01647458  0.59977906  0.07997769  1.0
  H  H16  1  0.64670963  0.30244117  0.99385994  1.0
  H  H17  1  0.63952697  0.69676749  0.00631505  1.0
  H  H18  1  0.14709322  0.70363737  0.99415263  1.0
  H  H19  1  0.13928075  0.29706634  0.00619171  1.0
  H  H20  1  0.37796559  0.17634984  0.37372119  1.0
  H  H21  1  0.75357794  0.82342319  0.62633833  1.0
  H  H22  1  0.87788104  0.44954377  0.37355694  1.0
  H  H23  1  0.25314590  0.55069439  0.62625880  1.0
  H  H24  1  0.56947242  0.21274075  0.41227974  1.0
  H  H25  1  0.98341096  0.78694857  0.58786988  1.0
  H  H26  1  0.06983497  0.37500468  0.41203437  1.0
  H  H27  1  0.48318365  0.62537271  0.58783766  1.0
  H  H28  1  0.68119902  0.28745004  0.88383180  1.0
  H  H29  1  0.56244644  0.71195275  0.11623113  1.0
  H  H30  1  0.18137199  0.82882947  0.88421735  1.0
  H  H31  1  0.06196933  0.17170537  0.11601475  1.0
  H  H32  1  0.00403234  0.79452101  0.42858218  1.0
  H  H33  1  0.43441015  0.20510578  0.57141234  1.0
  H  H34  1  0.50438980  0.77608216  0.42876185  1.0
  H  H35  1  0.93439274  0.22422262  0.57109367  1.0
  H  H36  1  0.63784821  0.64763910  0.81458543  1.0
  H  H37  1  0.44970806  0.35183969  0.18544257  1.0
  H  H38  1  0.13780713  0.53827951  0.81465586  1.0
  H  H39  1  0.95000261  0.46224394  0.18564153  1.0
  H  H40  1  0.49208299  0.86042607  0.55027506  1.0
  H  H41  1  0.04246921  0.13982040  0.44976143  1.0
  H  H42  1  0.99196450  0.58888317  0.55026424  1.0
  H  H43  1  0.54179608  0.41085140  0.44963032  1.0
  H  H44  1  0.77426731  0.73450637  0.52839947  1.0
  H  H45  1  0.30307504  0.26551573  0.47168439  1.0
  H  H46  1  0.27426432  0.73645708  0.52849786  1.0
  H  H47  1  0.80266023  0.26333929  0.47145510  1.0
  H  H48  1  0.42701541  0.03472751  0.46679092  1.0
  H  H49  1  0.89456463  0.96540012  0.53318887  1.0
  H  H50  1  0.92674827  0.49838862  0.46663218  1.0
  H  H51  1  0.39382694  0.50165161  0.53318021  1.0
  H  H52  1  0.60133800  0.06888700  0.63733130  1.0
  H  H53  1  0.23613380  0.93054072  0.36266293  1.0
  H  H54  1  0.10127210  0.29443723  0.63699351  1.0
  H  H55  1  0.73636479  0.70631734  0.36266524  1.0
  H  H56  1  0.44632178  0.15495674  0.67909493  1.0
  H  H57  1  0.12273649  0.84465121  0.32079149  1.0
  H  H58  1  0.94653878  0.16651646  0.67859940  1.0
  H  H59  1  0.62276491  0.83411680  0.32091422  1.0
  C  C60  1  0.58256273  0.50644588  0.03233704  1.0
  C  C61  1  0.61533848  0.49277946  0.96778795  1.0
  C  C62  1  0.08253319  0.46120473  0.03243883  1.0
  C  C63  1  0.11541248  0.53954227  0.96793436  1.0
  C  C64  1  0.67957269  0.01425042  0.40090165  1.0
  C  C65  1  0.08199795  0.98568841  0.59908290  1.0
  C  C66  1  0.17943127  0.58463075  0.40082167  1.0
  C  C67  1  0.58146321  0.41554575  0.59901098  1.0
  C  C68  1  0.61642085  0.58993733  0.91552607  1.0
  C  C69  1  0.53101930  0.40936134  0.08457788  1.0
  C  C70  1  0.11645085  0.49481192  0.91560346  1.0
  C  C71  1  0.03113243  0.50588468  0.08477242  1.0
  C  C72  1  0.59568983  0.61751441  0.04419777  1.0
  C  C73  1  0.64105553  0.38175605  0.95592965  1.0
  C  C74  1  0.09549340  0.33831545  0.04415989  1.0
  C  C75  1  0.14129555  0.66236011  0.95617482  1.0
  C  C76  1  0.24001846  0.05138199  0.60934853  1.0
  C  C77  1  0.84751341  0.94838465  0.39061851  1.0
  C  C78  1  0.73969295  0.33974279  0.60916779  1.0
  C  C79  1  0.34757263  0.66055614  0.39063228  1.0
  C  C80  1  0.53647046  0.19984624  0.36795890  1.0
  C  C81  1  0.90636738  0.80001442  0.63215091  1.0
  C  C82  1  0.03650463  0.43210265  0.36773560  1.0
  C  C83  1  0.40594092  0.56816842  0.63210834  1.0
  C  C84  1  0.55476820  0.62700133  0.10546643  1.0
  C  C85  1  0.66244607  0.37237350  0.89462104  1.0
  C  C86  1  0.05450397  0.26741500  0.10536655  1.0
  C  C87  1  0.16254886  0.73316969  0.89490818  1.0
  C  C88  1  0.87798710  0.84731161  0.43650824  1.0
  C  C89  1  0.31603046  0.15247542  0.56349521  1.0
  C  C90  1  0.37819532  0.71556523  0.43660389  1.0
  C  C91  1  0.81572880  0.28459952  0.56326593  1.0
  C  C92  1  0.63826041  0.57346501  0.85563112  1.0
  C  C93  1  0.49174188  0.42594734  0.14442436  1.0
  C  C94  1  0.13825630  0.57126661  0.85575768  1.0
  C  C95  1  0.99181793  0.42928317  0.14456473  1.0
  C  C96  1  0.57821014  0.31479678  0.31679856  1.0
  C  C97  1  0.89729506  0.68520109  0.68341587  1.0
  C  C98  1  0.07854117  0.36825678  0.31658988  1.0
  C  C99  1  0.39701411  0.63177193  0.68336731  1.0
  C  C100  1  0.54420028  0.99610249  0.73742562  1.0
  C  C101  1  0.27862249  0.00356283  0.26257174  1.0
  C  C102  1  0.04421478  0.26671173  0.73714940  1.0
  C  C103  1  0.77861164  0.73350830  0.26256081  1.0
  C  C104  1  0.59046615  0.88376650  0.50533549  1.0
  C  C105  1  0.09633030  0.11632458  0.49470340  1.0
  C  C106  1  0.09035585  0.61047926  0.50533039  1.0
  C  C107  1  0.59572087  0.38938490  0.49457452  1.0
  C  C108  1  0.74845278  0.81462357  0.49348543  1.0
  C  C109  1  0.24270807  0.18536528  0.50656675  1.0
  C  C110  1  0.24849670  0.69133425  0.49354708  1.0
  C  C111  1  0.74223788  0.30857713  0.50635998  1.0
  C  C112  1  0.55441213  0.98294321  0.45840120  1.0
  C  C113  1  0.01375009  0.01711086  0.54158788  1.0
  C  C114  1  0.05426444  0.55838807  0.45831886  1.0
  C  C115  1  0.51310423  0.44161445  0.54151759  1.0
  C  C116  1  0.47900106  0.06507832  0.67604855  1.0
  C  C117  1  0.15240837  0.93448098  0.32389129  1.0
  C  C118  1  0.97901226  0.25938402  0.67571784  1.0
  C  C119  1  0.65249300  0.74120242  0.32392454  1.0
  N  N120  1  0.50256371  0.53313842  0.15480279  1.0
  N  N121  1  0.66007053  0.46630126  0.84525059  1.0
  N  N122  1  0.00238473  0.31174238  0.15479458  1.0
  N  N123  1  0.16001961  0.68878057  0.84545918  1.0
  O  O124  1  0.00599129  0.89215706  0.64816157  1.0
  O  O125  1  0.65223317  0.10786039  0.35185055  1.0
  O  O126  1  0.50538555  0.45994430  0.64812980  1.0
  O  O127  1  0.15177112  0.54035083  0.35167170  1.0
  O  O128  1  0.30140780  0.74510309  0.21091937  1.0
  O  O129  1  0.51549036  0.25469718  0.78899050  1.0
  O  O130  1  0.80154487  0.04349478  0.21076535  1.0
  O  O131  1  0.01539654  0.95665328  0.78907762  1.0
  O  O132  1  0.30720073  0.00886021  0.66520795  1.0
  O  O133  1  0.96982714  0.99073649  0.33470822  1.0
  O  O134  1  0.80711357  0.32641073  0.66499604  1.0
  O  O135  1  0.46998282  0.67416213  0.33472630  1.0
  O  O136  1  0.93542600  0.68409198  0.73699660  1.0
  O  O137  1  0.66969443  0.31606186  0.26323978  1.0
  O  O138  1  0.43550138  0.57937092  0.73690675  1.0
  O  O139  1  0.17038528  0.42043420  0.26306529  1.0
  O  O140  1  0.46891647  0.89479596  0.76632540  1.0
  O  O141  1  0.23194729  0.10488898  0.23371271  1.0
  O  O142  1  0.96870414  0.33890453  0.76618333  1.0
  O  O143  1  0.73198889  0.66101274  0.23368549  1.0
  O  O144  1  0.50564398  0.40326670  0.33371545  1.0
  O  O145  1  0.84156683  0.59665377  0.66655823  1.0
  O  O146  1  0.00589576  0.26292168  0.33348453  1.0
  O  O147  1  0.34110180  0.73713042  0.66655265  1.0
  O  O148  1  0.67913297  0.04960478  0.75393373  1.0
  O  O149  1  0.43011446  0.95016313  0.24607966  1.0
  O  O150  1  0.17932040  0.19677360  0.75355206  1.0
  O  O151  1  0.92999093  0.80343080  0.24603544  1.0
