# generated using pymatgen
data_AlH15C19O8
_symmetry_space_group_name_H-M   'P 1'
_cell_length_a   6.64029763
_cell_length_b   23.28105847
_cell_length_c   26.41730406
_cell_angle_alpha   101.45549112
_cell_angle_beta   90.56739120
_cell_angle_gamma   90.52938447
_symmetry_Int_Tables_number   1
_chemical_formula_structural   AlH15C19O8
_chemical_formula_sum   'Al4 H60 C76 O32'
_cell_volume   4002.12162801
_cell_formula_units_Z   4
loop_
 _symmetry_equiv_pos_site_id
 _symmetry_equiv_pos_as_xyz
  1  'x, y, z'
loop_
 _atom_site_type_symbol
 _atom_site_label
 _atom_site_symmetry_multiplicity
 _atom_site_fract_x
 _atom_site_fract_y
 _atom_site_fract_z
 _atom_site_occupancy
  Al  Al0  1  0.23694804  0.75069680  0.74967376  1.0
  Al  Al1  1  0.77092368  0.25073341  0.25209159  1.0
  Al  Al2  1  0.73632339  0.75110947  0.75210356  1.0
  Al  Al3  1  0.27093911  0.25040568  0.25014703  1.0
  H  H4  1  0.70398857  0.37809752  0.16637396  1.0
  H  H5  1  0.30732407  0.62570119  0.83829775  1.0
  H  H6  1  0.20442773  0.12489036  0.33849138  1.0
  H  H7  1  0.80706661  0.87556484  0.66556631  1.0
  H  H8  1  0.69019732  0.44230452  0.10125799  1.0
  H  H9  1  0.31777296  0.56145510  0.90319633  1.0
  H  H10  1  0.19519494  0.06202909  0.40477662  1.0
  H  H11  1  0.82503466  0.93962758  0.60057141  1.0
  H  H12  1  0.30429387  0.39832516  0.06016923  1.0
  H  H13  1  0.69657828  0.60160750  0.93959116  1.0
  H  H14  1  0.81685308  0.10632128  0.44358792  1.0
  H  H15  1  0.19991696  0.90091544  0.56109295  1.0
  H  H16  1  0.31840131  0.33629245  0.12702734  1.0
  H  H17  1  0.68623059  0.66336992  0.87272097  1.0
  H  H18  1  0.82610239  0.16711250  0.37563413  1.0
  H  H19  1  0.18370388  0.83802935  0.62696373  1.0
  H  H20  1  0.28848004  0.49769889  0.06074534  1.0
  H  H21  1  0.71297529  0.50253746  0.94193826  1.0
  H  H22  1  0.79183926  0.00559181  0.44270894  1.0
  H  H23  1  0.22932125  0.00219161  0.56307930  1.0
  H  H24  1  0.55385238  0.54492373  0.04357457  1.0
  H  H25  1  0.38504188  0.59928349  0.07710263  1.0
  H  H26  1  0.57079442  0.61872132  0.03411931  1.0
  H  H27  1  0.77089607  0.35081211  0.99990622  1.0
  H  H28  1  0.69171840  0.37033497  0.94018784  1.0
  H  H29  1  0.50778731  0.35624496  0.98571601  1.0
  H  H30  1  0.05838968  0.95914400  0.46206650  1.0
  H  H31  1  0.88591696  0.90623343  0.42543241  1.0
  H  H32  1  0.06775883  0.88418214  0.46849047  1.0
  H  H33  1  0.30676969  0.15471162  0.50499749  1.0
  H  H34  1  0.23347185  0.13708740  0.56562632  1.0
  H  H35  1  0.04526816  0.15252275  0.52102383  1.0
  H  H36  1  0.61935215  0.39934457  0.42144284  1.0
  H  H37  1  0.48184156  0.43760654  0.47599330  1.0
  H  H38  1  0.49932956  0.35904838  0.46413839  1.0
  H  H39  1  0.52152741  0.56399878  0.52552904  1.0
  H  H40  1  0.38430686  0.60223992  0.58013537  1.0
  H  H41  1  0.50511530  0.64259733  0.53760412  1.0
  H  H42  1  0.08828765  0.08781830  0.07364715  1.0
  H  H43  1  0.96906742  0.05183329  0.01421680  1.0
  H  H44  1  0.97999612  0.13060915  0.03111261  1.0
  H  H45  1  0.68893531  0.82900010  0.94895695  1.0
  H  H46  1  0.54873904  0.83909373  0.00783270  1.0
  H  H47  1  0.81034767  0.81986432  0.00768911  1.0
  H  H48  1  0.89759471  0.46970562  0.63321408  1.0
  H  H49  1  0.76443143  0.41164353  0.58988834  1.0
  H  H50  1  0.62979945  0.46197523  0.63799098  1.0
  H  H51  1  0.24196545  0.59053262  0.41204013  1.0
  H  H52  1  0.10725398  0.53297512  0.36854433  1.0
  H  H53  1  0.37532252  0.54001635  0.36379609  1.0
  H  H54  1  0.39008776  0.02533889  0.86997181  1.0
  H  H55  1  0.24838021  0.08042345  0.91244753  1.0
  H  H56  1  0.12133336  0.02752590  0.86328188  1.0
  H  H57  1  0.71947777  0.91651041  0.10200495  1.0
  H  H58  1  0.58708075  0.97714169  0.14012396  1.0
  H  H59  1  0.85343078  0.97006755  0.14887181  1.0
  H  H60  1  0.48524916  0.67590000  0.72467753  1.0
  H  H61  1  0.52206579  0.32467274  0.27893633  1.0
  H  H62  1  0.99358879  0.82513331  0.77810500  1.0
  H  H63  1  0.01527119  0.17693336  0.22248946  1.0
  C  C64  1  0.49288665  0.82590197  0.82898499  1.0
  C  C65  1  0.51690913  0.17578280  0.17266542  1.0
  C  C66  1  0.97545974  0.67585764  0.67266518  1.0
  C  C67  1  0.02827942  0.32551456  0.32956433  1.0
  C  C68  1  0.48496219  0.81595875  0.68994344  1.0
  C  C69  1  0.52036258  0.18566377  0.31248038  1.0
  C  C70  1  0.99235634  0.68566478  0.81197592  1.0
  C  C71  1  0.01865371  0.31630260  0.19038265  1.0
  C  C72  1  0.83461767  0.38309948  0.14289200  1.0
  C  C73  1  0.17445440  0.61983821  0.86074781  1.0
  C  C74  1  0.33757817  0.12030769  0.36176899  1.0
  C  C75  1  0.67521504  0.88160139  0.64235529  1.0
  C  C76  1  0.82719287  0.41862457  0.10638598  1.0
  C  C77  1  0.17985925  0.58430482  0.89724036  1.0
  C  C78  1  0.33278535  0.08552296  0.39885222  1.0
  C  C79  1  0.68468686  0.91711201  0.60589408  1.0
  C  C80  1  0.99632918  0.42484251  0.07611255  1.0
  C  C81  1  0.00796974  0.57686142  0.92617631  1.0
  C  C82  1  0.50541714  0.07971869  0.42871166  1.0
  C  C83  1  0.51352844  0.92515626  0.57632412  1.0
  C  C84  1  0.17313582  0.39459371  0.08392583  1.0
  C  C85  1  0.83032976  0.60601520  0.91693039  1.0
  C  C86  1  0.68300483  0.10972438  0.42008140  1.0
  C  C87  1  0.33311313  0.89607460  0.58434066  1.0
  C  C88  1  0.18168925  0.35973731  0.12098306  1.0
  C  C89  1  0.82376566  0.64088632  0.87985923  1.0
  C  C90  1  0.68879950  0.14389678  0.38245933  1.0
  C  C91  1  0.32310254  0.86071159  0.62094462  1.0
  C  C92  1  0.01199781  0.35360530  0.15065547  1.0
  C  C93  1  0.99638005  0.64827233  0.85163001  1.0
  C  C94  1  0.51577817  0.14947094  0.35305519  1.0
  C  C95  1  0.49430862  0.85327493  0.65032855  1.0
  C  C96  1  0.16271275  0.49909785  0.03436708  1.0
  C  C97  1  0.84122247  0.50245062  0.96805426  1.0
  C  C98  1  0.66928537  0.00457128  0.46955082  1.0
  C  C99  1  0.35433816  0.00194905  0.53655053  1.0
  C  C100  1  0.17165529  0.53649134  0.99917833  1.0
  C  C101  1  0.83013643  0.46627409  0.00412139  1.0
  C  C102  1  0.67694898  0.96632532  0.50405801  1.0
  C  C103  1  0.34460513  0.03916653  0.50132065  1.0
  C  C104  1  0.00898281  0.53833401  0.96436844  1.0
  C  C105  1  0.99383406  0.46329610  0.03781558  1.0
  C  C106  1  0.51714351  0.96466714  0.53896982  1.0
  C  C107  1  0.50448122  0.04143065  0.46710510  1.0
  C  C108  1  0.86087034  0.49720737  0.53971594  1.0
  C  C109  1  0.14242306  0.50487936  0.46185559  1.0
  C  C110  1  0.35669415  0.99713835  0.96370878  1.0
  C  C111  1  0.63621850  0.99636326  0.04457580  1.0
  C  C112  1  0.98858025  0.54709810  0.54399191  1.0
  C  C113  1  0.01474489  0.45498807  0.45758468  1.0
  C  C114  1  0.48941379  0.94907092  0.96163719  1.0
  C  C115  1  0.50745328  0.04456820  0.04573890  1.0
  C  C116  1  0.12921316  0.55091211  0.50472709  1.0
  C  C117  1  0.87411518  0.45119670  0.49684500  1.0
  C  C118  1  0.62691951  0.94820144  0.00301816  1.0
  C  C119  1  0.36698455  0.04491022  0.00512955  1.0
  C  C120  1  0.97695273  0.59261970  0.58787949  1.0
  C  C121  1  0.02679687  0.40932864  0.41384357  1.0
  C  C122  1  0.48853067  0.90558039  0.91611832  1.0
  C  C123  1  0.51416517  0.09143646  0.08875656  1.0
  C  C124  1  0.03234653  0.37018671  0.37573170  1.0
  C  C125  1  0.97199140  0.63146292  0.62622400  1.0
  C  C126  1  0.51693147  0.13105685  0.12656211  1.0
  C  C127  1  0.48901680  0.86963791  0.87571793  1.0
  C  C128  1  0.46709870  0.58423588  0.04091345  1.0
  C  C129  1  0.65794790  0.37460931  0.98151216  1.0
  C  C130  1  0.96780706  0.91945475  0.46247351  1.0
  C  C131  1  0.19242316  0.13256806  0.52448567  1.0
  C  C132  1  0.57823177  0.39990265  0.46173482  1.0
  C  C133  1  0.42566011  0.60179814  0.53988835  1.0
  C  C134  1  0.05933784  0.09005730  0.03304676  1.0
  C  C135  1  0.69672947  0.84462039  0.99089248  1.0
  C  C136  1  0.75664975  0.45712850  0.61132370  1.0
  C  C137  1  0.24844811  0.54510061  0.39045962  1.0
  C  C138  1  0.24773377  0.03491239  0.89085981  1.0
  C  C139  1  0.72936189  0.96313430  0.12059155  1.0
  O  O140  1  0.65133258  0.80582949  0.71092685  1.0
  O  O141  1  0.35101901  0.19815931  0.29447513  1.0
  O  O142  1  0.16230427  0.70183366  0.79731618  1.0
  O  O143  1  0.84997427  0.30301507  0.20788194  1.0
  O  O144  1  0.32447491  0.81168315  0.80622952  1.0
  O  O145  1  0.68789503  0.19278115  0.19270825  1.0
  O  O146  1  0.80666639  0.69545762  0.69036039  1.0
  O  O147  1  0.19690933  0.30831134  0.30991298  1.0
  O  O148  1  0.31197865  0.79754830  0.70053494  1.0
  O  O149  1  0.69283824  0.20065310  0.29838051  1.0
  O  O150  1  0.82032008  0.69791267  0.79527809  1.0
  O  O151  1  0.19143162  0.30125423  0.20431728  1.0
  O  O152  1  0.14857760  0.69101151  0.69223001  1.0
  O  O153  1  0.85467138  0.30757125  0.31205437  1.0
  O  O154  1  0.66437089  0.80521112  0.81432426  1.0
  O  O155  1  0.34562636  0.19391634  0.18990334  1.0
  O  O156  1  0.48558713  0.71491284  0.74599013  1.0
  O  O157  1  0.52196848  0.28635549  0.25638686  1.0
  O  O158  1  0.98810625  0.78658106  0.75592851  1.0
  O  O159  1  0.01947473  0.21478802  0.24579904  1.0
  O  O160  1  0.33093139  0.57395682  0.99764774  1.0
  O  O161  1  0.65153397  0.43527865  0.00639876  1.0
  O  O162  1  0.83114457  0.92780762  0.50478568  1.0
  O  O163  1  0.17087228  0.07183759  0.50041231  1.0
  O  O164  1  0.75597590  0.40210703  0.49430090  1.0
  O  O165  1  0.24793312  0.59987679  0.50731805  1.0
  O  O166  1  0.24636137  0.09259280  0.00586765  1.0
  O  O167  1  0.76259194  0.90494771  0.00448625  1.0
  O  O168  1  0.71823363  0.49669436  0.57680954  1.0
  O  O169  1  0.28527217  0.50523742  0.42478847  1.0
  O  O170  1  0.21693546  0.99431745  0.92487938  1.0
  O  O171  1  0.77586150  0.99887751  0.08360858  1.0
