# generated using pymatgen
data_Zn2H24C46SN4O15
_symmetry_space_group_name_H-M   'P 1'
_cell_length_a   9.72192202
_cell_length_b   11.15277795
_cell_length_c   28.04897311
_cell_angle_alpha   89.28670248
_cell_angle_beta   89.42176170
_cell_angle_gamma   89.45115874
_symmetry_Int_Tables_number   1
_chemical_formula_structural   Zn2H24C46SN4O15
_chemical_formula_sum   'Zn2 H24 C46 S1 N4 O15'
_cell_volume   3040.72378020
_cell_formula_units_Z   1
loop_
 _symmetry_equiv_pos_site_id
 _symmetry_equiv_pos_as_xyz
  1  'x, y, z'
loop_
 _atom_site_type_symbol
 _atom_site_label
 _atom_site_symmetry_multiplicity
 _atom_site_fract_x
 _atom_site_fract_y
 _atom_site_fract_z
 _atom_site_occupancy
  Zn  Zn0  1  0.36292589  0.49818731  0.50177746  1.0
  Zn  Zn1  1  0.64587237  0.48260331  0.50021857  1.0
  H  H2  1  0.28369615  0.48375362  0.35147648  1.0
  H  H3  1  0.72020062  0.49731567  0.25761022  1.0
  H  H4  1  0.49203715  0.79954359  0.12341134  1.0
  H  H5  1  0.51749364  0.80728655  0.96594253  1.0
  H  H6  1  0.73963471  0.51443340  0.65457227  1.0
  H  H7  1  0.52220378  0.80611880  0.87765206  1.0
  H  H8  1  0.72847397  0.51687062  0.74408112  1.0
  H  H9  1  0.49462427  0.80594146  0.03515378  1.0
  H  H10  1  0.43292090  0.90738210  0.47974113  1.0
  H  H11  1  0.69127590  0.10560099  0.52388345  1.0
  H  H12  1  0.27828421  0.48898728  0.26198395  1.0
  H  H13  1  0.37608560  0.08596152  0.52054674  1.0
  H  H14  1  0.11635982  0.66963719  0.52947069  1.0
  H  H15  1  0.10677797  0.41713019  0.50217030  1.0
  H  H16  1  0.86537109  0.60941782  0.55443814  1.0
  H  H17  1  0.91092956  0.46736538  0.46845688  1.0
  H  H18  1  0.49832884  0.19768134  0.12325095  1.0
  H  H19  1  0.29936895  0.50188995  0.64944239  1.0
  H  H20  1  0.28710558  0.50246815  0.73897382  1.0
  H  H21  1  0.46941265  0.20659387  0.87776837  1.0
  H  H22  1  0.47052061  0.20006897  0.96604772  1.0
  H  H23  1  0.49496102  0.19700322  0.03498595  1.0
  H  H24  1  0.72468823  0.49131167  0.34708630  1.0
  H  H25  1  0.83956641  0.01132088  0.58954731  1.0
  C  C26  1  0.48380546  0.25716225  0.51047962  1.0
  C  C27  1  0.37563293  0.48962121  0.28091415  1.0
  C  C28  1  0.49901268  0.49353286  0.25521018  1.0
  C  C29  1  0.49459828  0.49929005  0.10257646  1.0
  C  C30  1  0.49573946  0.38854003  0.12783985  1.0
  C  C31  1  0.49631858  0.28167888  0.10294786  1.0
  C  C32  1  0.49404222  0.60834829  0.12794637  1.0
  C  C33  1  0.50444729  0.48704881  0.35444874  1.0
  C  C34  1  0.52000847  0.50749656  0.64700224  1.0
  C  C35  1  0.48830595  0.39161248  0.97447290  1.0
  C  C36  1  0.50105795  0.61511266  0.97445473  1.0
  C  C37  1  0.50783498  0.48481766  0.40790566  1.0
  C  C38  1  0.49515922  0.50412107  0.94958893  1.0
  C  C39  1  0.47827661  0.28662063  0.94789643  1.0
  C  C40  1  0.47735476  0.28886413  0.89811173  1.0
  C  C41  1  0.48724284  0.39690912  0.87325151  1.0
  C  C42  1  0.49619566  0.50565715  0.89853978  1.0
  C  C43  1  0.50612284  0.61595250  0.87320682  1.0
  C  C44  1  0.50965314  0.61978708  0.82042517  1.0
  C  C45  1  0.48848394  0.39606591  0.82049372  1.0
  C  C46  1  0.38573026  0.50560106  0.72019279  1.0
  C  C47  1  0.39243234  0.50499825  0.67063450  1.0
  C  C48  1  0.49820279  0.72682490  0.50034996  1.0
  C  C49  1  0.64121903  0.51185130  0.67343698  1.0
  C  C50  1  0.63504883  0.51315513  0.72301499  1.0
  C  C51  1  0.50733352  0.50935912  0.74599928  1.0
  C  C52  1  0.49224474  0.38984262  0.02661967  1.0
  C  C53  1  0.49440311  0.50093750  0.05152120  1.0
  C  C54  1  0.49656547  0.61362706  0.02663831  1.0
  C  C55  1  0.49427251  0.28268344  0.05317408  1.0
  C  C56  1  0.49331656  0.71681995  0.10308267  1.0
  C  C57  1  0.51102025  0.72179797  0.94782467  1.0
  C  C58  1  0.51389849  0.72256229  0.89803352  1.0
  C  C59  1  0.52568274  0.50335726  0.59372897  1.0
  C  C60  1  0.49495422  0.71903449  0.05328393  1.0
  C  C61  1  0.59452823  0.92811681  0.52694950  1.0
  C  C62  1  0.50731499  0.85978390  0.50216236  1.0
  C  C63  1  0.59319153  0.05857120  0.52343350  1.0
  C  C64  1  0.47825688  0.12542294  0.51842712  1.0
  C  C65  1  0.07229873  0.58249142  0.52092775  1.0
  C  C66  1  0.92181579  0.56561180  0.52537875  1.0
  C  C67  1  0.49761842  0.38432466  0.18058548  1.0
  C  C68  1  0.49427151  0.60899853  0.18073644  1.0
  C  C69  1  0.62508300  0.49421849  0.27846519  1.0
  C  C70  1  0.62756177  0.49081610  0.32807629  1.0
  C  C71  1  0.37856632  0.48655607  0.33053626  1.0
  S  S72  1  0.72466580  0.86219267  0.56470551  1.0
  N  N73  1  0.49645478  0.49586079  0.20368483  1.0
  N  N74  1  0.50141538  0.50846628  0.79746987  1.0
  N  N75  1  0.15352878  0.49794024  0.50793001  1.0
  N  N76  1  0.85449732  0.50122845  0.49647797  1.0
  O  O77  1  0.36833944  0.31240211  0.50918847  1.0
  O  O78  1  0.47969705  0.30350068  0.79738680  1.0
  O  O79  1  0.49291386  0.70181177  0.20395967  1.0
  O  O80  1  0.51929762  0.71370981  0.79726472  1.0
  O  O81  1  0.60213618  0.30443492  0.50537165  1.0
  O  O82  1  0.39240438  0.48701358  0.42998505  1.0
  O  O83  1  0.62548427  0.48169346  0.42751416  1.0
  O  O84  1  0.37693568  0.68556020  0.49769530  1.0
  O  O85  1  0.61018707  0.66768890  0.49986897  1.0
  O  O86  1  0.41098908  0.51245303  0.57217635  1.0
  O  O87  1  0.64275804  0.48967003  0.57366218  1.0
  O  O88  1  0.50022164  0.28991244  0.20370270  1.0
  O  O89  1  0.66624851  0.77022205  0.59437766  1.0
  O  O90  1  0.85006941  0.84216291  0.53751349  1.0
  O  O91  1  0.75420205  0.97286263  0.60001216  1.0
