# generated using pymatgen
data_Zn2H18C32S(NO8)2
_symmetry_space_group_name_H-M   'P 1'
_cell_length_a   10.02001199
_cell_length_b   10.81508090
_cell_length_c   23.80652817
_cell_angle_alpha   89.57638746
_cell_angle_beta   90.13073418
_cell_angle_gamma   89.50388782
_symmetry_Int_Tables_number   1
_chemical_formula_structural   Zn2H18C32S(NO8)2
_chemical_formula_sum   'Zn4 H36 C64 S2 N4 O32'
_cell_volume   2579.67344135
_cell_formula_units_Z   2
loop_
 _symmetry_equiv_pos_site_id
 _symmetry_equiv_pos_as_xyz
  1  'x, y, z'
loop_
 _atom_site_type_symbol
 _atom_site_label
 _atom_site_symmetry_multiplicity
 _atom_site_fract_x
 _atom_site_fract_y
 _atom_site_fract_z
 _atom_site_occupancy
  Zn  Zn0  1  0.33489940  0.52511363  0.49006726  1.0
  Zn  Zn1  1  0.63669689  0.52601437  0.49526576  1.0
  Zn  Zn2  1  0.66627748  0.50536802  0.95671453  1.0
  Zn  Zn3  1  0.36666285  0.51408274  0.95383782  1.0
  H  H4  1  0.73565790  0.59723184  0.39226919  1.0
  H  H5  1  0.85656270  0.69258291  0.31219862  1.0
  H  H6  1  0.22791598  0.64985301  0.40162141  1.0
  H  H7  1  0.10289310  0.71985056  0.31739324  1.0
  H  H8  1  0.71100024  0.82057050  0.40659562  1.0
  H  H9  1  0.89011395  0.94707196  0.36705791  1.0
  H  H10  1  0.72092549  0.26989111  0.44427038  1.0
  H  H11  1  0.89477111  0.17521498  0.38582702  1.0
  H  H12  1  0.69997906  0.41960052  0.14508521  1.0
  H  H13  1  0.28715310  0.38117726  0.10309712  1.0
  H  H14  1  0.29672862  0.41819932  0.30579396  1.0
  H  H15  1  0.71127797  0.38788181  0.34781978  1.0
  H  H16  1  0.32274972  0.72625963  0.83511308  1.0
  H  H17  1  0.15337588  0.85906072  0.79045212  1.0
  H  H18  1  0.27187737  0.72938148  0.62780758  1.0
  H  H19  1  0.12644000  0.86022098  0.68575720  1.0
  H  H20  1  0.26441732  0.58952589  0.05446001  1.0
  H  H21  1  0.14058815  0.69040408  0.13206976  1.0
  H  H22  1  0.77149503  0.64206764  0.04239954  1.0
  H  H23  1  0.89411239  0.71967548  0.12511213  1.0
  H  H24  1  0.31607609  0.80638674  0.04849609  1.0
  H  H25  1  0.14424482  0.93603032  0.09252662  1.0
  H  H26  1  0.29577530  0.25508032  0.00609584  1.0
  H  H27  1  0.13223000  0.16304653  0.07047152  1.0
  H  H28  1  0.20659443  0.48848364  0.58490345  1.0
  H  H29  1  0.77332172  0.35180450  0.55128910  1.0
  H  H30  1  0.29266448  0.22833729  0.52443686  1.0
  H  H31  1  0.28835781  0.81234482  0.49462522  1.0
  H  H32  1  0.66601740  0.48064081  0.62154401  1.0
  H  H33  1  0.67807887  0.42933846  0.80870405  1.0
  H  H34  1  0.79959099  0.46687580  0.86495730  1.0
  H  H35  1  0.23940019  0.34576641  0.89547052  1.0
  H  H36  1  0.72053663  0.20837264  0.92272054  1.0
  H  H37  1  0.71533430  0.79036884  0.94115037  1.0
  H  H38  1  0.93950892  0.31692998  0.17633579  1.0
  H  H39  1  0.05872033  0.31874224  0.27541559  1.0
  C  C40  1  0.50296093  0.76118881  0.47073262  1.0
  C  C41  1  0.47256635  0.44462169  0.39160957  1.0
  C  C42  1  0.50857180  0.28635331  0.51006003  1.0
  C  C43  1  0.46218324  0.56997074  0.60152285  1.0
  C  C44  1  0.50831088  0.74380935  0.97555304  1.0
  C  C45  1  0.52464031  0.43609442  0.05832114  1.0
  C  C46  1  0.50478209  0.27130294  0.94002483  1.0
  C  C47  1  0.51386246  0.55302858  0.84508422  1.0
  C  C48  1  0.91282363  0.56720932  0.44198849  1.0
  C  C49  1  0.91624815  0.45706609  0.52671782  1.0
  C  C50  1  0.84301860  0.60997509  0.39417433  1.0
  C  C51  1  0.91091342  0.66326796  0.34977532  1.0
  C  C52  1  0.05890656  0.48223200  0.53238862  1.0
  C  C53  1  0.05401207  0.57990311  0.44435381  1.0
  C  C54  1  0.12050326  0.63786459  0.39936553  1.0
  C  C55  1  0.04994912  0.67806952  0.35255297  1.0
  C  C56  1  0.49972116  0.89811652  0.46932348  1.0
  C  C57  1  0.61095108  0.97047668  0.44934544  1.0
  C  C58  1  0.38679935  0.95812222  0.49096899  1.0
  C  C59  1  0.71300922  0.91871423  0.41555794  1.0
  C  C60  1  0.81387352  0.99016459  0.39324093  1.0
  C  C61  1  0.50524592  0.15670155  0.49116196  1.0
  C  C62  1  0.38910642  0.08897242  0.50133466  1.0
  C  C63  1  0.61436677  0.10039151  0.46062097  1.0
  C  C64  1  0.71936092  0.17093992  0.43718039  1.0
  C  C65  1  0.81691522  0.11758445  0.40401582  1.0
  C  C66  1  0.59793663  0.40533649  0.15874378  1.0
  C  C67  1  0.36459976  0.38636012  0.13497907  1.0
  C  C68  1  0.33281363  0.38291791  0.19103921  1.0
  C  C69  1  0.43040641  0.39102166  0.23440865  1.0
  C  C70  1  0.39926397  0.40543629  0.29215557  1.0
  C  C71  1  0.63351537  0.39111176  0.31595693  1.0
  C  C72  1  0.66510942  0.38600976  0.25995399  1.0
  C  C73  1  0.56704670  0.39189976  0.21660720  1.0
  C  C74  1  0.49841488  0.40531513  0.11871296  1.0
  C  C75  1  0.49909590  0.40897371  0.33201770  1.0
  C  C76  1  0.49841059  0.56815615  0.78325941  1.0
  C  C77  1  0.39548856  0.64562895  0.75793167  1.0
  C  C78  1  0.58522909  0.50173068  0.74872675  1.0
  C  C79  1  0.31143116  0.72451905  0.78976646  1.0
  C  C80  1  0.21582827  0.79940058  0.76451872  1.0
  C  C81  1  0.47142241  0.57672998  0.66360414  1.0
  C  C82  1  0.57677688  0.51150247  0.68886445  1.0
  C  C83  1  0.38021010  0.64721884  0.69778188  1.0
  C  C84  1  0.28177179  0.72577459  0.67329161  1.0
  C  C85  1  0.20049089  0.80000339  0.70583754  1.0
  C  C86  1  0.08884382  0.55646958  0.00482507  1.0
  C  C87  1  0.09075935  0.44437392  0.92135741  1.0
  C  C88  1  0.15690820  0.60201626  0.05203127  1.0
  C  C89  1  0.08732262  0.65872439  0.09496846  1.0
  C  C90  1  0.94720046  0.46622871  0.91600844  1.0
  C  C91  1  0.94724421  0.56860004  0.00192740  1.0
  C  C92  1  0.87904138  0.63029669  0.04529420  1.0
  C  C93  1  0.94819416  0.67424214  0.09127240  1.0
  C  C94  1  0.51294017  0.87996596  0.97689437  1.0
  C  C95  1  0.40650269  0.95397793  0.00077547  1.0
  C  C96  1  0.62199567  0.93847047  0.95152579  1.0
  C  C97  1  0.31144429  0.90424886  0.03844747  1.0
  C  C98  1  0.21458182  0.97749574  0.06316466  1.0
  C  C99  1  0.50679289  0.13922001  0.95651322  1.0
  C  C100  1  0.62062046  0.07005360  0.94322704  1.0
  C  C101  1  0.40103623  0.08405106  0.98896170  1.0
  C  C102  1  0.29901897  0.15620501  0.01416819  1.0
  C  C103  1  0.20767877  0.10454380  0.05072603  1.0
  S  S104  1  0.83374422  0.40156354  0.24333316  1.0
  S  S105  1  0.16367129  0.39913327  0.20706898  1.0
  N  N106  1  0.84598840  0.50775915  0.48540360  1.0
  N  N107  1  0.12450294  0.53653002  0.49093397  1.0
  N  N108  1  0.15836610  0.49629467  0.96248173  1.0
  N  N109  1  0.87856302  0.52118677  0.95614864  1.0
  O  O110  1  0.38889196  0.70439948  0.47273245  1.0
  O  O111  1  0.61438778  0.70455312  0.47222208  1.0
  O  O112  1  0.57762821  0.46035293  0.42064605  1.0
  O  O113  1  0.35374261  0.46144414  0.40848402  1.0
  O  O114  1  0.61972661  0.33883682  0.52114092  1.0
  O  O115  1  0.39556837  0.34438635  0.51477455  1.0
  O  O116  1  0.34885554  0.56462563  0.57631316  1.0
  O  O117  1  0.57368422  0.56606148  0.57486781  1.0
  O  O118  1  0.61988503  0.68566730  0.96440219  1.0
  O  O119  1  0.39924100  0.68752439  0.98296437  1.0
  O  O120  1  0.42021777  0.43865819  0.02781710  1.0
  O  O121  1  0.64205464  0.46072378  0.04211146  1.0
  O  O122  1  0.39681661  0.32697083  0.92608975  1.0
  O  O123  1  0.61954897  0.32565774  0.94064739  1.0
  O  O124  1  0.63015972  0.52093222  0.86555416  1.0
  O  O125  1  0.41262987  0.56984686  0.87616486  1.0
  O  O126  1  0.11642015  0.44827502  0.58010582  1.0
  O  O127  1  0.86217390  0.38295323  0.56466543  1.0
  O  O128  1  0.27688201  0.13699104  0.52308496  1.0
  O  O129  1  0.27374916  0.90078384  0.50569439  1.0
  O  O130  1  0.67384082  0.45125430  0.66099233  1.0
  O  O131  1  0.68094408  0.42324564  0.76738764  1.0
  O  O132  1  0.89012145  0.42874835  0.86887678  1.0
  O  O133  1  0.14729452  0.37209361  0.88354365  1.0
  O  O134  1  0.73173252  0.11692026  0.92014136  1.0
  O  O135  1  0.73058815  0.88007406  0.93199780  1.0
  O  O136  1  0.85404614  0.29722181  0.19783236  1.0
  O  O137  1  0.91250083  0.36813207  0.29308106  1.0
  O  O138  1  0.85218707  0.52206935  0.21858788  1.0
  O  O139  1  0.14450609  0.29726460  0.25431928  1.0
  O  O140  1  0.08594083  0.36332071  0.15777575  1.0
  O  O141  1  0.14286462  0.52091348  0.22962833  1.0
