# generated using pymatgen
data_ZnH24C28NO10
_symmetry_space_group_name_H-M   'P 1'
_cell_length_a   14.36590851
_cell_length_b   16.87556591
_cell_length_c   17.53536130
_cell_angle_alpha   89.78335804
_cell_angle_beta   88.80028617
_cell_angle_gamma   89.95174566
_symmetry_Int_Tables_number   1
_chemical_formula_structural   ZnH24C28NO10
_chemical_formula_sum   'Zn2 H48 C56 N2 O20'
_cell_volume   4250.18384644
_cell_formula_units_Z   2
loop_
 _symmetry_equiv_pos_site_id
 _symmetry_equiv_pos_as_xyz
  1  'x, y, z'
loop_
 _atom_site_type_symbol
 _atom_site_label
 _atom_site_symmetry_multiplicity
 _atom_site_fract_x
 _atom_site_fract_y
 _atom_site_fract_z
 _atom_site_occupancy
  Zn  Zn0  1  0.50958908  0.59396513  0.50128789  1.0
  Zn  Zn1  1  0.50774666  0.41082214  0.49778890  1.0
  H  H2  1  0.41031256  0.62219772  0.26579186  1.0
  H  H3  1  0.30315042  0.92453720  0.48420221  1.0
  H  H4  1  0.24685248  0.99982343  0.59848946  1.0
  H  H5  1  0.15131557  0.95306075  0.55352586  1.0
  H  H6  1  0.19684152  0.91164861  0.63843638  1.0
  H  H7  1  0.54581261  0.16898155  0.29641872  1.0
  H  H8  1  0.49523113  0.08017034  0.33513889  1.0
  H  H9  1  0.63641314  0.00289419  0.29627174  1.0
  H  H10  1  0.59026805  0.05269443  0.21551081  1.0
  H  H11  1  0.69093092  0.09079832  0.25991540  1.0
  H  H12  1  0.75643320  0.83454957  0.47064403  1.0
  H  H13  1  0.42316238  0.38897504  0.72383325  1.0
  H  H14  1  0.70980784  0.92264456  0.51356500  1.0
  H  H15  1  0.75841485  0.00205284  0.39892020  1.0
  H  H16  1  0.85653028  0.95228006  0.43735583  1.0
  H  H17  1  0.80379194  0.91499624  0.35389685  1.0
  H  H18  1  0.44881185  0.17340088  0.70396687  1.0
  H  H19  1  0.50298164  0.08430016  0.66988108  1.0
  H  H20  1  0.36073488  0.00644586  0.70566077  1.0
  H  H21  1  0.40241616  0.05804906  0.78662100  1.0
  H  H22  1  0.30363978  0.09459755  0.73811691  1.0
  H  H23  1  0.33579611  0.77648884  0.67150700  1.0
  H  H24  1  0.53546004  0.62136739  0.75298328  1.0
  H  H25  1  0.42139728  0.70031202  0.68493117  1.0
  H  H26  1  0.30200551  0.59626384  0.66049987  1.0
  H  H27  1  0.26455520  0.65778936  0.73794037  1.0
  H  H28  1  0.21609701  0.67039966  0.64592274  1.0
  H  H29  1  0.72298788  0.22329659  0.38152979  1.0
  H  H30  1  0.73129795  0.30495146  0.44695296  1.0
  H  H31  1  0.71405260  0.40071203  0.33902724  1.0
  H  H32  1  0.81197002  0.33770430  0.32196053  1.0
  H  H33  1  0.70645782  0.32066743  0.27319282  1.0
  H  H34  1  0.66805349  0.77961690  0.32791346  1.0
  H  H35  1  0.53318341  0.39112559  0.26519613  1.0
  H  H36  1  0.58302087  0.70227804  0.31915163  1.0
  H  H37  1  0.70556899  0.59979164  0.33881248  1.0
  H  H38  1  0.73731582  0.66191468  0.25975679  1.0
  H  H39  1  0.79130355  0.67476343  0.34945293  1.0
  H  H40  1  0.27232041  0.22351427  0.59606017  1.0
  H  H41  1  0.27637741  0.30903145  0.53408750  1.0
  H  H42  1  0.27128627  0.39795813  0.64817359  1.0
  H  H43  1  0.17232548  0.33480862  0.64758921  1.0
  H  H44  1  0.26527970  0.31354120  0.70993744  1.0
  H  H45  1  0.34228004  0.67763523  0.16217804  1.0
  H  H46  1  0.36660287  0.31301618  0.82344268  1.0
  H  H47  1  0.54409563  0.68288084  0.86488669  1.0
  H  H48  1  0.53771551  0.31110737  0.16342644  1.0
  H  H49  1  0.25170618  0.83543654  0.52156488  1.0
  C  C50  1  0.49632076  0.51150136  0.64491502  1.0
  C  C51  1  0.55589215  0.24683316  0.44890569  1.0
  C  C52  1  0.57155407  0.75822535  0.46096448  1.0
  C  C53  1  0.44594908  0.24736580  0.54970683  1.0
  C  C54  1  0.50290403  0.88270528  0.50066093  1.0
  C  C55  1  0.50178564  0.12165965  0.50070291  1.0
  C  C56  1  0.50190344  0.96611884  0.50066640  1.0
  C  C57  1  0.50169466  0.03825386  0.50097416  1.0
  C  C58  1  0.33028162  0.48997733  0.49347691  1.0
  C  C59  1  0.68602809  0.48812866  0.50546471  1.0
  C  C60  1  0.22976227  0.49190298  0.49489077  1.0
  C  C61  1  0.50156707  0.51654842  0.35555272  1.0
  C  C62  1  0.78662965  0.48965032  0.50562855  1.0
  C  C63  1  0.14435960  0.49321081  0.49754640  1.0
  C  C64  1  0.87204053  0.49164708  0.50449313  1.0
  C  C65  1  0.05115393  0.49362853  0.50029563  1.0
  C  C66  1  0.96525782  0.49315458  0.50269373  1.0
  C  C67  1  0.40526646  0.56013578  0.15858639  1.0
  C  C68  1  0.41707655  0.43350412  0.83922591  1.0
  C  C69  1  0.48671732  0.56420346  0.85648265  1.0
  C  C70  1  0.48027319  0.43001569  0.15687200  1.0
  C  C71  1  0.42991113  0.56845699  0.23482419  1.0
  C  C72  1  0.42293997  0.48787027  0.03772105  1.0
  C  C73  1  0.43924411  0.43829583  0.76146041  1.0
  C  C74  1  0.50262494  0.56854036  0.77761899  1.0
  C  C75  1  0.49920113  0.43897418  0.23416832  1.0
  C  C76  1  0.47741051  0.50867805  0.27329592  1.0
  C  C77  1  0.47998426  0.50616533  0.72944757  1.0
  C  C78  1  0.43386077  0.49168913  0.11667556  1.0
  C  C79  1  0.44173143  0.49621034  0.88913080  1.0
  C  C80  1  0.34885225  0.62406594  0.12489209  1.0
  C  C81  1  0.36673324  0.36213963  0.86631980  1.0
  C  C82  1  0.52016643  0.63198136  0.90159078  1.0
  C  C83  1  0.42675154  0.49064881  0.96800385  1.0
  C  C84  1  0.51221029  0.35546314  0.12084075  1.0
  C  C85  1  0.28199296  0.89306947  0.53699400  1.0
  C  C86  1  0.21554349  0.94238992  0.58495023  1.0
  C  C87  1  0.56144380  0.11076586  0.32195266  1.0
  C  C88  1  0.62377978  0.06125879  0.27061945  1.0
  C  C89  1  0.72616149  0.89326220  0.45883344  1.0
  C  C90  1  0.78976812  0.94371699  0.40907275  1.0
  C  C91  1  0.43565117  0.11438257  0.67968911  1.0
  C  C92  1  0.37149432  0.06538826  0.73024278  1.0
  C  C93  1  0.35596202  0.71551044  0.65683293  1.0
  C  C94  1  0.43423869  0.83967998  0.54202018  1.0
  C  C95  1  0.28014446  0.65638334  0.67633836  1.0
  C  C96  1  0.70403430  0.28544615  0.39198668  1.0
  C  C97  1  0.73571940  0.33943783  0.32764902  1.0
  C  C98  1  0.65001177  0.71845759  0.34406462  1.0
  C  C99  1  0.72559550  0.66016191  0.32186182  1.0
  C  C100  1  0.29282616  0.28609348  0.59100988  1.0
  C  C101  1  0.24836817  0.33608469  0.65301481  1.0
  C  C102  1  0.55685996  0.16369452  0.44664845  1.0
  C  C103  1  0.57283829  0.84137648  0.45930552  1.0
  C  C104  1  0.44587451  0.16424040  0.55355347  1.0
  C  C105  1  0.43897903  0.75657064  0.54163204  1.0
  N  N106  1  0.50647095  0.71807080  0.50192131  1.0
  N  N107  1  0.50143596  0.28664968  0.49939116  1.0
  O  O108  1  0.51655392  0.57951986  0.61746473  1.0
  O  O109  1  0.32656548  0.35475466  0.92806521  1.0
  O  O110  1  0.52443919  0.63592471  0.97104782  1.0
  O  O111  1  0.51316581  0.34008168  0.05275382  1.0
  O  O112  1  0.36500989  0.87864595  0.58151022  1.0
  O  O113  1  0.60947819  0.12367728  0.39338000  1.0
  O  O114  1  0.63937795  0.88235933  0.41846868  1.0
  O  O115  1  0.39142968  0.12472326  0.60614047  1.0
  O  O116  1  0.37345020  0.71013992  0.57463869  1.0
  O  O117  1  0.60237004  0.29209001  0.39730714  1.0
  O  O118  1  0.63808570  0.71346791  0.42705484  1.0
  O  O119  1  0.52933290  0.45399269  0.38846727  1.0
  O  O120  1  0.39424575  0.29168733  0.59870046  1.0
  O  O121  1  0.49208819  0.58484835  0.38559998  1.0
  O  O122  1  0.48606747  0.44753571  0.60826670  1.0
  O  O123  1  0.37049345  0.55438364  0.50940532  1.0
  O  O124  1  0.64854959  0.42031560  0.51531176  1.0
  O  O125  1  0.64667911  0.55436628  0.49463062  1.0
  O  O126  1  0.36731641  0.42329207  0.47724702  1.0
  O  O127  1  0.30989268  0.62140186  0.06361345  1.0
