# generated using pymatgen
data_CdH4(C3N2)2
_symmetry_space_group_name_H-M   'P 1'
_cell_length_a   9.93341246
_cell_length_b   9.93469647
_cell_length_c   21.68967872
_cell_angle_alpha   90.00037810
_cell_angle_beta   89.99977355
_cell_angle_gamma   119.99592911
_symmetry_Int_Tables_number   1
_chemical_formula_structural   CdH4(C3N2)2
_chemical_formula_sum   'Cd6 H24 C36 N24'
_cell_volume   1853.76482120
_cell_formula_units_Z   6
loop_
 _symmetry_equiv_pos_site_id
 _symmetry_equiv_pos_as_xyz
  1  'x, y, z'
loop_
 _atom_site_type_symbol
 _atom_site_label
 _atom_site_symmetry_multiplicity
 _atom_site_fract_x
 _atom_site_fract_y
 _atom_site_fract_z
 _atom_site_occupancy
  Cd  Cd0  1  0.09205869  0.18412837  0.25000001  1.0
  Cd  Cd1  1  0.81601369  0.90796353  0.58332996  1.0
  Cd  Cd2  1  0.09195126  0.90795615  0.91666889  1.0
  Cd  Cd3  1  0.90794537  0.81587679  0.75000131  1.0
  Cd  Cd4  1  0.18399040  0.09204287  0.08333033  1.0
  Cd  Cd5  1  0.90804801  0.09204428  0.41666747  1.0
  H  H6  1  0.76198671  0.10163671  0.18206018  1.0
  H  H7  1  0.59198927  0.09739309  0.36626914  1.0
  H  H8  1  0.89810135  0.66007086  0.51539687  1.0
  H  H9  1  0.90263260  0.49461536  0.69962156  1.0
  H  H10  1  0.33969217  0.23792829  0.84870181  1.0
  H  H11  1  0.50519947  0.40796959  0.03291575  1.0
  H  H12  1  0.23801616  0.89836289  0.68206223  1.0
  H  H13  1  0.40800323  0.90258690  0.86627089  1.0
  H  H14  1  0.10190097  0.33992883  0.01539741  1.0
  H  H15  1  0.09736063  0.50539144  0.19962077  1.0
  H  H16  1  0.66029987  0.76206658  0.34870169  1.0
  H  H17  1  0.49480774  0.59203615  0.53291824  1.0
  H  H18  1  0.10176940  0.76207224  0.15129863  1.0
  H  H19  1  0.09721857  0.59202430  0.96708271  1.0
  H  H20  1  0.66036564  0.89836235  0.81793891  1.0
  H  H21  1  0.49459396  0.90258320  0.63373302  1.0
  H  H22  1  0.23802770  0.33993342  0.48460387  1.0
  H  H23  1  0.40802306  0.50539392  0.30037947  1.0
  H  H24  1  0.89823341  0.23793276  0.65129681  1.0
  H  H25  1  0.90278654  0.40798262  0.46708272  1.0
  H  H26  1  0.33964117  0.10164140  0.31793810  1.0
  H  H27  1  0.50539408  0.09739599  0.13373051  1.0
  H  H28  1  0.76197877  0.66006444  0.98460357  1.0
  H  H29  1  0.59197588  0.49461192  0.80037807  1.0
  C  C30  1  0.61609622  0.09711118  0.26276044  1.0
  C  C31  1  0.74035302  0.09855937  0.23127070  1.0
  C  C32  1  0.65507718  0.09870511  0.32513063  1.0
  C  C33  1  0.90277003  0.51884276  0.59610462  1.0
  C  C34  1  0.90128403  0.64161945  0.56460457  1.0
  C  C35  1  0.90129673  0.55632780  0.65847305  1.0
  C  C36  1  0.48097474  0.38379744  0.92940804  1.0
  C  C37  1  0.35817529  0.25957890  0.89790588  1.0
  C  C38  1  0.44347590  0.34487663  0.99177500  1.0
  C  C39  1  0.38390229  0.90287905  0.76276269  1.0
  C  C40  1  0.25964860  0.90143857  0.73127271  1.0
  C  C41  1  0.34491904  0.90128362  0.82513387  1.0
  C  C42  1  0.09723071  0.48115917  0.09610560  1.0
  C  C43  1  0.09871793  0.35838439  0.06460518  1.0
  C  C44  1  0.09869902  0.44367730  0.15847207  1.0
  C  C45  1  0.51902869  0.61620548  0.42941003  1.0
  C  C46  1  0.64181941  0.74042012  0.39790618  1.0
  C  C47  1  0.55652886  0.65512598  0.49177567  1.0
  C  C48  1  0.09717572  0.61620453  0.07059090  1.0
  C  C49  1  0.09860228  0.74042167  0.10209225  1.0
  C  C50  1  0.09859122  0.65511714  0.00822489  1.0
  C  C51  1  0.51899023  0.90287566  0.73724029  1.0
  C  C52  1  0.64180448  0.90143727  0.76873119  1.0
  C  C53  1  0.55637671  0.90127957  0.67486958  1.0
  C  C54  1  0.38392994  0.48116415  0.40389551  1.0
  C  C55  1  0.25966346  0.35838721  0.43539521  1.0
  C  C56  1  0.34497213  0.44368135  0.34152804  1.0
  C  C57  1  0.90282638  0.38380171  0.57059136  1.0
  C  C58  1  0.90140019  0.25958383  0.60209095  1.0
  C  C59  1  0.90141201  0.34488827  0.50822339  1.0
  C  C60  1  0.48100456  0.09711073  0.23723967  1.0
  C  C61  1  0.35819723  0.09856349  0.26872896  1.0
  C  C62  1  0.44361979  0.09870716  0.17486811  1.0
  C  C63  1  0.61606893  0.51883727  0.90389644  1.0
  C  C64  1  0.74033981  0.64161348  0.93539537  1.0
  C  C65  1  0.65502658  0.55632271  0.84152809  1.0
  N  N66  1  0.84420331  0.10021025  0.27201948  1.0
  N  N67  1  0.79173021  0.10151806  0.33004482  1.0
  N  N68  1  0.89971884  0.74386678  0.60534162  1.0
  N  N69  1  0.89848667  0.69015184  0.66337144  1.0
  N  N70  1  0.25589597  0.15579193  0.93864962  1.0
  N  N71  1  0.30960892  0.20827229  0.99667633  1.0
  N  N72  1  0.15579824  0.89978824  0.77202076  1.0
  N  N73  1  0.20826717  0.89847308  0.83004646  1.0
  N  N74  1  0.10028088  0.25613528  0.10534329  1.0
  N  N75  1  0.10150748  0.30985216  0.16337235  1.0
  N  N76  1  0.74410629  0.84420880  0.43864959  1.0
  N  N77  1  0.69039757  0.79173386  0.49667716  1.0
  N  N78  1  0.10010127  0.84420610  0.06134999  1.0
  N  N79  1  0.10133281  0.79172700  0.00332323  1.0
  N  N80  1  0.74400588  0.89978567  0.72797992  1.0
  N  N81  1  0.69021869  0.89846834  0.66995467  1.0
  N  N82  1  0.15585101  0.25614198  0.39465827  1.0
  N  N83  1  0.20833694  0.30985587  0.33662840  1.0
  N  N84  1  0.89989926  0.15579885  0.56134837  1.0
  N  N85  1  0.89867042  0.20827833  0.50332131  1.0
  N  N86  1  0.25599590  0.10021455  0.22797926  1.0
  N  N87  1  0.30977854  0.10152179  0.16995391  1.0
  N  N88  1  0.84415465  0.74386280  0.89465716  1.0
  N  N89  1  0.79166337  0.69014930  0.83662768  1.0
