# generated using pymatgen
data_AgH8C13N2(OF)3
_symmetry_space_group_name_H-M   'P 1'
_cell_length_a   8.27137861
_cell_length_b   19.99210839
_cell_length_c   19.99625317
_cell_angle_alpha   118.13603546
_cell_angle_beta   97.91469674
_cell_angle_gamma   97.90343346
_symmetry_Int_Tables_number   1
_chemical_formula_structural   AgH8C13N2(OF)3
_chemical_formula_sum   'Ag6 H48 C78 N12 O18 F18'
_cell_volume   2809.46385188
_cell_formula_units_Z   6
loop_
 _symmetry_equiv_pos_site_id
 _symmetry_equiv_pos_as_xyz
  1  'x, y, z'
loop_
 _atom_site_type_symbol
 _atom_site_label
 _atom_site_symmetry_multiplicity
 _atom_site_fract_x
 _atom_site_fract_y
 _atom_site_fract_z
 _atom_site_occupancy
  Ag  Ag0  1  0.32440487  0.97602396  0.51099857  1.0
  Ag  Ag1  1  0.34827394  0.53480394  0.02395345  1.0
  Ag  Ag2  1  0.81370513  0.48901353  0.46503585  1.0
  Ag  Ag3  1  0.67559325  0.02397627  0.48899984  1.0
  Ag  Ag4  1  0.65172877  0.46519484  0.97604583  1.0
  Ag  Ag5  1  0.18628724  0.51098706  0.53496291  1.0
  H  H6  1  0.05653152  0.00704659  0.41771085  1.0
  H  H7  1  0.04986943  0.41047012  0.99302153  1.0
  H  H8  1  0.63958750  0.58255066  0.58936972  1.0
  H  H9  1  0.94346021  0.99295458  0.58228849  1.0
  H  H10  1  0.95013408  0.58952673  0.00697640  1.0
  H  H11  1  0.36040616  0.41744762  0.41062907  1.0
  H  H12  1  0.92077716  0.11582880  0.42906838  1.0
  H  H13  1  0.80524841  0.31310626  0.88442925  1.0
  H  H14  1  0.49172820  0.57128358  0.68659739  1.0
  H  H15  1  0.07920932  0.88417205  0.57093297  1.0
  H  H16  1  0.19475869  0.68689018  0.11556653  1.0
  H  H17  1  0.50826927  0.42871576  0.31340304  1.0
  H  H18  1  0.01434876  0.24587341  0.55439914  1.0
  H  H19  1  0.76827799  0.30856581  0.75443153  1.0
  H  H20  1  0.45949900  0.44590506  0.69128523  1.0
  H  H21  1  0.98564614  0.75412823  0.44560359  1.0
  H  H22  1  0.23172487  0.69143277  0.24556581  1.0
  H  H23  1  0.54050357  0.55409450  0.30871542  1.0
  H  H24  1  0.36158530  0.14512869  0.63941910  1.0
  H  H25  1  0.21602891  0.49426767  0.85488962  1.0
  H  H26  1  0.72231231  0.36061996  0.50573696  1.0
  H  H27  1  0.63842087  0.85487221  0.36057764  1.0
  H  H28  1  0.78397251  0.50573225  0.14511080  1.0
  H  H29  1  0.27768315  0.63937797  0.49426089  1.0
  H  H30  1  0.12521893  0.17968445  0.72958078  1.0
  H  H31  1  0.94496080  0.55007355  0.82048351  1.0
  H  H32  1  0.39491827  0.27056577  0.45008624  1.0
  H  H33  1  0.87478415  0.82031503  0.27042095  1.0
  H  H34  1  0.05503868  0.44992896  0.17951775  1.0
  H  H35  1  0.60507525  0.72943358  0.54991362  1.0
  H  H36  1  0.21948298  0.20008085  0.86405031  1.0
  H  H37  1  0.01918354  0.66416037  0.80012019  1.0
  H  H38  1  0.35489283  0.13609164  0.33601579  1.0
  H  H39  1  0.78051816  0.79992063  0.13595284  1.0
  H  H40  1  0.98081875  0.33584308  0.19988085  1.0
  H  H41  1  0.64509774  0.86390784  0.66398537  1.0
  H  H42  1  0.44403996  0.31758425  0.96170901  1.0
  H  H43  1  0.12657478  0.64429884  0.68265635  1.0
  H  H44  1  0.48225336  0.03842607  0.35573768  1.0
  H  H45  1  0.55596247  0.68241697  0.03829213  1.0
  H  H46  1  0.87343045  0.35570273  0.31734515  1.0
  H  H47  1  0.51774118  0.96157516  0.64426231  1.0
  H  H48  1  0.48768021  0.39296789  0.80268794  1.0
  H  H49  1  0.09457379  0.40983317  0.60722704  1.0
  H  H50  1  0.68478005  0.19739777  0.59012329  1.0
  H  H51  1  0.51232072  0.60703154  0.19731199  1.0
  H  H52  1  0.90542965  0.59016963  0.39277452  1.0
  H  H53  1  0.31522316  0.80260180  0.40987620  1.0
  C  C54  1  0.09111799  0.06426166  0.47046501  1.0
  C  C55  1  0.02705644  0.40603636  0.93582708  1.0
  C  C56  1  0.62114539  0.52978210  0.59380799  1.0
  C  C57  1  0.90887618  0.93573829  0.52953311  1.0
  C  C58  1  0.97294757  0.59396157  0.06417078  1.0
  C  C59  1  0.37885094  0.47021790  0.40619193  1.0
  C  C60  1  0.01650988  0.12492055  0.47751212  1.0
  C  C61  1  0.89169746  0.35248064  0.87527625  1.0
  C  C62  1  0.53902486  0.52276842  0.64728503  1.0
  C  C63  1  0.98348364  0.87507967  0.52248686  1.0
  C  C64  1  0.10830899  0.64751637  0.12472010  1.0
  C  C65  1  0.46097211  0.47723101  0.35271433  1.0
  C  C66  1  0.06827662  0.19651401  0.54610594  1.0
  C  C67  1  0.87157790  0.34958511  0.80372476  1.0
  C  C68  1  0.52192814  0.45415151  0.65027225  1.0
  C  C69  1  0.93172646  0.80348722  0.45389404  1.0
  C  C70  1  0.12842626  0.65041234  0.19627145  1.0
  C  C71  1  0.47807279  0.54584792  0.34972768  1.0
  C  C72  1  0.19082010  0.20463316  0.60696496  1.0
  C  C73  1  0.98586547  0.40233899  0.79552933  1.0
  C  C74  1  0.58381630  0.39323371  0.59764582  1.0
  C  C75  1  0.80918083  0.79536685  0.39303439  1.0
  C  C76  1  0.01413840  0.59766059  0.20446901  1.0
  C  C77  1  0.41618183  0.60676507  0.40235405  1.0
  C  C78  1  0.26029637  0.14114271  0.59556659  1.0
  C  C79  1  0.11889360  0.45435465  0.85891996  1.0
  C  C80  1  0.66499043  0.40457255  0.54562305  1.0
  C  C81  1  0.73970519  0.85885730  0.40443160  1.0
  C  C82  1  0.88110783  0.54564586  0.14107989  1.0
  C  C83  1  0.33500374  0.59542652  0.45437594  1.0
  C  C84  1  0.24985138  0.28152717  0.68007229  1.0
  C  C85  1  0.96802038  0.39867661  0.71869969  1.0
  C  C86  1  0.56955665  0.32009954  0.60140576  1.0
  C  C87  1  0.75014659  0.71847238  0.31992893  1.0
  C  C88  1  0.03198371  0.60132620  0.28130071  1.0
  C  C89  1  0.43044312  0.67989995  0.39859423  1.0
  C  C90  1  0.30333481  0.28445514  0.75575596  1.0
  C  C91  1  0.01854755  0.47141973  0.71574156  1.0
  C  C92  1  0.54715194  0.24438725  0.52865377  1.0
  C  C93  1  0.69666726  0.71554363  0.24424448  1.0
  C  C94  1  0.98145489  0.52858207  0.28425899  1.0
  C  C95  1  0.45284503  0.75561189  0.47134587  1.0
  C  C96  1  0.22714734  0.22902682  0.77272681  1.0
  C  C97  1  0.99768395  0.54383435  0.77114229  1.0
  C  C98  1  0.45381689  0.22741418  0.45629487  1.0
  C  C99  1  0.77285639  0.77097209  0.22727435  1.0
  C  C100  1  0.00231999  0.45616924  0.22885947  1.0
  C  C101  1  0.54617663  0.77258517  0.54370499  1.0
  C  C102  1  0.27761713  0.24074706  0.84769045  1.0
  C  C103  1  0.03665592  0.60710578  0.75944752  1.0
  C  C104  1  0.42944541  0.15243978  0.39301847  1.0
  C  C105  1  0.72238646  0.75925321  0.15231150  1.0
  C  C106  1  0.96334866  0.39289753  0.24055338  1.0
  C  C107  1  0.57054467  0.84755862  0.60698277  1.0
  C  C108  1  0.40184244  0.30597292  0.90243602  1.0
  C  C109  1  0.09586436  0.59662350  0.69424425  1.0
  C  C110  1  0.49919460  0.09768658  0.40342932  1.0
  C  C111  1  0.59815999  0.69402801  0.09756542  1.0
  C  C112  1  0.90414202  0.40337858  0.30575659  1.0
  C  C113  1  0.50079957  0.90231191  0.59657026  1.0
  C  C114  1  0.42700286  0.34886849  0.81422276  1.0
  C  C115  1  0.07795014  0.46548730  0.65133862  1.0
  C  C116  1  0.61245357  0.18586981  0.53451370  1.0
  C  C117  1  0.57299856  0.65113085  0.18577825  1.0
  C  C118  1  0.92205330  0.53451579  0.34866264  1.0
  C  C119  1  0.38754851  0.81413013  0.46548557  1.0
  C  C120  1  0.25941153  0.89312785  0.32779171  1.0
  C  C121  1  0.36628211  0.43454306  0.10709874  1.0
  C  C122  1  0.93173475  0.67238540  0.56547301  1.0
  C  C123  1  0.74059306  0.10687517  0.67220949  1.0
  C  C124  1  0.63372233  0.56546015  0.89290439  1.0
  C  C125  1  0.06825690  0.32761117  0.43452348  1.0
  C  C126  1  0.26849856  0.86689584  0.24140503  1.0
  C  C127  1  0.40214447  0.37448969  0.13339240  1.0
  C  C128  1  0.02715342  0.75879102  0.62556286  1.0
  C  C129  1  0.73150976  0.13310219  0.75859642  1.0
  C  C130  1  0.59785474  0.62551351  0.86661247  1.0
  C  C131  1  0.97283594  0.24120541  0.37443408  1.0
  N  N132  1  0.21245684  0.07252650  0.52813648  1.0
  N  N133  1  0.13992400  0.45547649  0.92750750  1.0
  N  N134  1  0.68481063  0.47202089  0.54445378  1.0
  N  N135  1  0.78753913  0.92747398  0.47185984  1.0
  N  N136  1  0.86007936  0.54452172  0.07249122  1.0
  N  N137  1  0.31518584  0.52797804  0.45554508  1.0
  N  N138  1  0.47583969  0.35928082  0.88589162  1.0
  N  N139  1  0.11648766  0.52674459  0.64092001  1.0
  N  N140  1  0.58974999  0.11419666  0.47324847  1.0
  N  N141  1  0.52416390  0.64071975  0.11411004  1.0
  N  N142  1  0.88351578  0.47325821  0.35908154  1.0
  N  N143  1  0.41025043  0.88580314  0.52675009  1.0
  O  O144  1  0.25116268  0.34251632  0.67831822  1.0
  O  O145  1  0.90845788  0.33593175  0.65771810  1.0
  O  O146  1  0.57283541  0.32189893  0.66416827  1.0
  O  O147  1  0.74883825  0.65748194  0.32168288  1.0
  O  O148  1  0.09154174  0.66407056  0.34228122  1.0
  O  O149  1  0.42716336  0.67809986  0.33583044  1.0
  O  O150  1  0.40118939  0.91013096  0.37211450  1.0
  O  O151  1  0.49073326  0.46187318  0.08991330  1.0
  O  O152  1  0.02916312  0.62805161  0.53802023  1.0
  O  O153  1  0.59881693  0.08987766  0.62788937  1.0
  O  O154  1  0.50927097  0.53812681  0.91008777  1.0
  O  O155  1  0.97083170  0.37194835  0.46197674  1.0
  O  O156  1  0.11780294  0.89595435  0.34307576  1.0
  O  O157  1  0.22176976  0.44691481  0.10435222  1.0
  O  O158  1  0.77490073  0.65710281  0.55319513  1.0
  O  O159  1  0.88219963  0.10404579  0.65692430  1.0
  O  O160  1  0.77823749  0.55308993  0.89565011  1.0
  O  O161  1  0.22509257  0.34289448  0.44680150  1.0
  F  F162  1  0.11676039  0.83170362  0.18953221  1.0
  F  F163  1  0.28600441  0.35777749  0.16877503  1.0
  F  F164  1  0.92727067  0.81074447  0.64224190  1.0
  F  F165  1  0.88325181  0.16828895  0.81046786  1.0
  F  F166  1  0.71399264  0.64222624  0.83122746  1.0
  F  F167  1  0.07271832  0.18925155  0.35775229  1.0
  F  F168  1  0.33407605  0.93000482  0.23489676  1.0
  F  F169  1  0.40467921  0.30486535  0.07026956  1.0
  F  F170  1  0.09932814  0.76532981  0.69515925  1.0
  F  F171  1  0.66592250  0.06999045  0.76510018  1.0
  F  F172  1  0.59532740  0.69513821  0.92973509  1.0
  F  F173  1  0.90066302  0.23466656  0.30483646  1.0
  F  F174  1  0.37045266  0.81582856  0.21559565  1.0
  F  F175  1  0.55527647  0.39985949  0.18432203  1.0
  F  F176  1  0.15481380  0.78453727  0.60024409  1.0
  F  F177  1  0.62956745  0.18417366  0.78441290  1.0
  F  F178  1  0.44472209  0.60014311  0.81568457  1.0
  F  F179  1  0.84517886  0.21546147  0.39975224  1.0
