# generated using pymatgen
data_MgH9(C5O)3
_symmetry_space_group_name_H-M   'P 1'
_cell_length_a   6.89197646
_cell_length_b   42.42567441
_cell_length_c   42.42615869
_cell_angle_alpha   119.71040058
_cell_angle_beta   93.10116507
_cell_angle_gamma   93.10636507
_symmetry_Int_Tables_number   1
_chemical_formula_structural   MgH9(C5O)3
_chemical_formula_sum   'Mg6 H54 C90 O18'
_cell_volume   10711.68590592
_cell_formula_units_Z   6
loop_
 _symmetry_equiv_pos_site_id
 _symmetry_equiv_pos_as_xyz
  1  'x, y, z'
loop_
 _atom_site_type_symbol
 _atom_site_label
 _atom_site_symmetry_multiplicity
 _atom_site_fract_x
 _atom_site_fract_y
 _atom_site_fract_z
 _atom_site_occupancy
  Mg  Mg0  1  0.88637984  0.69002652  0.33085076  1.0
  Mg  Mg1  1  0.36097766  0.31094040  0.67075812  1.0
  Mg  Mg2  1  0.19632394  0.64083255  0.30998500  1.0
  Mg  Mg3  1  0.05002058  0.35981687  0.68906445  1.0
  Mg  Mg4  1  0.55553934  0.66915023  0.35916877  1.0
  Mg  Mg5  1  0.69020535  0.32924714  0.64018253  1.0
  H  H6  1  0.43081561  0.59501845  0.20743060  1.0
  H  H7  1  0.41597179  0.57022592  0.14458179  1.0
  H  H8  1  0.24866673  0.56023034  0.09672178  1.0
  H  H9  1  0.05822851  0.52982854  0.03735095  1.0
  H  H10  1  0.96705884  0.52679689  0.98658357  1.0
  H  H11  1  0.77083254  0.49611596  0.92768626  1.0
  H  H12  1  0.57354100  0.45491647  0.87893677  1.0
  H  H13  1  0.81733476  0.41042357  0.79172182  1.0
  H  H14  1  0.97271857  0.59380574  0.16077930  1.0
  H  H15  1  0.14285816  0.62857691  0.22278577  1.0
  H  H16  1  0.80092487  0.55878387  0.10836404  1.0
  H  H17  1  0.17253097  0.41315660  0.88529966  1.0
  H  H18  1  0.36934313  0.44383834  0.94447241  1.0
  H  H19  1  0.92205937  0.41189380  0.84433982  1.0
  H  H20  1  0.10100588  0.38122250  0.77741642  1.0
  H  H21  1  0.27243667  0.42084951  0.83934290  1.0
  H  H22  1  0.57766898  0.48818796  0.98443102  1.0
  H  H23  1  0.76742239  0.51755790  0.04422462  1.0
  H  H24  1  0.83582200  0.61238119  0.40498002  1.0
  H  H25  1  0.84567940  0.57436606  0.42975470  1.0
  H  H26  1  0.68837912  0.53650029  0.43978640  1.0
  H  H27  1  0.52832394  0.50753131  0.47019090  1.0
  H  H28  1  0.44017269  0.45978732  0.47320397  1.0
  H  H29  1  0.27451071  0.43156356  0.50387260  1.0
  H  H30  1  0.11831849  0.42402401  0.54509210  1.0
  H  H31  1  0.40678510  0.38129384  0.58956585  1.0
  H  H32  1  0.37910724  0.56699383  0.40621600  1.0
  H  H33  1  0.51438383  0.59423818  0.37142964  1.0
  H  H34  1  0.24202160  0.54961906  0.44125121  1.0
  H  H35  1  0.75911423  0.47213501  0.58684225  1.0
  H  H36  1  0.92532826  0.50062862  0.55617293  1.0
  H  H37  1  0.50987768  0.43245619  0.58810619  1.0
  H  H38  1  0.71966674  0.39619267  0.61879038  1.0
  H  H39  1  0.85148329  0.41849418  0.57915976  1.0
  H  H40  1  0.08947733  0.49623499  0.51179676  1.0
  H  H41  1  0.24981234  0.52669085  0.48244676  1.0
  H  H42  1  0.22337247  0.79259280  0.38759305  1.0
  H  H43  1  0.27122907  0.85541388  0.42563984  1.0
  H  H44  1  0.15185221  0.90329552  0.46351171  1.0
  H  H45  1  0.02084635  0.96267289  0.49246155  1.0
  H  H46  1  0.98045851  0.01342332  0.54021275  1.0
  H  H47  1  0.84309424  0.07231850  0.56843089  1.0
  H  H48  1  0.69446703  0.12106220  0.57595836  1.0
  H  H49  1  0.02560939  0.20827006  0.61869327  1.0
  H  H50  1  0.81192340  0.83924627  0.43304668  1.0
  H  H51  1  0.92000900  0.77723227  0.40579442  1.0
  H  H52  1  0.69240904  0.89163051  0.45039518  1.0
  H  H53  1  0.28711526  0.11470672  0.52784855  1.0
  H  H54  1  0.42479676  0.05553624  0.49935275  1.0
  H  H55  1  0.07761591  0.15566324  0.56754797  1.0
  H  H56  1  0.32364699  0.22259448  0.60379760  1.0
  H  H57  1  0.43309591  0.16066744  0.58150143  1.0
  H  H58  1  0.59334222  0.01556562  0.50375578  1.0
  H  H59  1  0.72316347  0.95575362  0.47331219  1.0
  C  C60  1  0.88660886  0.63274468  0.25060775  1.0
  C  C61  1  0.58747579  0.60237299  0.21015886  1.0
  C  C62  1  0.68544789  0.59173730  0.17890956  1.0
  C  C63  1  0.57399571  0.57266079  0.14339561  1.0
  C  C64  1  0.64303935  0.55819759  0.11020455  1.0
  C  C65  1  0.52414907  0.54092605  0.07539523  1.0
  C  C66  1  0.32208073  0.54401479  0.07229692  1.0
  C  C67  1  0.21436430  0.52707744  0.03859327  1.0
  C  C68  1  0.30118474  0.50613140  0.00600318  1.0
  C  C69  1  0.18406619  0.48779727  0.97044339  1.0
  C  C70  1  0.01158762  0.50145615  0.96467532  1.0
  C  C71  1  0.90034191  0.48409653  0.93125325  1.0
  C  C72  1  0.95550376  0.45193380  0.90169289  1.0
  C  C73  1  0.23945385  0.45575774  0.94092604  1.0
  C  C74  1  0.66039012  0.43678067  0.85737738  1.0
  C  C75  1  0.66091118  0.40327809  0.78944810  1.0
  C  C76  1  0.56690176  0.38146253  0.75419061  1.0
  C  C77  1  0.68637784  0.37053004  0.72319680  1.0
  C  C78  1  0.50322222  0.50337001  0.00896128  1.0
  C  C79  1  0.61120764  0.52038041  0.04276432  1.0
  C  C80  1  0.88950678  0.60135155  0.18429568  1.0
  C  C81  1  0.98613942  0.62095110  0.21886880  1.0
  C  C82  1  0.68114046  0.62241929  0.24567561  1.0
  C  C83  1  0.12803929  0.43837336  0.90749015  1.0
  C  C84  1  0.84564347  0.43266403  0.86603047  1.0
  C  C85  1  0.56080826  0.41666894  0.82071733  1.0
  C  C86  1  0.36034026  0.37190933  0.74960139  1.0
  C  C87  1  0.25887848  0.38745514  0.78116534  1.0
  C  C88  1  0.35549402  0.40940481  0.81550483  1.0
  C  C89  1  0.56118238  0.63166481  0.27632975  1.0
  C  C90  1  0.25386274  0.61786792  0.36726380  1.0
  C  C91  1  0.98513750  0.60776948  0.39761989  1.0
  C  C92  1  0.09377725  0.58717031  0.40826345  1.0
  C  C93  1  0.00127478  0.57074223  0.42734019  1.0
  C  C94  1  0.08474321  0.55203707  0.44183181  1.0
  C  C95  1  0.98313680  0.53450091  0.45910435  1.0
  C  C96  1  0.77798520  0.52830173  0.45601018  1.0
  C  C97  1  0.68720624  0.51152612  0.47294052  1.0
  C  C98  1  0.79498437  0.49987820  0.49388162  1.0
  C  C99  1  0.69613464  0.48265910  0.51221796  1.0
  C  C100  1  0.50997781  0.46323388  0.49855591  1.0
  C  C101  1  0.41599782  0.44717350  0.51591201  1.0
  C  C102  1  0.50327435  0.44978630  0.54808198  1.0
  C  C103  1  0.78348175  0.48517759  0.54425837  1.0
  C  C104  1  0.22334033  0.42059905  0.56321916  1.0
  C  C105  1  0.25745630  0.38613723  0.59669419  1.0
  C  C106  1  0.18527095  0.37269168  0.61850743  1.0
  C  C107  1  0.31574270  0.35265562  0.62946414  1.0
  C  C108  1  0.99978869  0.50559492  0.49663321  1.0
  C  C109  1  0.09076200  0.52240657  0.47963563  1.0
  C  C110  1  0.28826323  0.58295908  0.39866833  1.0
  C  C111  1  0.36526929  0.59794195  0.37906917  1.0
  C  C112  1  0.05872782  0.62324576  0.37758176  1.0
  C  C113  1  0.68938242  0.46913138  0.56164000  1.0
  C  C114  1  0.41268517  0.43338657  0.56734659  1.0
  C  C115  1  0.14392546  0.40402299  0.58331640  1.0
  C  C116  1  0.98828861  0.37767069  0.62807625  1.0
  C  C117  1  0.87127663  0.39369640  0.61254483  1.0
  C  C118  1  0.94591325  0.40608438  0.59059295  1.0
  C  C119  1  0.92948808  0.64466072  0.36834277  1.0
  C  C120  1  0.63597211  0.74941300  0.38213459  1.0
  C  C121  1  0.37729314  0.78985260  0.39222036  1.0
  C  C122  1  0.50647358  0.82110495  0.41284480  1.0
  C  C123  1  0.43045232  0.85661155  0.42927083  1.0
  C  C124  1  0.53269375  0.88979911  0.44798140  1.0
  C  C125  1  0.44865814  0.92460874  0.46551552  1.0
  C  C126  1  0.24968904  0.92771222  0.47170434  1.0
  C  C127  1  0.17572872  0.96141930  0.48846440  1.0
  C  C128  1  0.29517494  0.99400749  0.50010838  1.0
  C  C129  1  0.21354489  0.02956138  0.51733328  1.0
  C  C130  1  0.04685239  0.03532497  0.53676476  1.0
  C  C131  1  0.96899803  0.06874525  0.55283111  1.0
  C  C132  1  0.05370154  0.09830213  0.55021987  1.0
  C  C133  1  0.29840896  0.05908006  0.51481018  1.0
  C  C134  1  0.80290186  0.14262016  0.57938242  1.0
  C  C135  1  0.87146876  0.21055092  0.61382513  1.0
  C  C136  1  0.81272798  0.24580814  0.62727656  1.0
  C  C137  1  0.96323365  0.27680348  0.64733812  1.0
  C  C138  1  0.49427624  0.99104384  0.49439709  1.0
  C  C139  1  0.56840127  0.95723318  0.47759916  1.0
  C  C140  1  0.70516084  0.81572632  0.41707706  1.0
  C  C141  1  0.76721186  0.78115026  0.40209117  1.0
  C  C142  1  0.43545075  0.75433970  0.37674462  1.0
  C  C143  1  0.22043177  0.09251238  0.53086225  1.0
  C  C144  1  0.97950926  0.13396841  0.56661651  1.0
  C  C145  1  0.74005252  0.17928495  0.59593953  1.0
  C  C146  1  0.61076635  0.25040366  0.62230964  1.0
  C  C147  1  0.47774489  0.21884713  0.60628471  1.0
  C  C148  1  0.53998731  0.18450521  0.59388908  1.0
  C  C149  1  0.28485706  0.72367826  0.35533620  1.0
  O  O150  1  0.98862427  0.65299678  0.28324057  1.0
  O  O151  1  0.86457540  0.38285526  0.72796197  1.0
  O  O152  1  0.60498579  0.34788697  0.69081989  1.0
  O  O153  1  0.38246965  0.61943036  0.27093941  1.0
  O  O154  1  0.64249470  0.65293194  0.30907080  1.0
  O  O155  1  0.25908599  0.34967618  0.71728558  1.0
  O  O156  1  0.33557844  0.63024228  0.34700256  1.0
  O  O157  1  0.48162649  0.34509688  0.61714412  1.0
  O  O158  1  0.25706313  0.34295034  0.65213364  1.0
  O  O159  1  0.76303289  0.65151295  0.38058904  1.0
  O  O160  1  0.98948528  0.65613555  0.34707122  1.0
  O  O161  1  0.90932568  0.36760858  0.65032840  1.0
  O  O162  1  0.70534613  0.71677850  0.36974000  1.0
  O  O163  1  0.13664262  0.27203679  0.65490759  1.0
  O  O164  1  0.91423460  0.30917607  0.65704997  1.0
  O  O165  1  0.11154762  0.72906483  0.34848276  1.0
  O  O166  1  0.33339535  0.69093769  0.34388157  1.0
  O  O167  1  0.54186508  0.28272607  0.63239986  1.0
