# generated using pymatgen
data_ZnH4C13N3O8
_symmetry_space_group_name_H-M   'P 1'
_cell_length_a   9.99096877
_cell_length_b   10.92929083
_cell_length_c   11.75634236
_cell_angle_alpha   86.65578276
_cell_angle_beta   89.87325097
_cell_angle_gamma   86.64807900
_symmetry_Int_Tables_number   1
_chemical_formula_structural   ZnH4C13N3O8
_chemical_formula_sum   'Zn2 H8 C26 N6 O16'
_cell_volume   1279.34505132
_cell_formula_units_Z   2
loop_
 _symmetry_equiv_pos_site_id
 _symmetry_equiv_pos_as_xyz
  1  'x, y, z'
loop_
 _atom_site_type_symbol
 _atom_site_label
 _atom_site_symmetry_multiplicity
 _atom_site_fract_x
 _atom_site_fract_y
 _atom_site_fract_z
 _atom_site_occupancy
  Zn  Zn0  1  0.63975064  0.49307594  0.49521665  1.0
  Zn  Zn1  1  0.35144838  0.50279325  0.49292056  1.0
  H  H2  1  0.91522287  0.85174560  0.68037257  1.0
  H  H3  1  0.31367345  0.89931437  0.40796448  1.0
  H  H4  1  0.26345908  0.32627298  0.64927591  1.0
  H  H5  1  0.90364675  0.25223100  0.83516738  1.0
  H  H6  1  0.76527639  0.37868911  0.69123297  1.0
  H  H7  1  0.77205635  0.19006752  0.50612158  1.0
  H  H8  1  0.69824016  0.76095514  0.64312087  1.0
  H  H9  1  0.12210870  0.59742629  0.34768291  1.0
  C  C10  1  0.51777399  0.26403115  0.47033837  1.0
  C  C11  1  0.48196635  0.47694643  0.71343764  1.0
  C  C12  1  0.47735529  0.73112403  0.51102604  1.0
  C  C13  1  0.49680222  0.52393652  0.27608622  1.0
  C  C14  1  0.48881001  0.48474365  0.83491627  1.0
  C  C15  1  0.49445587  0.49639014  0.93766645  1.0
  C  C16  1  0.49833783  0.50889408  0.05096578  1.0
  C  C17  1  0.49972525  0.51947557  0.15392803  1.0
  C  C18  1  0.75371459  0.09737329  0.53766286  1.0
  C  C19  1  0.85552724  0.02291527  0.58711713  1.0
  C  C20  1  0.83510330  0.90355106  0.63293195  1.0
  C  C21  1  0.71452736  0.85434099  0.61245865  1.0
  C  C22  1  0.61129311  0.92107809  0.54701572  1.0
  C  C23  1  0.62700373  0.04993070  0.51951352  1.0
  C  C24  1  0.52009198  0.12573508  0.46653252  1.0
  C  C25  1  0.41242252  0.06697451  0.42533422  1.0
  C  C26  1  0.39934640  0.94049866  0.44398452  1.0
  C  C27  1  0.49478808  0.86727228  0.50532006  1.0
  C  C28  1  0.15599833  0.34207701  0.65959435  1.0
  C  C29  1  0.09015430  0.28502098  0.74842484  1.0
  C  C30  1  0.95002073  0.29850399  0.76195700  1.0
  C  C31  1  0.87376843  0.36785520  0.68156133  1.0
  C  C32  1  0.93614591  0.42856104  0.58793347  1.0
  C  C33  1  0.08021386  0.41832522  0.57951550  1.0
  C  C34  1  0.07126651  0.54795577  0.41677757  1.0
  C  C35  1  0.93012913  0.55546597  0.42557517  1.0
  N  N36  1  0.14418238  0.48170069  0.49393787  1.0
  N  N37  1  0.86152977  0.49913527  0.50694827  1.0
  N  N38  1  0.31032541  0.13450144  0.35077097  1.0
  N  N39  1  0.86026837  0.63992763  0.33826422  1.0
  N  N40  1  0.98970729  0.07018884  0.58963512  1.0
  N  N41  1  0.17031744  0.20341116  0.83140917  1.0
  O  O42  1  0.62510478  0.31797442  0.44777818  1.0
  O  O43  1  0.40866292  0.31458186  0.50443992  1.0
  O  O44  1  0.58755073  0.43706683  0.66294623  1.0
  O  O45  1  0.37078393  0.51155365  0.66577789  1.0
  O  O46  1  0.57968530  0.66126423  0.54095580  1.0
  O  O47  1  0.36479657  0.69373583  0.48253285  1.0
  O  O48  1  0.60618009  0.54306114  0.32565018  1.0
  O  O49  1  0.38361542  0.50675927  0.32283889  1.0
  O  O50  1  0.19745076  0.09343637  0.34905757  1.0
  O  O51  1  0.34660861  0.22405702  0.29161711  1.0
  O  O52  1  0.88722244  0.61906461  0.23856370  1.0
  O  O53  1  0.78972563  0.72559594  0.37372070  1.0
  O  O54  1  0.01083369  0.16258705  0.52709941  1.0
  O  O55  1  0.07491394  0.01492393  0.65368277  1.0
  O  O56  1  0.29324477  0.19587087  0.81814852  1.0
  O  O57  1  0.10759237  0.14885077  0.90763611  1.0
