# generated using pymatgen
data_AlH9C27(OF)6
_symmetry_space_group_name_H-M   'P 1'
_cell_length_a   4.01703092
_cell_length_b   16.06572841
_cell_length_c   16.06569623
_cell_angle_alpha   119.87989833
_cell_angle_beta   90.81494787
_cell_angle_gamma   90.81281717
_symmetry_Int_Tables_number   1
_chemical_formula_structural   AlH9C27(OF)6
_chemical_formula_sum   'Al1 H9 C27 O6 F6'
_cell_volume   898.63931066
_cell_formula_units_Z   1
loop_
 _symmetry_equiv_pos_site_id
 _symmetry_equiv_pos_as_xyz
  1  'x, y, z'
loop_
 _atom_site_type_symbol
 _atom_site_label
 _atom_site_symmetry_multiplicity
 _atom_site_fract_x
 _atom_site_fract_y
 _atom_site_fract_z
 _atom_site_occupancy
  Al  Al0  1  0.99999530  0.49975406  0.50017283  1.0
  H  H1  1  0.50002427  0.92248351  0.07740356  1.0
  H  H2  1  0.47843062  0.65513545  0.07736208  1.0
  H  H3  1  0.52150658  0.92252705  0.34472642  1.0
  H  H4  1  0.76009156  0.05932216  0.16219997  1.0
  H  H5  1  0.23054309  0.05257082  0.39292087  1.0
  H  H6  1  0.24000633  0.83773357  0.94058787  1.0
  H  H7  1  0.76919005  0.60694887  0.94733923  1.0
  H  H8  1  0.75144439  0.60403561  0.16044462  1.0
  H  H9  1  0.24854479  0.83947068  0.39586630  1.0
  C  C10  1  0.51222584  0.57313767  0.64731557  1.0
  C  C11  1  0.50000479  0.57313134  0.42681663  1.0
  C  C12  1  0.48779496  0.35259680  0.42677194  1.0
  C  C13  1  0.49983590  0.78272372  0.06520761  1.0
  C  C14  1  0.49996911  0.88330263  0.11657282  1.0
  C  C15  1  0.50009703  0.93467328  0.21715027  1.0
  C  C16  1  0.50466129  0.88328273  0.26652590  1.0
  C  C17  1  0.49998394  0.78263392  0.21723529  1.0
  C  C18  1  0.49525273  0.73334126  0.11659043  1.0
  C  C19  1  0.62468497  0.19329345  0.28133856  1.0
  C  C20  1  0.63467032  0.09385138  0.23056006  1.0
  C  C21  1  0.49669862  0.04078055  0.27006388  1.0
  C  C22  1  0.35197284  0.09025842  0.36063998  1.0
  C  C23  1  0.35155412  0.18980516  0.40915387  1.0
  C  C24  1  0.48613004  0.24462546  0.37188803  1.0
  C  C25  1  0.36542251  0.76936376  0.90605019  1.0
  C  C26  1  0.37536593  0.71857320  0.80659868  1.0
  C  C27  1  0.51378427  0.62801063  0.75528238  1.0
  C  C28  1  0.64833587  0.59073227  0.81008796  1.0
  C  C29  1  0.64792314  0.63923864  0.90963485  1.0
  C  C30  1  0.50328443  0.72982735  0.95911059  1.0
  C  C31  1  0.63572587  0.63785829  0.23030613  1.0
  C  C32  1  0.63471488  0.58927409  0.28135795  1.0
  C  C33  1  0.50001227  0.62664622  0.37328267  1.0
  C  C34  1  0.36528588  0.71857264  0.41064089  1.0
  C  C35  1  0.36424833  0.76960913  0.36204586  1.0
  C  C36  1  0.49997960  0.72953768  0.27036445  1.0
  O  O37  1  0.25001978  0.39300798  0.40918898  1.0
  O  O38  1  0.27184793  0.51381015  0.60577177  1.0
  O  O39  1  0.26860687  0.59016998  0.48615461  1.0
  O  O40  1  0.72823136  0.39410889  0.48608758  1.0
  O  O41  1  0.73139811  0.51378349  0.40978262  1.0
  O  O42  1  0.75004696  0.59074283  0.60693669  1.0
  F  F43  1  0.21043431  0.23649858  0.49662581  1.0
  F  F44  1  0.75981020  0.24341014  0.24210151  1.0
  F  F45  1  0.24038264  0.75780458  0.75646223  1.0
  F  F46  1  0.78930762  0.50323517  0.76337958  1.0
  F  F47  1  0.76702789  0.50091726  0.23831843  1.0
  F  F48  1  0.23299690  0.76161490  0.49900611  1.0
