# generated using pymatgen
data_AlH12C16IO5
_symmetry_space_group_name_H-M   'P 1'
_cell_length_a   6.66810013
_cell_length_b   18.54413000
_cell_length_c   21.52930920
_cell_angle_alpha   77.98295915
_cell_angle_beta   89.99753492
_cell_angle_gamma   89.99608461
_symmetry_Int_Tables_number   1
_chemical_formula_structural   AlH12C16IO5
_chemical_formula_sum   'Al4 H48 C64 I4 O20'
_cell_volume   2603.84775791
_cell_formula_units_Z   4
loop_
 _symmetry_equiv_pos_site_id
 _symmetry_equiv_pos_as_xyz
  1  'x, y, z'
loop_
 _atom_site_type_symbol
 _atom_site_label
 _atom_site_symmetry_multiplicity
 _atom_site_fract_x
 _atom_site_fract_y
 _atom_site_fract_z
 _atom_site_occupancy
  Al  Al0  1  0.16260685  0.74962996  0.74959360  1.0
  Al  Al1  1  0.83738198  0.25038515  0.25040518  1.0
  Al  Al2  1  0.66265019  0.75043061  0.75054734  1.0
  Al  Al3  1  0.33734915  0.24958385  0.24945193  1.0
  H  H4  1  0.81941244  0.43909534  0.11533900  1.0
  H  H5  1  0.18057940  0.56091514  0.88464661  1.0
  H  H6  1  0.31954089  0.06077923  0.38461919  1.0
  H  H7  1  0.68045694  0.93922587  0.61539063  1.0
  H  H8  1  0.78526550  0.42956438  0.58401779  1.0
  H  H9  1  0.21472935  0.57041806  0.41598480  1.0
  H  H10  1  0.28512607  0.07029332  0.91596084  1.0
  H  H11  1  0.71483728  0.92968938  0.08405026  1.0
  H  H12  1  0.41552262  0.31294071  0.00083535  1.0
  H  H13  1  0.52358439  0.33850957  0.06836978  1.0
  H  H14  1  0.32124469  0.27632491  0.07780791  1.0
  H  H15  1  0.58446472  0.68705683  0.99915755  1.0
  H  H16  1  0.67878614  0.72367559  0.92219346  1.0
  H  H17  1  0.47641945  0.66150078  0.93161157  1.0
  H  H18  1  0.91508197  0.18716539  0.49909801  1.0
  H  H19  1  0.02366365  0.16146108  0.43170735  1.0
  H  H20  1  0.82122838  0.22362386  0.42203461  1.0
  H  H21  1  0.08498635  0.81282645  0.50090112  1.0
  H  H22  1  0.17877396  0.77636379  0.57797122  1.0
  H  H23  1  0.97635968  0.83853555  0.56827752  1.0
  H  H24  1  0.48811962  0.58933692  0.05042898  1.0
  H  H25  1  0.53620699  0.49422740  0.07388808  1.0
  H  H26  1  0.66960719  0.55708691  0.11006216  1.0
  H  H27  1  0.51186772  0.41065862  0.94955590  1.0
  H  H28  1  0.33035165  0.44291786  0.88992731  1.0
  H  H29  1  0.46378335  0.50577629  0.92610141  1.0
  H  H30  1  0.98829395  0.91055244  0.44958160  1.0
  H  H31  1  0.03611867  0.00567900  0.42615197  1.0
  H  H32  1  0.16969686  0.94288751  0.38994625  1.0
  H  H33  1  0.01172188  0.08944053  0.55040757  1.0
  H  H34  1  0.83034447  0.05711092  0.61005231  1.0
  H  H35  1  0.96391666  0.99431536  0.57385281  1.0
  H  H36  1  0.48956259  0.52673633  0.54068381  1.0
  H  H37  1  0.35799893  0.60860190  0.54558640  1.0
  H  H38  1  0.34137118  0.53020856  0.60882314  1.0
  H  H39  1  0.51042926  0.47325520  0.45931912  1.0
  H  H40  1  0.65861317  0.46978253  0.39117932  1.0
  H  H41  1  0.64198842  0.39138813  0.45441844  1.0
  H  H42  1  0.98956738  0.97322928  0.95930411  1.0
  H  H43  1  0.85801711  0.89135430  0.95445616  1.0
  H  H44  1  0.84129954  0.96970787  0.89119330  1.0
  H  H45  1  0.01041546  0.02675437  0.04070272  1.0
  H  H46  1  0.15864731  0.03027721  0.10881682  1.0
  H  H47  1  0.14194323  0.10863227  0.04554968  1.0
  H  H48  1  0.41479750  0.65300714  0.77369306  1.0
  H  H49  1  0.58520335  0.34698786  0.22618015  1.0
  H  H50  1  0.91475629  0.84662147  0.72396668  1.0
  H  H51  1  0.08523406  0.15337417  0.27592308  1.0
  C  C52  1  0.40940829  0.83282050  0.82347613  1.0
  C  C53  1  0.59060005  0.16715835  0.17654260  1.0
  C  C54  1  0.90953963  0.66700275  0.67671437  1.0
  C  C55  1  0.09047171  0.33299895  0.32328651  1.0
  C  C56  1  0.41395554  0.83890055  0.65030972  1.0
  C  C57  1  0.58605129  0.16110596  0.34970102  1.0
  C  C58  1  0.91397991  0.66121511  0.84977076  1.0
  C  C59  1  0.08600293  0.33879238  0.15022104  1.0
  C  C60  1  0.08298375  0.39039344  0.08701307  1.0
  C  C61  1  0.91700960  0.60960993  0.91297785  1.0
  C  C62  1  0.58301927  0.10954538  0.41293824  1.0
  C  C63  1  0.41699806  0.89044974  0.58706794  1.0
  C  C64  1  0.76764617  0.55419207  0.01434928  1.0
  C  C65  1  0.23233068  0.44581164  0.98564494  1.0
  C  C66  1  0.26771523  0.94578034  0.48566810  1.0
  C  C67  1  0.73230960  0.05421346  0.51433432  1.0
  C  C68  1  0.76667646  0.61075118  0.96027395  1.0
  C  C69  1  0.23330338  0.38924828  0.03971513  1.0
  C  C70  1  0.26673884  0.88925416  0.53976546  1.0
  C  C71  1  0.73328600  0.11073823  0.46023603  1.0
  C  C72  1  0.06915194  0.55765415  0.92202316  1.0
  C  C73  1  0.93083990  0.44234952  0.07796396  1.0
  C  C74  1  0.56909832  0.94241609  0.57800594  1.0
  C  C75  1  0.43090851  0.05758531  0.42200109  1.0
  C  C76  1  0.07785595  0.50092852  0.97691611  1.0
  C  C77  1  0.92212540  0.49907808  0.02307239  1.0
  C  C78  1  0.57785206  0.99909791  0.52308134  1.0
  C  C79  1  0.42216227  0.00090294  0.47692334  1.0
  C  C80  1  0.88080194  0.46049484  0.54646222  1.0
  C  C81  1  0.11919890  0.53949290  0.45354076  1.0
  C  C82  1  0.38072202  0.03943561  0.95352901  1.0
  C  C83  1  0.61924583  0.96054698  0.04648020  1.0
  C  C84  1  0.09980166  0.44023168  0.53081937  1.0
  C  C85  1  0.90019768  0.55975976  0.46918639  1.0
  C  C86  1  0.59970313  0.05974635  0.96912190  1.0
  C  C87  1  0.40026921  0.94025020  0.03088757  1.0
  C  C88  1  0.09198457  0.37683682  0.37129959  1.0
  C  C89  1  0.90804927  0.62314631  0.62870961  1.0
  C  C90  1  0.59208354  0.12333754  0.12852545  1.0
  C  C91  1  0.40789780  0.87661685  0.87151116  1.0
  C  C92  1  0.82851705  0.47805547  0.47387036  1.0
  C  C93  1  0.17148079  0.52194296  0.52612820  1.0
  C  C94  1  0.32847439  0.02195332  0.02612635  1.0
  C  C95  1  0.67149646  0.97803524  0.97388514  1.0
  C  C96  1  0.05024330  0.45733848  0.45714075  1.0
  C  C97  1  0.94975004  0.54265639  0.54285929  1.0
  C  C98  1  0.55018931  0.04270712  0.04280092  1.0
  C  C99  1  0.44977254  0.95727496  0.95721303  1.0
  C  C100  1  0.08708903  0.41373633  0.41190872  1.0
  C  C101  1  0.91292081  0.58625188  0.58809946  1.0
  C  C102  1  0.58708722  0.08638025  0.08796554  1.0
  C  C103  1  0.41288213  0.91360116  0.91204653  1.0
  C  C104  1  0.38090015  0.32620950  0.04699289  1.0
  C  C105  1  0.61909619  0.67379160  0.95299853  1.0
  C  C106  1  0.88078378  0.17379680  0.45295528  1.0
  C  C107  1  0.11924856  0.82619071  0.54704392  1.0
  C  C108  1  0.60764077  0.54888606  0.06461319  1.0
  C  C109  1  0.39233608  0.45111428  0.93537919  1.0
  C  C110  1  0.10772544  0.95104597  0.43541099  1.0
  C  C111  1  0.89230689  0.04894771  0.56458953  1.0
  C  C112  1  0.34995415  0.54807816  0.55690500  1.0
  C  C113  1  0.65003769  0.45191294  0.44309746  1.0
  C  C114  1  0.84995086  0.95187442  0.94311077  1.0
  C  C115  1  0.15001399  0.04811164  0.05689981  1.0
  I  I116  1  0.25803903  0.34586861  0.57920892  1.0
  I  I117  1  0.74196931  0.65412288  0.42078690  1.0
  I  I118  1  0.75785424  0.15409488  0.92069611  1.0
  I  I119  1  0.24209411  0.84588613  0.07930318  1.0
  O  O120  1  0.58300474  0.82020193  0.67651474  1.0
  O  O121  1  0.41700359  0.17981389  0.32349539  1.0
  O  O122  1  0.08298055  0.67988038  0.82353668  1.0
  O  O123  1  0.91700679  0.32012646  0.17645560  1.0
  O  O124  1  0.23982483  0.81591618  0.80369532  1.0
  O  O125  1  0.76017001  0.18408294  0.19630986  1.0
  O  O126  1  0.73989303  0.68387977  0.69651424  1.0
  O  O127  1  0.26011231  0.31613107  0.30347703  1.0
  O  O128  1  0.24379282  0.81955896  0.67531132  1.0
  O  O129  1  0.75618552  0.18044997  0.32468613  1.0
  O  O130  1  0.74384179  0.68065537  0.82480145  1.0
  O  O131  1  0.25615155  0.31936144  0.17519210  1.0
  O  O132  1  0.08195157  0.68400661  0.69480468  1.0
  O  O133  1  0.91805827  0.31601084  0.30518838  1.0
  O  O134  1  0.58181872  0.81593212  0.80529105  1.0
  O  O135  1  0.41819412  0.18405745  0.19472800  1.0
  O  O136  1  0.41297412  0.70569201  0.75723766  1.0
  O  O137  1  0.58701771  0.29432588  0.24275587  1.0
  O  O138  1  0.91298476  0.79444218  0.74267692  1.0
  O  O139  1  0.08700258  0.20558016  0.25731843  1.0
