# generated using pymatgen
data_ZnH10C19(NO2)2
_symmetry_space_group_name_H-M   'P 1'
_cell_length_a   13.13241991
_cell_length_b   13.99901243
_cell_length_c   15.40522806
_cell_angle_alpha   90.26697273
_cell_angle_beta   90.92634920
_cell_angle_gamma   97.37908967
_symmetry_Int_Tables_number   1
_chemical_formula_structural   ZnH10C19(NO2)2
_chemical_formula_sum   'Zn2 H20 C38 N4 O8'
_cell_volume   2808.22400107
_cell_formula_units_Z   2
loop_
 _symmetry_equiv_pos_site_id
 _symmetry_equiv_pos_as_xyz
  1  'x, y, z'
loop_
 _atom_site_type_symbol
 _atom_site_label
 _atom_site_symmetry_multiplicity
 _atom_site_fract_x
 _atom_site_fract_y
 _atom_site_fract_z
 _atom_site_occupancy
  Zn  Zn0  1  0.50635830  0.60253169  0.50008711  1.0
  Zn  Zn1  1  0.49891469  0.39864263  0.50188486  1.0
  H  H2  1  0.81614995  0.37379068  0.49444619  1.0
  H  H3  1  0.18853503  0.61607150  0.50542279  1.0
  H  H4  1  0.63446680  0.26463678  0.42754992  1.0
  H  H5  1  0.44831354  0.74844939  0.62353833  1.0
  H  H6  1  0.64365795  0.08755407  0.42458832  1.0
  H  H7  1  0.44752614  0.92584827  0.63021455  1.0
  H  H8  1  0.83724217  0.68198876  0.50867426  1.0
  H  H9  1  0.16725366  0.30833257  0.48489576  1.0
  H  H10  1  0.97572097  0.29457117  0.48531512  1.0
  H  H11  1  0.02889203  0.69550941  0.50913335  1.0
  H  H12  1  0.51816389  0.65523792  0.94654503  1.0
  H  H13  1  0.54829543  0.36479033  0.05823047  1.0
  H  H14  1  0.45231791  0.35347829  0.77381547  1.0
  H  H15  1  0.43034066  0.63228710  0.22561986  1.0
  H  H16  1  0.44391857  0.34634419  0.93516970  1.0
  H  H17  1  0.41620207  0.63127628  0.06420732  1.0
  H  H18  1  0.36471323  0.05045593  0.57329300  1.0
  H  H19  1  0.56510546  0.93976676  0.36895474  1.0
  H  H20  1  0.36875210  0.22997978  0.57090186  1.0
  H  H21  1  0.56206450  0.76035770  0.37448120  1.0
  C  C22  1  0.49465526  0.50581294  0.67160634  1.0
  C  C23  1  0.50046987  0.50418016  0.33039884  1.0
  C  C24  1  0.48816161  0.50637324  0.76907327  1.0
  C  C25  1  0.49403386  0.49961069  0.23298038  1.0
  C  C26  1  0.46634070  0.41900033  0.81296640  1.0
  C  C27  1  0.45551667  0.57399102  0.18771673  1.0
  C  C28  1  0.46273968  0.41549009  0.90306822  1.0
  C  C29  1  0.44882572  0.57344959  0.09761040  1.0
  C  C30  1  0.48164076  0.50030513  0.95321074  1.0
  C  C31  1  0.48254106  0.49849815  0.04907303  1.0
  C  C32  1  0.42704095  0.09525050  0.54151236  1.0
  C  C33  1  0.53927279  0.90034171  0.42706158  1.0
  C  C34  1  0.42827146  0.19448778  0.54030605  1.0
  C  C35  1  0.53753834  0.80099926  0.42918773  1.0
  C  C36  1  0.57716997  0.21424540  0.45963647  1.0
  C  C37  1  0.47203499  0.79362535  0.56831583  1.0
  C  C38  1  0.58092429  0.11549562  0.45769303  1.0
  C  C39  1  0.47147430  0.89273617  0.57109118  1.0
  C  C40  1  0.50482437  0.05368641  0.49951313  1.0
  C  C41  1  0.50534602  0.94835345  0.49922387  1.0
  C  C42  1  0.30297744  0.47171029  0.49732549  1.0
  C  C43  1  0.70155835  0.51822243  0.50310076  1.0
  C  C44  1  0.81635421  0.52635281  0.50162535  1.0
  C  C45  1  0.18817335  0.46376396  0.49589599  1.0
  C  C46  1  0.02239878  0.36489415  0.48971357  1.0
  C  C47  1  0.98210445  0.62520377  0.50530043  1.0
  C  C48  1  0.12792161  0.37206834  0.48965197  1.0
  C  C49  1  0.87658773  0.61816464  0.50523913  1.0
  C  C50  1  0.14083938  0.54639826  0.50092460  1.0
  C  C51  1  0.86368133  0.44365064  0.49688115  1.0
  C  C52  1  0.03263360  0.54144846  0.50049310  1.0
  C  C53  1  0.97184084  0.44858887  0.49544984  1.0
  C  C54  1  0.50188022  0.58817086  0.90980382  1.0
  C  C55  1  0.51999431  0.42310571  0.09394120  1.0
  C  C56  1  0.50478291  0.59216943  0.81877517  1.0
  C  C57  1  0.52527455  0.42242561  0.18512836  1.0
  C  C58  1  0.52455813  0.68675275  0.78289225  1.0
  C  C59  1  0.56578240  0.34248322  0.22457745  1.0
  N  N60  1  0.50226639  0.25287462  0.50041199  1.0
  N  N61  1  0.50438922  0.74857785  0.49865136  1.0
  N  N62  1  0.53872582  0.76859132  0.76560500  1.0
  N  N63  1  0.60062056  0.27390385  0.24748146  1.0
  O  O64  1  0.51369958  0.58716194  0.63498401  1.0
  O  O65  1  0.51208519  0.42656183  0.36928641  1.0
  O  O66  1  0.48124287  0.42380589  0.63447791  1.0
  O  O67  1  0.49325411  0.58551591  0.36527928  1.0
  O  O68  1  0.35229990  0.55563996  0.50741927  1.0
  O  O69  1  0.65333069  0.43436068  0.51485712  1.0
  O  O70  1  0.34314003  0.39397500  0.48863377  1.0
  O  O71  1  0.66044838  0.59510880  0.49252988  1.0
