# generated using pymatgen
data_Zn2H12C42N12ClO28
_symmetry_space_group_name_H-M   'P 1'
_cell_length_a   16.58396461
_cell_length_b   17.89256392
_cell_length_c   28.84712643
_cell_angle_alpha   89.19028196
_cell_angle_beta   89.90651071
_cell_angle_gamma   89.97810830
_symmetry_Int_Tables_number   1
_chemical_formula_structural   Zn2H12C42N12ClO28
_chemical_formula_sum   'Zn4 H24 C84 N24 Cl2 O56'
_cell_volume   8558.93092340
_cell_formula_units_Z   2
loop_
 _symmetry_equiv_pos_site_id
 _symmetry_equiv_pos_as_xyz
  1  'x, y, z'
loop_
 _atom_site_type_symbol
 _atom_site_label
 _atom_site_symmetry_multiplicity
 _atom_site_fract_x
 _atom_site_fract_y
 _atom_site_fract_z
 _atom_site_occupancy
  Zn  Zn0  1  0.41764446  0.50097414  0.50104717  1.0
  Zn  Zn1  1  0.58533505  0.49896484  0.49838484  1.0
  Zn  Zn2  1  0.58395730  0.50173617  0.12052036  1.0
  Zn  Zn3  1  0.41592313  0.50444246  0.11892417  1.0
  H  H4  1  0.71495050  0.59500536  0.45657231  1.0
  H  H5  1  0.71593474  0.39729409  0.53448591  1.0
  H  H6  1  0.28918443  0.55200513  0.43548939  1.0
  H  H7  1  0.28578854  0.45242088  0.56671979  1.0
  H  H8  1  0.38331077  0.73414713  0.52676590  1.0
  H  H9  1  0.62926809  0.74151669  0.47839792  1.0
  H  H10  1  0.37673560  0.26582031  0.46878234  1.0
  H  H11  1  0.62303107  0.25706143  0.51609829  1.0
  H  H12  1  0.41974434  0.39641535  0.22374215  1.0
  H  H13  1  0.36202343  0.28968520  0.26723124  1.0
  H  H14  1  0.42086106  0.39329738  0.39670982  1.0
  H  H15  1  0.36199179  0.28814874  0.35376621  1.0
  H  H16  1  0.62594518  0.47519764  0.97125821  1.0
  H  H17  1  0.36945827  0.51523114  0.97234396  1.0
  H  H18  1  0.62156392  0.53105377  0.64602641  1.0
  H  H19  1  0.37507993  0.45432383  0.64860766  1.0
  H  H20  1  0.28712657  0.59538434  0.16452929  1.0
  H  H21  1  0.28413523  0.41337071  0.07605018  1.0
  H  H22  1  0.71102016  0.55367708  0.18650690  1.0
  H  H23  1  0.71695128  0.44593894  0.05946345  1.0
  H  H24  1  0.63445791  0.74725775  0.10451498  1.0
  H  H25  1  0.37877655  0.73485017  0.13067670  1.0
  H  H26  1  0.62648707  0.26104178  0.14241115  1.0
  H  H27  1  0.36981079  0.26678592  0.11904714  1.0
  C  C28  1  0.50973366  0.64436320  0.50484782  1.0
  C  C29  1  0.49268789  0.51507687  0.41057538  1.0
  C  C30  1  0.50302748  0.35509806  0.49345415  1.0
  C  C31  1  0.49894373  0.48918477  0.58935203  1.0
  C  C32  1  0.50831379  0.64812999  0.11293901  1.0
  C  C33  1  0.49195202  0.51906113  0.20914783  1.0
  C  C34  1  0.50072630  0.35742233  0.12918024  1.0
  C  C35  1  0.49748258  0.49102035  0.02981800  1.0
  C  C36  1  0.75007323  0.55140763  0.47391436  1.0
  C  C37  1  0.83369726  0.55360732  0.47376412  1.0
  C  C38  1  0.88014803  0.49692810  0.49561039  1.0
  C  C39  1  0.83422821  0.43931499  0.51696086  1.0
  C  C40  1  0.75062907  0.44125360  0.51717049  1.0
  C  C41  1  0.96467568  0.49791971  0.49643430  1.0
  C  C42  1  0.03807496  0.49863648  0.49812328  1.0
  C  C43  1  0.12255643  0.49995227  0.49930659  1.0
  C  C44  1  0.16971747  0.52820140  0.46208397  1.0
  C  C45  1  0.25322265  0.52966920  0.46418511  1.0
  C  C46  1  0.25142693  0.47418547  0.53731249  1.0
  C  C47  1  0.16779719  0.47322459  0.53764489  1.0
  C  C48  1  0.50673683  0.72800245  0.50299446  1.0
  C  C49  1  0.43614420  0.76543956  0.51534760  1.0
  C  C50  1  0.43332650  0.84280826  0.51342158  1.0
  C  C51  1  0.49888891  0.88722656  0.49746138  1.0
  C  C52  1  0.56870758  0.84655123  0.48449749  1.0
  C  C53  1  0.57348410  0.76933266  0.48796828  1.0
  C  C54  1  0.49516353  0.96545652  0.49495458  1.0
  C  C55  1  0.49232470  0.03357921  0.49340658  1.0
  C  C56  1  0.49432405  0.11188778  0.49284702  1.0
  C  C57  1  0.42830216  0.15694804  0.47831528  1.0
  C  C58  1  0.43012662  0.23441318  0.47905311  1.0
  C  C59  1  0.50016890  0.27144630  0.49256516  1.0
  C  C60  1  0.56753111  0.22948012  0.50588302  1.0
  C  C61  1  0.56371959  0.15214977  0.50689692  1.0
  C  C62  1  0.48923552  0.52012030  0.26113430  1.0
  C  C63  1  0.45465322  0.45767637  0.28514031  1.0
  C  C64  1  0.52036819  0.57994675  0.28511166  1.0
  C  C65  1  0.42078403  0.39596160  0.26151487  1.0
  C  C66  1  0.38817001  0.33636432  0.28588502  1.0
  C  C67  1  0.48938121  0.51809748  0.35857638  1.0
  C  C68  1  0.52038620  0.57890535  0.33445311  1.0
  C  C69  1  0.45483906  0.45667363  0.33481622  1.0
  C  C70  1  0.42105516  0.39422930  0.35889344  1.0
  C  C71  1  0.38822465  0.33549986  0.33489851  1.0
  C  C72  1  0.49765464  0.49417130  0.97791787  1.0
  C  C73  1  0.56934401  0.48504078  0.95319489  1.0
  C  C74  1  0.56862570  0.48748574  0.90516485  1.0
  C  C75  1  0.49787784  0.50292642  0.87914883  1.0
  C  C76  1  0.42718801  0.51456138  0.90588389  1.0
  C  C77  1  0.42604952  0.50813377  0.95379401  1.0
  C  C78  1  0.49751859  0.50529959  0.83055617  1.0
  C  C79  1  0.49664503  0.50468491  0.78832686  1.0
  C  C80  1  0.49687091  0.50135674  0.73982040  1.0
  C  C81  1  0.56498675  0.52212041  0.71275013  1.0
  C  C82  1  0.56697689  0.51603994  0.66494389  1.0
  C  C83  1  0.49852669  0.49201560  0.64120752  1.0
  C  C84  1  0.42929445  0.47269561  0.66628161  1.0
  C  C85  1  0.42947527  0.47599595  0.71424699  1.0
  C  C86  1  0.25160600  0.55528977  0.14511292  1.0
  C  C87  1  0.16800630  0.55663663  0.14665746  1.0
  C  C88  1  0.12119736  0.50258539  0.12359841  1.0
  C  C89  1  0.16657742  0.44941053  0.09875745  1.0
  C  C90  1  0.25003717  0.45315710  0.09657574  1.0
  C  C91  1  0.03664451  0.50196353  0.12501876  1.0
  C  C92  1  0.96322965  0.50182931  0.12544731  1.0
  C  C93  1  0.87866413  0.50111846  0.12474386  1.0
  C  C94  1  0.83089108  0.53006447  0.16098039  1.0
  C  C95  1  0.74730107  0.52999217  0.15875692  1.0
  C  C96  1  0.75057714  0.47031597  0.08794523  1.0
  C  C97  1  0.83419415  0.47134096  0.08749218  1.0
  C  C98  1  0.50666349  0.73149013  0.11658826  1.0
  C  C99  1  0.57675882  0.77405408  0.11123308  1.0
  C  C100  1  0.57246625  0.85131298  0.11370879  1.0
  C  C101  1  0.50022073  0.88997696  0.12444824  1.0
  C  C102  1  0.43165261  0.84392838  0.13167741  1.0
  C  C103  1  0.43384407  0.76718479  0.12641291  1.0
  C  C104  1  0.49687223  0.96810130  0.12733391  1.0
  C  C105  1  0.49413044  0.03604513  0.12898788  1.0
  C  C106  1  0.49464927  0.11435019  0.13025169  1.0
  C  C107  1  0.56630302  0.15526333  0.13874150  1.0
  C  C108  1  0.56918044  0.23263362  0.13760950  1.0
  C  C109  1  0.49837739  0.27371790  0.13070026  1.0
  C  C110  1  0.42573632  0.23592473  0.12404132  1.0
  C  C111  1  0.42478941  0.15851528  0.12256207  1.0
  N  N112  1  0.70952873  0.49648362  0.49590719  1.0
  N  N113  1  0.29316888  0.50237605  0.50119590  1.0
  N  N114  1  0.29155271  0.50494392  0.11978445  1.0
  N  N115  1  0.70821169  0.49990928  0.12283456  1.0
  N  N116  1  0.87370413  0.37489103  0.54015149  1.0
  N  N117  1  0.87267633  0.61766477  0.44984824  1.0
  N  N118  1  0.12754686  0.44263110  0.57952955  1.0
  N  N119  1  0.13172732  0.55709203  0.41916444  1.0
  N  N120  1  0.64053714  0.88613205  0.46622851  1.0
  N  N121  1  0.35772868  0.87848441  0.52891699  1.0
  N  N122  1  0.63627958  0.11224887  0.52379816  1.0
  N  N123  1  0.35345002  0.12184837  0.46137704  1.0
  N  N124  1  0.35055333  0.53523468  0.88286727  1.0
  N  N125  1  0.64606725  0.47300893  0.88146868  1.0
  N  N126  1  0.35503239  0.45180858  0.73840785  1.0
  N  N127  1  0.63775663  0.55251220  0.73525358  1.0
  N  N128  1  0.12688580  0.38745057  0.07426430  1.0
  N  N129  1  0.12945152  0.61656103  0.17362689  1.0
  N  N130  1  0.87490485  0.44016357  0.04644780  1.0
  N  N131  1  0.86841686  0.56162387  0.20279234  1.0
  N  N132  1  0.35368919  0.87662887  0.14589469  1.0
  N  N133  1  0.64764971  0.89337645  0.10436003  1.0
  N  N134  1  0.34676226  0.12289796  0.11175132  1.0
  N  N135  1  0.64244306  0.11550175  0.14934085  1.0
  Cl  Cl136  1  0.55890185  0.65375874  0.36424875  1.0
  Cl  Cl137  1  0.55843926  0.65641608  0.25533069  1.0
  O  O138  1  0.44472635  0.61071240  0.51585553  1.0
  O  O139  1  0.57677486  0.61370376  0.49496328  1.0
  O  O140  1  0.55968744  0.49708780  0.42866692  1.0
  O  O141  1  0.42730900  0.52847336  0.43208234  1.0
  O  O142  1  0.57064402  0.38474776  0.50307333  1.0
  O  O143  1  0.43765282  0.38982471  0.48470236  1.0
  O  O144  1  0.43212672  0.47403829  0.56971333  1.0
  O  O145  1  0.56547207  0.50303412  0.56907863  1.0
  O  O146  1  0.57685382  0.61635771  0.11479948  1.0
  O  O147  1  0.44026388  0.61607255  0.10868381  1.0
  O  O148  1  0.42473289  0.52490242  0.18832954  1.0
  O  O149  1  0.56052061  0.50970881  0.19038177  1.0
  O  O150  1  0.43312979  0.39134406  0.13062977  1.0
  O  O151  1  0.56989578  0.38758293  0.12622244  1.0
  O  O152  1  0.56572897  0.49267894  0.04995660  1.0
  O  O153  1  0.42876693  0.48783610  0.04946090  1.0
  O  O154  1  0.93970814  0.35522478  0.52457378  1.0
  O  O155  1  0.83671838  0.34586672  0.57295348  1.0
  O  O156  1  0.93813894  0.63868454  0.46533950  1.0
  O  O157  1  0.83580741  0.64488142  0.41648372  1.0
  O  O158  1  0.06014618  0.46782800  0.58882678  1.0
  O  O159  1  0.16524877  0.39463129  0.60177948  1.0
  O  O160  1  0.06886899  0.52625741  0.40668229  1.0
  O  O161  1  0.16690220  0.60918580  0.39920524  1.0
  O  O162  1  0.62947967  0.94620840  0.44543850  1.0
  O  O163  1  0.70664690  0.85551475  0.47269702  1.0
  O  O164  1  0.36300384  0.94060602  0.54692651  1.0
  O  O165  1  0.29466160  0.84274311  0.52314479  1.0
  O  O166  1  0.62593247  0.05349101  0.54606961  1.0
  O  O167  1  0.70217196  0.14178162  0.51493885  1.0
  O  O168  1  0.35851198  0.05773590  0.44614236  1.0
  O  O169  1  0.29093706  0.15972244  0.46318883  1.0
  O  O170  1  0.35503941  0.57345426  0.84689745  1.0
  O  O171  1  0.28761021  0.51386065  0.90198947  1.0
  O  O172  1  0.64349684  0.44134706  0.84369373  1.0
  O  O173  1  0.70796933  0.49305345  0.90180926  1.0
  O  O174  1  0.36244181  0.42090414  0.77676204  1.0
  O  O175  1  0.29066787  0.46377931  0.71786275  1.0
  O  O176  1  0.62756426  0.59052904  0.77025108  1.0
  O  O177  1  0.70334574  0.53855182  0.71672015  1.0
  O  O178  1  0.06364369  0.36301886  0.09132030  1.0
  O  O179  1  0.16130130  0.36488640  0.03913100  1.0
  O  O180  1  0.06485313  0.64141490  0.15878160  1.0
  O  O181  1  0.16600962  0.63684974  0.20853549  1.0
  O  O182  1  0.93852323  0.47021286  0.03401125  1.0
  O  O183  1  0.84080429  0.38702424  0.02789833  1.0
  O  O184  1  0.93271389  0.53337167  0.21574915  1.0
  O  O185  1  0.83152014  0.61311162  0.22143867  1.0
  O  O186  1  0.35582838  0.93260106  0.17047345  1.0
  O  O187  1  0.29197288  0.84420249  0.13276800  1.0
  O  O188  1  0.64167436  0.95326408  0.08272822  1.0
  O  O189  1  0.71104754  0.86440780  0.11835986  1.0
  O  O190  1  0.34846694  0.06412997  0.08979639  1.0
  O  O191  1  0.28524920  0.15574375  0.12501089  1.0
  O  O192  1  0.63794850  0.05863457  0.17404192  1.0
  O  O193  1  0.70499954  0.14336892  0.13327846  1.0
