# generated using pymatgen
data_ZnH18C23NO6
_symmetry_space_group_name_H-M   'P 1'
_cell_length_a   12.83533046
_cell_length_b   18.92998209
_cell_length_c   18.92804962
_cell_angle_alpha   115.04337435
_cell_angle_beta   103.05699552
_cell_angle_gamma   103.06298947
_symmetry_Int_Tables_number   1
_chemical_formula_structural   ZnH18C23NO6
_chemical_formula_sum   'Zn6 H108 C138 N6 O36'
_cell_volume   3779.74113046
_cell_formula_units_Z   6
loop_
 _symmetry_equiv_pos_site_id
 _symmetry_equiv_pos_as_xyz
  1  'x, y, z'
loop_
 _atom_site_type_symbol
 _atom_site_label
 _atom_site_symmetry_multiplicity
 _atom_site_fract_x
 _atom_site_fract_y
 _atom_site_fract_z
 _atom_site_occupancy
  Zn  Zn0  1  0.82108294  0.72316542  0.32498642  1.0
  Zn  Zn1  1  0.49612119  0.67499675  0.39815144  1.0
  Zn  Zn2  1  0.09791742  0.60187880  0.27679642  1.0
  Zn  Zn3  1  0.17891455  0.27683385  0.67501130  1.0
  Zn  Zn4  1  0.50387808  0.32500126  0.60184866  1.0
  Zn  Zn5  1  0.90208087  0.39812047  0.72320300  1.0
  H  H6  1  0.01488906  0.86160266  0.34408440  1.0
  H  H7  1  0.22939035  0.84285313  0.30416285  1.0
  H  H8  1  0.17574071  0.15015026  0.41695438  1.0
  H  H9  1  0.35371950  0.19326329  0.39003775  1.0
  H  H10  1  0.44256510  0.08890412  0.32885300  1.0
  H  H11  1  0.35150082  0.94164938  0.29479370  1.0
  H  H12  1  0.88509051  0.01963078  0.48927800  1.0
  H  H13  1  0.73426019  0.93022199  0.30232982  1.0
  H  H14  1  0.60803799  0.14990396  0.30127530  1.0
  H  H15  1  0.75425681  0.28041360  0.42370885  1.0
  H  H16  1  0.91765866  0.27403069  0.52071247  1.0
  H  H17  1  0.93145316  0.13784970  0.49196217  1.0
  H  H18  1  0.81562467  0.58468857  0.17073796  1.0
  H  H19  1  0.68296377  0.48741337  0.02482064  1.0
  H  H20  1  0.42609892  0.58787880  0.09318745  1.0
  H  H21  1  0.56969307  0.68003182  0.23551387  1.0
  H  H22  1  0.06975203  0.04862415  0.44021640  1.0
  H  H23  1  0.54368025  0.00847384  0.23278462  1.0
  H  H24  1  0.67079896  0.65572232  0.51738201  1.0
  H  H25  1  0.92524541  0.69582000  0.53859482  1.0
  H  H26  1  0.75869921  0.58294071  0.73304294  1.0
  H  H27  1  0.96357722  0.61004463  0.80328015  1.0
  H  H28  1  0.11371473  0.67132883  0.76022862  1.0
  H  H29  1  0.05676747  0.70522025  0.64687398  1.0
  H  H30  1  0.39542123  0.51054607  0.53020687  1.0
  H  H31  1  0.43188342  0.69753806  0.62782577  1.0
  H  H32  1  0.30704686  0.69869776  0.84879289  1.0
  H  H33  1  0.33099114  0.57629182  0.85688218  1.0
  H  H34  1  0.39709533  0.47918798  0.75331235  1.0
  H  H35  1  0.43930347  0.50788309  0.64575693  1.0
  H  H36  1  0.64498701  0.82931528  0.41397533  1.0
  H  H37  1  0.65820168  0.97522595  0.46263927  1.0
  H  H38  1  0.33298149  0.90681698  0.49476528  1.0
  H  H39  1  0.33425683  0.76446575  0.44449154  1.0
  H  H40  1  0.62951037  0.55981642  0.60832176  1.0
  H  H41  1  0.31091747  0.76712580  0.77580151  1.0
  H  H42  1  0.15339944  0.48271689  0.13835108  1.0
  H  H43  1  0.38664455  0.46154733  0.15722186  1.0
  H  H44  1  0.02570486  0.26706718  0.84992990  1.0
  H  H45  1  0.16040366  0.19684024  0.80685881  1.0
  H  H46  1  0.35346865  0.23984763  0.91123256  1.0
  H  H47  1  0.40984524  0.35321412  0.05843464  1.0
  H  H48  1  0.86528674  0.46970123  0.98031523  1.0
  H  H49  1  0.80426098  0.37200694  0.06967188  1.0
  H  H50  1  0.45803643  0.15147158  0.85006928  1.0
  H  H51  1  0.47386255  0.14330594  0.71953119  1.0
  H  H52  1  0.64367908  0.24662493  0.72585998  1.0
  H  H53  1  0.79367928  0.35399702  0.86203871  1.0
  H  H54  1  0.23098476  0.58607799  0.41532506  1.0
  H  H55  1  0.19547700  0.53730637  0.51251686  1.0
  H  H56  1  0.83829084  0.50561021  0.41229440  1.0
  H  H57  1  0.88981466  0.55578067  0.32013980  1.0
  H  H58  1  0.02114374  0.39174147  0.95150241  1.0
  H  H59  1  0.53511574  0.22439744  0.99147350  1.0
  H  H60  1  0.98511079  0.13839974  0.65591660  1.0
  H  H61  1  0.77060937  0.15714739  0.69583786  1.0
  H  H62  1  0.82426123  0.84985151  0.58304772  1.0
  H  H63  1  0.64628261  0.80673723  0.60996385  1.0
  H  H64  1  0.55743479  0.91109515  0.67114508  1.0
  H  H65  1  0.64849827  0.05834989  0.70520426  1.0
  H  H66  1  0.11490956  0.98036724  0.51072117  1.0
  H  H67  1  0.26574081  0.06977790  0.69767029  1.0
  H  H68  1  0.39196444  0.85009719  0.69872609  1.0
  H  H69  1  0.24574704  0.71958880  0.57629329  1.0
  H  H70  1  0.08234505  0.72596983  0.47928990  1.0
  H  H71  1  0.06854976  0.86215082  0.50803850  1.0
  H  H72  1  0.18437090  0.41531008  0.82926290  1.0
  H  H73  1  0.31703243  0.51258652  0.97517926  1.0
  H  H74  1  0.57389711  0.41212234  0.90681084  1.0
  H  H75  1  0.43030408  0.31996996  0.76448539  1.0
  H  H76  1  0.93025120  0.95137699  0.55978458  1.0
  H  H77  1  0.45632281  0.99152856  0.76721739  1.0
  H  H78  1  0.32919822  0.34427632  0.48261645  1.0
  H  H79  1  0.07475083  0.30417677  0.46140375  1.0
  H  H80  1  0.24130068  0.41705856  0.26695832  1.0
  H  H81  1  0.03642281  0.38995652  0.19672139  1.0
  H  H82  1  0.88628623  0.32867420  0.23977386  1.0
  H  H83  1  0.94323224  0.29478027  0.35312566  1.0
  H  H84  1  0.60457706  0.48945320  0.46979414  1.0
  H  H85  1  0.56811630  0.30246246  0.37217335  1.0
  H  H86  1  0.69295445  0.30130277  0.15120753  1.0
  H  H87  1  0.66900924  0.42370682  0.14311730  1.0
  H  H88  1  0.60290599  0.52081254  0.24668596  1.0
  H  H89  1  0.56069896  0.49211806  0.35424287  1.0
  H  H90  1  0.35501160  0.17068461  0.58602494  1.0
  H  H91  1  0.34179852  0.02477394  0.53736229  1.0
  H  H92  1  0.66701888  0.09318166  0.50523473  1.0
  H  H93  1  0.66574417  0.23553414  0.55551015  1.0
  H  H94  1  0.37048810  0.44018159  0.39167822  1.0
  H  H95  1  0.68908415  0.23287535  0.22419975  1.0
  H  H96  1  0.84659885  0.51728237  0.86164782  1.0
  H  H97  1  0.61335405  0.53845257  0.84277788  1.0
  H  H98  1  0.97429343  0.73293209  0.15007006  1.0
  H  H99  1  0.83959463  0.80315903  0.19314221  1.0
  H  H100  1  0.64652964  0.76015164  0.08876687  1.0
  H  H101  1  0.59015337  0.64678578  0.94156510  1.0
  H  H102  1  0.13471329  0.53029991  0.01968314  1.0
  H  H103  1  0.19573936  0.62799483  0.93032786  1.0
  H  H104  1  0.54196489  0.84852894  0.14993061  1.0
  H  H105  1  0.52613939  0.85669583  0.28046985  1.0
  H  H106  1  0.35632046  0.75337684  0.27413964  1.0
  H  H107  1  0.20632106  0.64600475  0.13796156  1.0
  H  H108  1  0.76901433  0.41392128  0.58467449  1.0
  H  H109  1  0.80452511  0.46269415  0.48748368  1.0
  H  H110  1  0.16170985  0.49438906  0.58770487  1.0
  H  H111  1  0.11018523  0.44421860  0.67985934  1.0
  H  H112  1  0.97885549  0.60825967  0.04849743  1.0
  H  H113  1  0.46488638  0.77560308  0.00852704  1.0
  C  C114  1  0.05916969  0.74979441  0.31508517  1.0
  C  C115  1  0.07914559  0.83506525  0.32979678  1.0
  C  C116  1  0.17329412  0.87728924  0.32262785  1.0
  C  C117  1  0.21270545  0.96164101  0.33666308  1.0
  C  C118  1  0.16333932  0.02215280  0.37172631  1.0
  C  C119  1  0.21470676  0.10474893  0.38986072  1.0
  C  C120  1  0.31383855  0.12844801  0.37411556  1.0
  C  C121  1  0.36341038  0.06965678  0.33926577  1.0
  C  C122  1  0.31288820  0.98783910  0.32080180  1.0
  C  C123  1  0.84834639  0.88791374  0.40725873  1.0
  C  C124  1  0.83972010  0.96936499  0.42451705  1.0
  C  C125  1  0.78135642  0.98316415  0.36585263  1.0
  C  C126  1  0.77550459  0.06432845  0.38230706  1.0
  C  C127  1  0.68519129  0.06969003  0.32844823  1.0
  C  C128  1  0.67808057  0.14703241  0.34383053  1.0
  C  C129  1  0.76077608  0.22062749  0.41303962  1.0
  C  C130  1  0.85136004  0.21711434  0.46705862  1.0
  C  C131  1  0.85836783  0.13997172  0.45144125  1.0
  C  C132  1  0.72811024  0.58279887  0.15026430  1.0
  C  C133  1  0.65245924  0.52849510  0.06840827  1.0
  C  C134  1  0.54072000  0.52818104  0.04374711  1.0
  C  C135  1  0.51087401  0.58383848  0.10585562  1.0
  C  C136  1  0.59123784  0.63650600  0.18664628  1.0
  C  C137  1  0.74405590  0.68482317  0.43460312  1.0
  C  C138  1  0.74934532  0.67010631  0.50517082  1.0
  C  C139  1  0.85070074  0.67732057  0.55456658  1.0
  C  C140  1  0.87608053  0.66327381  0.62488334  1.0
  C  C141  1  0.79162893  0.62821776  0.65031286  1.0
  C  C142  1  0.82480430  0.61008657  0.71478459  1.0
  C  C143  1  0.93967654  0.62593260  0.75434591  1.0
  C  C144  1  0.02414108  0.66081164  0.73045137  1.0
  C  C145  1  0.99210221  0.67920548  0.66703181  1.0
  C  C146  1  0.44091934  0.59259801  0.48055972  1.0
  C  C147  1  0.41499007  0.57532813  0.54474517  1.0
  C  C148  1  0.41537157  0.63399806  0.61723404  1.0
  C  C149  1  0.39312313  0.61758215  0.68199573  1.0
  C  C150  1  0.35677421  0.67147284  0.74127842  1.0
  C  C151  1  0.33444676  0.65611715  0.80331144  1.0
  C  C152  1  0.34799990  0.58691203  0.80768942  1.0
  C  C153  1  0.38443890  0.53285345  0.75007765  1.0
  C  C154  1  0.40683462  0.54842640  0.68847091  1.0
  C  C155  1  0.57793499  0.84977689  0.43255478  1.0
  C  C156  1  0.58413874  0.93162929  0.46013556  1.0
  C  C157  1  0.49699025  0.95624580  0.48445336  1.0
  C  C158  1  0.40505774  0.89414092  0.47801490  1.0
  C  C159  1  0.40466909  0.81334786  0.44985724  1.0
  C  C160  1  0.30941322  0.56548778  0.25022727  1.0
  C  C161  1  0.24416410  0.49496241  0.16493555  1.0
  C  C162  1  0.29611764  0.44557833  0.12275966  1.0
  C  C163  1  0.25117145  0.37524586  0.03841927  1.0
  C  C164  1  0.14128964  0.34979649  0.97792651  1.0
  C  C165  1  0.11004131  0.28532388  0.89533429  1.0
  C  C166  1  0.18537411  0.24577358  0.87166377  1.0
  C  C167  1  0.29369185  0.26966958  0.93045823  1.0
  C  C168  1  0.32505568  0.33309149  0.01224821  1.0
  C  C169  1  0.96044492  0.51929479  0.11199979  1.0
  C  C170  1  0.87031582  0.45513990  0.03055397  1.0
  C  C171  1  0.79826639  0.38264232  0.01673621  1.0
  C  C172  1  0.71118518  0.31796390  0.93559306  1.0
  C  C173  1  0.61544095  0.25881145  0.93025603  1.0
  C  C174  1  0.53095559  0.19687036  0.85292359  1.0
  C  C175  1  0.54012652  0.19244442  0.77931064  1.0
  C  C176  1  0.63425966  0.24991448  0.78278530  1.0
  C  C177  1  0.71839558  0.31142228  0.85992348  1.0
  C  C178  1  0.14536552  0.56748992  0.41720576  1.0
  C  C179  1  0.12394807  0.53987419  0.47146489  1.0
  C  C180  1  0.01252433  0.51559314  0.47182290  1.0
  C  C181  1  0.92707583  0.52219546  0.41626103  1.0
  C  C182  1  0.95482337  0.55032691  0.36359767  1.0
  C  C183  1  0.94082874  0.25020674  0.68491508  1.0
  C  C184  1  0.92085475  0.16493652  0.67020455  1.0
  C  C185  1  0.82670702  0.12271254  0.67737360  1.0
  C  C186  1  0.78729506  0.03835951  0.66333722  1.0
  C  C187  1  0.83666342  0.97784897  0.62827645  1.0
  C  C188  1  0.78529790  0.89525347  0.61014207  1.0
  C  C189  1  0.68616659  0.87155376  0.62588703  1.0
  C  C190  1  0.63658934  0.93034374  0.66073388  1.0
  C  C191  1  0.68711121  0.01216080  0.67919806  1.0
  C  C192  1  0.15165683  0.11208741  0.59274172  1.0
  C  C193  1  0.16028121  0.03063553  0.57548179  1.0
  C  C194  1  0.21864570  0.01683637  0.63414792  1.0
  C  C195  1  0.22449802  0.93567144  0.61769276  1.0
  C  C196  1  0.31481211  0.93030986  0.67155171  1.0
  C  C197  1  0.32192520  0.85297061  0.65617164  1.0
  C  C198  1  0.23922617  0.77937491  0.58696121  1.0
  C  C199  1  0.14864496  0.78288555  0.53294263  1.0
  C  C200  1  0.14163651  0.86003006  0.54855964  1.0
  C  C201  1  0.27188565  0.41720040  0.84973476  1.0
  C  C202  1  0.34753919  0.47150605  0.93159091  1.0
  C  C203  1  0.45927794  0.47182073  0.95625121  1.0
  C  C204  1  0.48912505  0.41616392  0.89414261  1.0
  C  C205  1  0.40876091  0.36349577  0.81335375  1.0
  C  C206  1  0.25594274  0.31517360  0.56539477  1.0
  C  C207  1  0.25065217  0.32989295  0.49482954  1.0
  C  C208  1  0.14929630  0.32267620  0.44543212  1.0
  C  C209  1  0.12391825  0.33672483  0.37511590  1.0
  C  C210  1  0.20837065  0.37178088  0.34968544  1.0
  C  C211  1  0.17519382  0.38991395  0.28521534  1.0
  C  C212  1  0.06032523  0.37407043  0.24565775  1.0
  C  C213  1  0.97585654  0.33918951  0.26954980  1.0
  C  C214  1  0.00789528  0.32079379  0.33296643  1.0
  C  C215  1  0.55907735  0.40740126  0.51943999  1.0
  C  C216  1  0.58500742  0.42467114  0.45525466  1.0
  C  C217  1  0.58462815  0.36600246  0.38276614  1.0
  C  C218  1  0.60687833  0.38242025  0.31800551  1.0
  C  C219  1  0.64323062  0.32852830  0.25872333  1.0
  C  C220  1  0.66555616  0.34388337  0.19668975  1.0
  C  C221  1  0.65200173  0.41308912  0.19230973  1.0
  C  C222  1  0.61556402  0.46714707  0.24992143  1.0
  C  C223  1  0.59316830  0.45157412  0.31152922  1.0
  C  C224  1  0.42206539  0.15022176  0.56744470  1.0
  C  C225  1  0.41586306  0.06837060  0.53986468  1.0
  C  C226  1  0.50301172  0.04375284  0.51554848  1.0
  C  C227  1  0.59494103  0.10585772  0.52198698  1.0
  C  C228  1  0.59532888  0.18665079  0.55014398  1.0
  C  C229  1  0.69058333  0.43450961  0.74977374  1.0
  C  C230  1  0.75583357  0.50503561  0.83506272  1.0
  C  C231  1  0.70388145  0.55442093  0.87724095  1.0
  C  C232  1  0.74882763  0.62475341  0.96158187  1.0
  C  C233  1  0.85870927  0.65020403  0.02207355  1.0
  C  C234  1  0.88995698  0.71467539  0.10466672  1.0
  C  C235  1  0.81462467  0.75422506  0.12833653  1.0
  C  C236  1  0.70630533  0.73032906  0.06954182  1.0
  C  C237  1  0.67494292  0.66690841  0.98775206  1.0
  C  C238  1  0.03955320  0.48070573  0.88799961  1.0
  C  C239  1  0.12968247  0.54485937  0.96944545  1.0
  C  C240  1  0.20173316  0.61735945  0.98326182  1.0
  C  C241  1  0.28881342  0.68203600  0.06440562  1.0
  C  C242  1  0.38455686  0.74118844  0.06974306  1.0
  C  C243  1  0.46904399  0.80312828  0.14707524  1.0
  C  C244  1  0.45987400  0.80755610  0.22068860  1.0
  C  C245  1  0.36573926  0.75008604  0.21721370  1.0
  C  C246  1  0.28160445  0.68857887  0.14007648  1.0
  C  C247  1  0.85463629  0.43250998  0.58279448  1.0
  C  C248  1  0.87605454  0.46012570  0.52853441  1.0
  C  C249  1  0.98747716  0.48440613  0.52817808  1.0
  C  C250  1  0.07292294  0.47780318  0.58373715  1.0
  C  C251  1  0.04517589  0.44967110  0.63640085  1.0
  N  N252  1  0.69858334  0.63641703  0.20886296  1.0
  N  N253  1  0.48980169  0.79115208  0.42754775  1.0
  N  N254  1  0.06225091  0.57255700  0.36363816  1.0
  N  N255  1  0.30141318  0.36358349  0.79113672  1.0
  N  N256  1  0.51019837  0.20884594  0.57245300  1.0
  N  N257  1  0.93774898  0.42744227  0.63636151  1.0
  O  O258  1  0.14037752  0.72110652  0.31008316  1.0
  O  O259  1  0.96160974  0.70373000  0.30700496  1.0
  O  O260  1  0.79794252  0.82513763  0.33144553  1.0
  O  O261  1  0.90465853  0.88069185  0.46678061  1.0
  O  O262  1  0.06873195  0.99931465  0.38869005  1.0
  O  O263  1  0.60398062  0.99603922  0.26138894  1.0
  O  O264  1  0.83026185  0.68985691  0.41091716  1.0
  O  O265  1  0.65454521  0.69285464  0.39659581  1.0
  O  O266  1  0.46623655  0.66838674  0.49353291  1.0
  O  O267  1  0.43788986  0.53309196  0.41388817  1.0
  O  O268  1  0.68010390  0.61130593  0.61050486  1.0
  O  O269  1  0.34255666  0.73853533  0.73470512  1.0
  O  O270  1  0.41932184  0.58918654  0.27890970  1.0
  O  O271  1  0.25790162  0.60342410  0.29630792  1.0
  O  O272  1  0.97287875  0.50629691  0.17480761  1.0
  O  O273  1  0.02400473  0.58599483  0.11915943  1.0
  O  O274  1  0.06951310  0.38955772  0.00081560  1.0
  O  O275  1  0.60787737  0.26542013  0.00392826  1.0
  O  O276  1  0.85961868  0.27889338  0.68991727  1.0
  O  O277  1  0.03838918  0.29627052  0.69299457  1.0
  O  O278  1  0.20206169  0.17486227  0.66855243  1.0
  O  O279  1  0.09534567  0.11930804  0.53321841  1.0
  O  O280  1  0.93126968  0.00068649  0.61131174  1.0
  O  O281  1  0.39602310  0.00396130  0.73861132  1.0
  O  O282  1  0.16973662  0.31014111  0.58908071  1.0
  O  O283  1  0.34545027  0.30713899  0.60339921  1.0
  O  O284  1  0.53376062  0.33161190  0.50646714  1.0
  O  O285  1  0.56210586  0.46690856  0.58611192  1.0
  O  O286  1  0.31989745  0.38869146  0.38949266  1.0
  O  O287  1  0.65744848  0.26146644  0.26529748  1.0
  O  O288  1  0.58067613  0.41081210  0.72109099  1.0
  O  O289  1  0.74209524  0.39657392  0.70369392  1.0
  O  O290  1  0.02712226  0.49370299  0.82519144  1.0
  O  O291  1  0.97599374  0.41400318  0.88083897  1.0
  O  O292  1  0.93048279  0.61044155  0.99918346  1.0
  O  O293  1  0.39212360  0.73458289  0.99607317  1.0
