# generated using pymatgen
data_AlH11C17NO5
_symmetry_space_group_name_H-M   'P 1'
_cell_length_a   6.67396957
_cell_length_b   23.41935094
_cell_length_c   26.22927050
_cell_angle_alpha   78.44041096
_cell_angle_beta   89.86102870
_cell_angle_gamma   89.88026376
_symmetry_Int_Tables_number   1
_chemical_formula_structural   AlH11C17NO5
_chemical_formula_sum   'Al4 H44 C68 N4 O20'
_cell_volume   4016.46509075
_cell_formula_units_Z   4
loop_
 _symmetry_equiv_pos_site_id
 _symmetry_equiv_pos_as_xyz
  1  'x, y, z'
loop_
 _atom_site_type_symbol
 _atom_site_label
 _atom_site_symmetry_multiplicity
 _atom_site_fract_x
 _atom_site_fract_y
 _atom_site_fract_z
 _atom_site_occupancy
  Al  Al0  1  0.76853127  0.24990467  0.25005863  1.0
  Al  Al1  1  0.23313555  0.75000458  0.74986661  1.0
  Al  Al2  1  0.26841501  0.25014909  0.25001060  1.0
  Al  Al3  1  0.73326499  0.74983379  0.75058592  1.0
  H  H4  1  0.29391348  0.62598401  0.65937126  1.0
  H  H5  1  0.70498157  0.37404813  0.33970456  1.0
  H  H6  1  0.78542918  0.83073956  0.87799158  1.0
  H  H7  1  0.20735552  0.16903261  0.12514639  1.0
  H  H8  1  0.28784090  0.56073005  0.59469396  1.0
  H  H9  1  0.70800870  0.44030155  0.40360612  1.0
  H  H10  1  0.76797406  0.89401969  0.94439821  1.0
  H  H11  1  0.21450211  0.10695210  0.05795381  1.0
  H  H12  1  0.74381136  0.42344096  0.50084747  1.0
  H  H13  1  0.25037056  0.57869728  0.49748678  1.0
  H  H14  1  0.34948814  0.10117913  0.97544888  1.0
  H  H15  1  0.62975485  0.90130400  0.02324180  1.0
  H  H16  1  0.13996916  0.53582431  0.07445104  1.0
  H  H17  1  0.86728157  0.46404685  0.92571665  1.0
  H  H18  1  0.61771329  0.96312405  0.42402668  1.0
  H  H19  1  0.38766243  0.03680766  0.57630778  1.0
  H  H20  1  0.66324265  0.46285771  0.02129415  1.0
  H  H21  1  0.34396757  0.53703499  0.97887274  1.0
  H  H22  1  0.16472088  0.04116952  0.48325252  1.0
  H  H23  1  0.84045851  0.95877986  0.51707965  1.0
  H  H24  1  0.52038548  0.63273595  0.55766915  1.0
  H  H25  1  0.63693237  0.58811220  0.52304449  1.0
  H  H26  1  0.35705897  0.41420718  0.47645924  1.0
  H  H27  1  0.47508864  0.36910288  0.44261630  1.0
  H  H28  1  0.99255695  0.93151884  0.88569133  1.0
  H  H29  1  0.09387987  0.96120425  0.93379159  1.0
  H  H30  1  0.88272354  0.03340195  0.06584697  1.0
  H  H31  1  0.99427616  0.06308745  0.11346146  1.0
  H  H32  1  0.67100926  0.66480484  0.62964849  1.0
  H  H33  1  0.32777986  0.33625859  0.37060815  1.0
  H  H34  1  0.17281022  0.87324905  0.83741647  1.0
  H  H35  1  0.82924987  0.13084510  0.15696636  1.0
  H  H36  1  0.72072782  0.48873717  0.56401921  1.0
  H  H37  1  0.27340922  0.51338926  0.43429719  1.0
  H  H38  1  0.31782370  0.03400402  0.91470066  1.0
  H  H39  1  0.65861184  0.96813925  0.08416174  1.0
  H  H40  1  0.79188005  0.57949258  0.01783305  1.0
  H  H41  1  0.21539908  0.42041764  0.98232211  1.0
  H  H42  1  0.27444845  0.92324659  0.48461086  1.0
  H  H43  1  0.73073560  0.07665585  0.51570389  1.0
  H  H44  1  0.51784928  0.32520136  0.22647759  1.0
  H  H45  1  0.48369401  0.67465573  0.77378038  1.0
  H  H46  1  0.02002794  0.17548408  0.27568509  1.0
  H  H47  1  0.98105919  0.82440181  0.72419258  1.0
  C  C48  1  0.52181401  0.17350214  0.32751944  1.0
  C  C49  1  0.47983993  0.82640024  0.67278431  1.0
  C  C50  1  0.01533729  0.32641132  0.17266061  1.0
  C  C51  1  0.98761660  0.67370231  0.82767220  1.0
  C  C52  1  0.51552152  0.18770856  0.18686513  1.0
  C  C53  1  0.48583545  0.81268324  0.81302401  1.0
  C  C54  1  0.02078936  0.31354260  0.31239881  1.0
  C  C55  1  0.97954735  0.68661003  0.68770161  1.0
  C  C56  1  0.15793706  0.62042139  0.63797505  1.0
  C  C57  1  0.84027620  0.38012915  0.36116901  1.0
  C  C58  1  0.64933599  0.85456109  0.88364103  1.0
  C  C59  1  0.34333684  0.14632926  0.11742364  1.0
  C  C60  1  0.15320542  0.58448509  0.60174993  1.0
  C  C61  1  0.84333978  0.41660649  0.39696093  1.0
  C  C62  1  0.63806572  0.88999328  0.92017313  1.0
  C  C63  1  0.34916764  0.11166337  0.08021988  1.0
  C  C64  1  0.97836314  0.57679040  0.57416851  1.0
  C  C65  1  0.01740134  0.42483568  0.42460943  1.0
  C  C66  1  0.46588016  0.92265956  0.92663944  1.0
  C  C67  1  0.52149176  0.08049269  0.07117889  1.0
  C  C68  1  0.80145286  0.60678656  0.58374284  1.0
  C  C69  1  0.19506081  0.39482306  0.41567434  1.0
  C  C70  1  0.29367687  0.91646216  0.89632474  1.0
  C  C71  1  0.69980977  0.08815907  0.09865586  1.0
  C  C72  1  0.80589141  0.64195307  0.62119903  1.0
  C  C73  1  0.19233678  0.35915767  0.37860380  1.0
  C  C74  1  0.30401371  0.87919528  0.86054268  1.0
  C  C75  1  0.69404953  0.12412313  0.13562668  1.0
  C  C76  1  0.98162348  0.64902575  0.64798217  1.0
  C  C77  1  0.01739892  0.35159060  0.35170759  1.0
  C  C78  1  0.47974435  0.84949714  0.85332486  1.0
  C  C79  1  0.51784937  0.15194556  0.14576579  1.0
  C  C80  1  0.84080100  0.49484453  0.53515022  1.0
  C  C81  1  0.15317112  0.50737156  0.46310891  1.0
  C  C82  1  0.39139139  0.01902886  0.95207183  1.0
  C  C83  1  0.58859815  0.98357285  0.04633203  1.0
  C  C84  1  0.85398132  0.45805362  0.49964235  1.0
  C  C85  1  0.14000278  0.54415098  0.49863002  1.0
  C  C86  1  0.41055882  0.05716538  0.98625822  1.0
  C  C87  1  0.57021278  0.94547816  0.01213669  1.0
  C  C88  1  0.00993053  0.46341853  0.46283912  1.0
  C  C89  1  0.98435927  0.53867529  0.53554496  1.0
  C  C90  1  0.51032497  0.04061670  0.03415721  1.0
  C  C91  1  0.47217276  0.96228148  0.96394597  1.0
  C  C92  1  0.07971946  0.52047878  0.04087471  1.0
  C  C93  1  0.92747729  0.47941154  0.95928946  1.0
  C  C94  1  0.56690146  0.97884644  0.45842173  1.0
  C  C95  1  0.43827352  0.02107339  0.54190699  1.0
  C  C96  1  0.88539292  0.54362493  0.01039206  1.0
  C  C97  1  0.12179782  0.45626074  0.98978536  1.0
  C  C98  1  0.37521574  0.95786644  0.49110939  1.0
  C  C99  1  0.62996975  0.04205957  0.50920882  1.0
  C  C100  1  0.98785050  0.62846986  0.87378831  1.0
  C  C101  1  0.01624064  0.37164359  0.12654714  1.0
  C  C102  1  0.48494047  0.87159520  0.62659722  1.0
  C  C103  1  0.51829126  0.12829937  0.37371018  1.0
  C  C104  1  0.19322663  0.52003446  0.98876327  1.0
  C  C105  1  0.81392516  0.47986545  0.01139429  1.0
  C  C106  1  0.69076556  0.97753433  0.50916124  1.0
  C  C107  1  0.31441242  0.02237950  0.49117333  1.0
  C  C108  1  0.99919640  0.54441287  0.95707053  1.0
  C  C109  1  0.00790142  0.45548891  0.04309600  1.0
  C  C110  1  0.49901749  0.95526246  0.54302709  1.0
  C  C111  1  0.50605414  0.04464125  0.45730327  1.0
  C  C112  1  0.99210669  0.58970881  0.91247422  1.0
  C  C113  1  0.01395983  0.41028619  0.08776649  1.0
  C  C114  1  0.49184796  0.91014854  0.58777210  1.0
  C  C115  1  0.51263181  0.08976209  0.41255692  1.0
  N  N116  1  0.62399125  0.60098248  0.55761951  1.0
  N  N117  1  0.37162173  0.40102667  0.44205720  1.0
  N  N118  1  0.11767200  0.94688009  0.90025402  1.0
  N  N119  1  0.88021921  0.06412133  0.08794211  1.0
  O  O120  1  0.34479248  0.20485365  0.19976712  1.0
  O  O121  1  0.65718536  0.79460513  0.80154982  1.0
  O  O122  1  0.85273178  0.30249346  0.29348373  1.0
  O  O123  1  0.14788909  0.69705092  0.70688019  1.0
  O  O124  1  0.69276461  0.19377535  0.31161156  1.0
  O  O125  1  0.30872948  0.80554113  0.68788999  1.0
  O  O126  1  0.18449055  0.31136629  0.19357694  1.0
  O  O127  1  0.81829958  0.68840336  0.80669001  1.0
  O  O128  1  0.68344467  0.19759520  0.20655600  1.0
  O  O129  1  0.31947942  0.80306980  0.79247429  1.0
  O  O130  1  0.19159341  0.29573498  0.30018918  1.0
  O  O131  1  0.80931326  0.70472218  0.69995599  1.0
  O  O132  1  0.84488379  0.30581658  0.18874118  1.0
  O  O133  1  0.15762852  0.69466811  0.81162501  1.0
  O  O134  1  0.35302446  0.18878021  0.30650880  1.0
  O  O135  1  0.64760260  0.81167760  0.69464787  1.0
  O  O136  1  0.51843452  0.28548446  0.24614939  1.0
  O  O137  1  0.48335717  0.71441802  0.75419593  1.0
  O  O138  1  0.01876424  0.21437004  0.25430148  1.0
  O  O139  1  0.98292088  0.78569962  0.74593935  1.0
