# generated using pymatgen
data_ZnH24C33NCl7O12
_symmetry_space_group_name_H-M   'P 1'
_cell_length_a   15.96037082
_cell_length_b   18.67641785
_cell_length_c   19.33684527
_cell_angle_alpha   89.91435911
_cell_angle_beta   88.15179988
_cell_angle_gamma   89.05293272
_symmetry_Int_Tables_number   1
_chemical_formula_structural   ZnH24C33NCl7O12
_chemical_formula_sum   'Zn2 H48 C66 N2 Cl14 O24'
_cell_volume   5760.18804829
_cell_formula_units_Z   2
loop_
 _symmetry_equiv_pos_site_id
 _symmetry_equiv_pos_as_xyz
  1  'x, y, z'
loop_
 _atom_site_type_symbol
 _atom_site_label
 _atom_site_symmetry_multiplicity
 _atom_site_fract_x
 _atom_site_fract_y
 _atom_site_fract_z
 _atom_site_occupancy
  Zn  Zn0  1  0.50858804  0.57942964  0.49518578  1.0
  Zn  Zn1  1  0.50275824  0.41669118  0.49910882  1.0
  H  H2  1  0.05138811  0.47791653  0.31098763  1.0
  H  H3  1  0.70385733  0.11323764  0.48442947  1.0
  H  H4  1  0.72550269  0.19457181  0.43735879  1.0
  H  H5  1  0.72833688  0.11010828  0.39303778  1.0
  H  H6  1  0.69180079  0.66551801  0.35029975  1.0
  H  H7  1  0.63163439  0.74692633  0.34337723  1.0
  H  H8  1  0.58080590  0.66097028  0.33930330  1.0
  H  H9  1  0.47446950  0.32651413  0.67261546  1.0
  H  H10  1  0.38594270  0.26754143  0.68299480  1.0
  H  H11  1  0.37041565  0.36290833  0.67413820  1.0
  H  H12  1  0.72106759  0.42266321  0.69216947  1.0
  H  H13  1  0.03096683  0.57272287  0.31753650  1.0
  H  H14  1  0.62060217  0.38764802  0.67327353  1.0
  H  H15  1  0.65585376  0.38707942  0.76137416  1.0
  H  H16  1  0.67681715  0.46032879  0.28058388  1.0
  H  H17  1  0.65439960  0.51999229  0.35197525  1.0
  H  H18  1  0.73483892  0.54119709  0.28937555  1.0
  H  H19  1  0.61685170  0.56476678  0.90674401  1.0
  H  H20  1  0.67476184  0.54392433  0.82736941  1.0
  H  H21  1  0.69949698  0.49859677  0.90643894  1.0
  H  H22  1  0.63970979  0.47711780  0.06910693  1.0
  H  H23  1  0.68668975  0.51187565  0.14549494  1.0
  H  H24  1  0.96596845  0.51798764  0.26585693  1.0
  H  H25  1  0.68483942  0.56436594  0.06788427  1.0
  H  H26  1  0.24563166  0.42366452  0.79261625  1.0
  H  H27  1  0.18475064  0.47330436  0.85639224  1.0
  H  H28  1  0.27154552  0.41885692  0.88267967  1.0
  H  H29  1  0.26432363  0.35336060  0.23110174  1.0
  H  H30  1  0.36445527  0.33150524  0.19039666  1.0
  H  H31  1  0.27398975  0.34102613  0.13882079  1.0
  H  H32  1  0.50782551  0.64849872  0.89752975  1.0
  H  H33  1  0.46547356  0.68050944  0.97969161  1.0
  H  H34  1  0.42199641  0.71161257  0.90013007  1.0
  H  H35  1  0.98275426  0.42765494  0.68485412  1.0
  H  H36  1  0.58499759  0.37198597  0.10577361  1.0
  H  H37  1  0.57600709  0.33163616  0.02156256  1.0
  H  H38  1  0.54600136  0.28303025  0.09850936  1.0
  H  H39  1  0.28378098  0.57862129  0.12053349  1.0
  H  H40  1  0.26990029  0.62599545  0.04031075  1.0
  H  H41  1  0.30077138  0.67346547  0.11602592  1.0
  H  H42  1  0.37541694  0.34073767  0.86583564  1.0
  H  H43  1  0.36733790  0.30386755  0.95196393  1.0
  H  H44  1  0.44072050  0.26616242  0.88919887  1.0
  H  H45  1  0.96571175  0.52313962  0.68929289  1.0
  H  H46  1  0.05198795  0.48238097  0.73279988  1.0
  H  H47  1  0.42611463  0.88502490  0.65967769  1.0
  H  H48  1  0.37977994  0.79824170  0.67066102  1.0
  H  H49  1  0.31400733  0.87625543  0.66132193  1.0
  C  C50  1  0.50220360  0.50352475  0.36404392  1.0
  C  C51  1  0.41140699  0.46691455  0.26638346  1.0
  C  C52  1  0.47561499  0.50597800  0.70666440  1.0
  C  C53  1  0.48641371  0.49710450  0.28779245  1.0
  C  C54  1  0.41086353  0.54922282  0.96231951  1.0
  C  C55  1  0.44985001  0.42397868  0.03565843  1.0
  C  C56  1  0.41172385  0.55003429  0.03487764  1.0
  C  C57  1  0.45090270  0.42324266  0.96300238  1.0
  C  C58  1  0.43395899  0.48826476  0.07163844  1.0
  C  C59  1  0.43290024  0.48610910  0.92592899  1.0
  C  C60  1  0.43922239  0.73097715  0.53790882  1.0
  C  C61  1  0.49335780  0.50915473  0.62971949  1.0
  C  C62  1  0.55669011  0.26204672  0.45767989  1.0
  C  C63  1  0.43703824  0.80625380  0.54041711  1.0
  C  C64  1  0.56075372  0.18697788  0.46172637  1.0
  C  C65  1  0.66545414  0.48237523  0.50153387  1.0
  C  C66  1  0.34579140  0.49392595  0.49492528  1.0
  C  C67  1  0.50166218  0.84353866  0.50628635  1.0
  C  C68  1  0.50623566  0.15284345  0.50906069  1.0
  C  C69  1  0.56492361  0.80490893  0.47034541  1.0
  C  C70  1  0.45220969  0.19445579  0.55149356  1.0
  C  C71  1  0.56128742  0.72971980  0.46799603  1.0
  C  C72  1  0.52721884  0.48183903  0.82129138  1.0
  C  C73  1  0.45523597  0.26961755  0.54725174  1.0
  C  C74  1  0.54802297  0.95890946  0.55788766  1.0
  C  C75  1  0.45702094  0.03752182  0.46118621  1.0
  C  C76  1  0.54899415  0.03406229  0.55860263  1.0
  C  C77  1  0.45588257  0.96240090  0.46053987  1.0
  C  C78  1  0.50395277  0.07350495  0.51006025  1.0
  C  C79  1  0.50176215  0.92292773  0.50865398  1.0
  C  C80  1  0.02828037  0.56279625  0.47230921  1.0
  C  C81  1  0.98355029  0.43307133  0.52671071  1.0
  C  C82  1  0.97787127  0.50340132  0.43277775  1.0
  C  C83  1  0.52237112  0.52517663  0.16777396  1.0
  C  C84  1  0.03386144  0.49267037  0.56606649  1.0
  C  C85  1  0.75610109  0.48333533  0.50228414  1.0
  C  C86  1  0.25543492  0.50025008  0.49650624  1.0
  C  C87  1  0.97038791  0.55189941  0.53861647  1.0
  C  C88  1  0.04095200  0.44394749  0.46021474  1.0
  C  C89  1  0.92006456  0.49223927  0.50003735  1.0
  C  C90  1  0.09136411  0.50343025  0.49880781  1.0
  C  C91  1  0.83215756  0.48695428  0.50080527  1.0
  C  C92  1  0.17940251  0.50527883  0.49823286  1.0
  C  C93  1  0.54223540  0.49089322  0.74987727  1.0
  C  C94  1  0.44514063  0.48900625  0.84973940  1.0
  C  C95  1  0.54294148  0.52522579  0.23801822  1.0
  C  C96  1  0.00237702  0.51993436  0.31283434  1.0
  C  C97  1  0.01323547  0.47989430  0.68716118  1.0
  C  C98  1  0.37387987  0.85082026  0.64553631  1.0
  C  C99  1  0.69748838  0.14129588  0.43474654  1.0
  C  C100  1  0.63109010  0.69145631  0.36203215  1.0
  C  C101  1  0.40957594  0.31667601  0.65869031  1.0
  C  C102  1  0.65644086  0.41637532  0.71192236  1.0
  C  C103  1  0.67314795  0.51678571  0.29691254  1.0
  C  C104  1  0.64890117  0.52203867  0.87623413  1.0
  C  C105  1  0.44867388  0.49271095  0.14678189  1.0
  C  C106  1  0.65019879  0.52558970  0.09990146  1.0
  C  C107  1  0.24797183  0.45385603  0.84145283  1.0
  C  C108  1  0.30489306  0.36087557  0.18475440  1.0
  C  C109  1  0.45040818  0.66572875  0.92655840  1.0
  C  C110  1  0.54787819  0.33604525  0.07408493  1.0
  C  C111  1  0.30659744  0.62282342  0.08755049  1.0
  C  C112  1  0.41054935  0.31593021  0.90804410  1.0
  C  C113  1  0.37822532  0.50430292  0.80619831  1.0
  C  C114  1  0.39292986  0.46305715  0.19601887  1.0
  C  C115  1  0.39393812  0.51184956  0.73470747  1.0
  N  N116  1  0.49934956  0.69436291  0.50190126  1.0
  N  N117  1  0.50656752  0.30166099  0.50013414  1.0
  Cl  Cl118  1  0.36187354  0.68551740  0.58089064  1.0
  Cl  Cl119  1  0.95391895  0.35044468  0.55835831  1.0
  Cl  Cl120  1  0.08787942  0.37502016  0.41315392  1.0
  Cl  Cl121  1  0.92376684  0.62130959  0.58522212  1.0
  Cl  Cl122  1  0.31053668  0.52627343  0.68090846  1.0
  Cl  Cl123  1  0.33686953  0.43931871  0.32726076  1.0
  Cl  Cl124  1  0.61615877  0.30376735  0.39514499  1.0
  Cl  Cl125  1  0.64851862  0.84910136  0.43266927  1.0
  Cl  Cl126  1  0.37881661  0.15351092  0.60462639  1.0
  Cl  Cl127  1  0.60422758  0.91030488  0.61666979  1.0
  Cl  Cl128  1  0.40106233  0.08612016  0.40253336  1.0
  Cl  Cl129  1  0.60594151  0.07860737  0.61862534  1.0
  Cl  Cl130  1  0.39967877  0.91800442  0.40033209  1.0
  Cl  Cl131  1  0.05758461  0.64577291  0.44146640  1.0
  O  O132  1  0.50486898  0.56656991  0.38838667  1.0
  O  O133  1  0.07052016  0.48903337  0.62847302  1.0
  O  O134  1  0.37168804  0.84353658  0.57118428  1.0
  O  O135  1  0.61013105  0.14676965  0.41727351  1.0
  O  O136  1  0.62114405  0.68854787  0.43711160  1.0
  O  O137  1  0.40408084  0.31379259  0.58411596  1.0
  O  O138  1  0.62263406  0.48789810  0.72124751  1.0
  O  O139  1  0.61722871  0.55689051  0.25392952  1.0
  O  O140  1  0.59221134  0.46469778  0.86389262  1.0
  O  O141  1  0.57191408  0.55985869  0.11912205  1.0
  O  O142  1  0.29845217  0.51621500  0.83337983  1.0
  O  O143  1  0.49437265  0.44827869  0.60052605  1.0
  O  O144  1  0.31961107  0.43592119  0.17260582  1.0
  O  O145  1  0.38929007  0.61000240  0.92610861  1.0
  O  O146  1  0.46243496  0.36129525  0.07232509  1.0
  O  O147  1  0.39447176  0.61308219  0.07017278  1.0
  O  O148  1  0.47671413  0.36117308  0.92894137  1.0
  O  O149  1  0.51154359  0.44516978  0.39668810  1.0
  O  O150  1  0.50479968  0.56967968  0.60206510  1.0
  O  O151  1  0.63025578  0.54307919  0.49262969  1.0
  O  O152  1  0.37598666  0.43060054  0.49442854  1.0
  O  O153  1  0.63113427  0.42175305  0.50865454  1.0
  O  O154  1  0.38494795  0.55251469  0.49424137  1.0
  O  O155  1  0.94281936  0.50779090  0.36966835  1.0
