# generated using pymatgen
data_Al3H23(C5O2)7
_symmetry_space_group_name_H-M   'P 1'
_cell_length_a   12.06687813
_cell_length_b   12.32047048
_cell_length_c   26.98995593
_cell_angle_alpha   82.77308262
_cell_angle_beta   82.48085646
_cell_angle_gamma   62.99272263
_symmetry_Int_Tables_number   1
_chemical_formula_structural   Al3H23(C5O2)7
_chemical_formula_sum   'Al6 H46 C70 O28'
_cell_volume   3534.24687739
_cell_formula_units_Z   2
loop_
 _symmetry_equiv_pos_site_id
 _symmetry_equiv_pos_as_xyz
  1  'x, y, z'
loop_
 _atom_site_type_symbol
 _atom_site_label
 _atom_site_symmetry_multiplicity
 _atom_site_fract_x
 _atom_site_fract_y
 _atom_site_fract_z
 _atom_site_occupancy
  Al  Al0  1  0.40203927  0.40344808  0.50963900  1.0
  Al  Al1  1  0.66155612  0.42133517  0.49565945  1.0
  Al  Al2  1  0.42361469  0.65601299  0.49711590  1.0
  Al  Al3  1  0.93259351  0.93441946  0.97852516  1.0
  Al  Al4  1  0.91377021  0.68022564  0.99550754  1.0
  Al  Al5  1  0.67460068  0.91333346  0.99410179  1.0
  H  H6  1  0.36175274  0.66035238  0.27067144  1.0
  H  H7  1  0.79163824  0.26597582  0.26622143  1.0
  H  H8  1  0.23857589  0.80992677  0.26978494  1.0
  H  H9  1  0.86808240  0.10627810  0.27954549  1.0
  H  H10  1  0.78898333  0.23916888  0.18202415  1.0
  H  H11  1  0.55511791  0.37597857  0.26968369  1.0
  H  H12  1  0.55162466  0.34216164  0.18660381  1.0
  H  H13  1  0.87066711  0.08005956  0.19489866  1.0
  H  H14  1  0.48410074  0.73335589  0.80274901  1.0
  H  H15  1  0.46732532  0.71577823  0.71912667  1.0
  H  H16  1  0.73830478  0.78644679  0.67975805  1.0
  H  H17  1  0.33982362  0.63162307  0.19080832  1.0
  H  H18  1  0.57429039  0.85090093  0.69117566  1.0
  H  H19  1  0.59190406  0.86874181  0.77469442  1.0
  H  H20  1  0.97757573  0.73398425  0.30918671  1.0
  H  H21  1  0.75611267  0.80254703  0.76325106  1.0
  H  H22  1  0.79131342  0.46104305  0.71182559  1.0
  H  H23  1  0.86798795  0.55332329  0.69173040  1.0
  H  H24  1  0.81105741  0.47847780  0.79513629  1.0
  H  H25  1  0.55667366  0.55565976  0.72763326  1.0
  H  H26  1  0.57285198  0.57330234  0.81111520  1.0
  H  H27  1  0.88423881  0.57390457  0.77508157  1.0
  H  H28  1  0.10458263  0.52833743  0.22083747  1.0
  H  H29  1  0.02505838  0.85114032  0.29537707  1.0
  H  H30  1  0.98748888  0.86047393  0.21180733  1.0
  H  H31  1  0.95234650  0.73527951  0.22476561  1.0
  H  H32  1  0.30913866  0.48512966  0.28247500  1.0
  H  H33  1  0.26338300  0.48622187  0.20148566  1.0
  H  H34  1  0.06581554  0.95434284  0.16250857  1.0
  H  H35  1  0.11963873  0.96374375  0.21955696  1.0
  H  H36  1  0.16849466  0.02060734  0.16171946  1.0
  H  H37  1  0.34443958  0.82688246  0.17984194  1.0
  H  H38  1  0.27147537  0.80402132  0.13250028  1.0
  H  H39  1  0.46925371  0.25495630  0.20684390  1.0
  H  H40  1  0.17652162  0.33549320  0.26423631  1.0
  H  H41  1  0.28552196  0.29118231  0.31005131  1.0
  H  H42  1  0.13431218  0.30266445  0.32786512  1.0
  H  H43  1  0.15251935  0.48279592  0.35292135  1.0
  H  H44  1  0.03916785  0.52850885  0.30932718  1.0
  H  H45  1  0.46727468  0.29413073  0.28961459  1.0
  H  H46  1  0.74113053  0.98830391  0.30736825  1.0
  H  H47  1  0.57665956  0.06560803  0.30988592  1.0
  H  H48  1  0.58615120  0.02672826  0.22630547  1.0
  H  H49  1  0.75081390  0.95513241  0.22313871  1.0
  H  H50  1  0.28705443  0.30519572  0.55212331  1.0
  H  H51  1  0.04951919  0.03104861  0.99580431  1.0
  C  C52  1  0.62124937  0.28101098  0.43511621  1.0
  C  C53  1  0.25637173  0.71160171  0.20454179  1.0
  C  C54  1  0.14564892  0.68204452  0.19951931  1.0
  C  C55  1  0.61607070  0.61435768  0.41752534  1.0
  C  C56  1  0.18198335  0.55077524  0.22350801  1.0
  C  C57  1  0.20839856  0.54059830  0.27902302  1.0
  C  C58  1  0.12319301  0.69027520  0.14749296  1.0
  C  C59  1  0.20067066  0.66321739  0.34616626  1.0
  C  C60  1  0.22586132  0.65174295  0.38925938  1.0
  C  C61  1  0.55225540  0.28884874  0.26739849  1.0
  C  C62  1  0.66232320  0.06199076  0.28873950  1.0
  C  C63  1  0.66086406  0.66611031  0.26854133  1.0
  C  C64  1  0.66743157  0.03876309  0.23326648  1.0
  C  C65  1  0.68493017  0.10218529  0.10313766  1.0
  C  C66  1  0.66666667  0.18465347  0.29195820  1.0
  C  C67  1  0.27776806  0.61902495  0.43684177  1.0
  C  C68  1  0.55238506  0.26543223  0.21242840  1.0
  C  C69  1  0.67018838  0.14778819  0.19830540  1.0
  C  C70  1  0.78744043  0.16182408  0.20674430  1.0
  C  C71  1  0.78697188  0.18046358  0.26236614  1.0
  C  C72  1  0.67495592  0.12484793  0.14651997  1.0
  C  C73  1  0.66020954  0.20796174  0.34381951  1.0
  C  C74  1  0.65137882  0.65308181  0.31883975  1.0
  C  C75  1  0.64973455  0.23185271  0.38704380  1.0
  C  C76  1  0.55547662  0.64356953  0.73214367  1.0
  C  C77  1  0.66201035  0.77812862  0.70431204  1.0
  C  C78  1  0.67334609  0.78951237  0.75972352  1.0
  C  C79  1  0.61554663  0.28199449  0.57719695  1.0
  C  C80  1  0.70048556  0.69463955  0.88764878  1.0
  C  C81  1  0.66587354  0.65291054  0.69837956  1.0
  C  C82  1  0.56641426  0.65512901  0.78759500  1.0
  C  C83  1  0.68426228  0.67218621  0.79213527  1.0
  C  C84  1  0.80119936  0.56129854  0.77158128  1.0
  C  C85  1  0.64131608  0.64012579  0.36482014  1.0
  C  C86  1  0.78968830  0.54917766  0.71629215  1.0
  C  C87  1  0.69313170  0.68400735  0.84409391  1.0
  C  C88  1  0.65453807  0.64285879  0.64648141  1.0
  C  C89  1  0.64500359  0.63373739  0.60299283  1.0
  C  C90  1  0.10822184  0.69094363  0.86348616  1.0
  C  C91  1  0.62133261  0.61079976  0.55578561  1.0
  C  C92  1  0.13258293  0.67832866  0.81839580  1.0
  C  C93  1  0.15661289  0.66697418  0.76896793  1.0
  C  C94  1  0.17627122  0.65893942  0.72323833  1.0
  C  C95  1  0.20107527  0.64913477  0.67373169  1.0
  C  C96  1  0.26521791  0.71614264  0.26081351  1.0
  C  C97  1  0.22633392  0.63960142  0.62847999  1.0
  C  C98  1  0.69117545  0.10284632  0.86212985  1.0
  C  C99  1  0.68212456  0.12841290  0.81694860  1.0
  C  C100  1  0.67300975  0.15470403  0.76750847  1.0
  C  C101  1  0.66589316  0.17710922  0.72184535  1.0
  C  C102  1  0.65560143  0.20412231  0.67249198  1.0
  C  C103  1  0.27817916  0.61401091  0.57783867  1.0
  C  C104  1  0.64444184  0.23100965  0.62747123  1.0
  C  C105  1  0.05522779  0.72289060  0.05558247  1.0
  C  C106  1  0.71466109  0.72551458  0.07324204  1.0
  C  C107  1  0.04211524  0.76131428  0.28468304  1.0
  C  C108  1  0.71518035  0.05454940  0.05468287  1.0
  C  C109  1  0.05737914  0.72188629  0.91377901  1.0
  C  C110  1  0.72269623  0.71851367  0.93494163  1.0
  C  C111  1  0.71744594  0.05332207  0.91275294  1.0
  C  C112  1  0.68829346  0.70057809  0.12591764  1.0
  C  C113  1  0.67788397  0.68881659  0.17192656  1.0
  C  C114  1  0.66815485  0.67669537  0.22223521  1.0
  C  C115  1  0.25908334  0.82246911  0.17220743  1.0
  C  C116  1  0.14692539  0.94662188  0.17969275  1.0
  C  C117  1  0.14015893  0.47798710  0.31372669  1.0
  C  C118  1  0.02224422  0.76687146  0.22888593  1.0
  C  C119  1  0.18638102  0.34468646  0.30324370  1.0
  C  C120  1  0.10171679  0.69885745  0.10403455  1.0
  C  C121  1  0.17825959  0.66991897  0.29418893  1.0
  O  O122  1  0.30363696  0.51242784  0.45625107  1.0
  O  O123  1  0.63724828  0.82625284  0.05275739  1.0
  O  O124  1  0.63184543  0.03448860  0.03720929  1.0
  O  O125  1  0.51587859  0.30196014  0.45763237  1.0
  O  O126  1  0.82076748  0.03557159  0.92631525  1.0
  O  O127  1  0.03151138  0.82811793  0.92419141  1.0
  O  O128  1  0.03811725  0.63963629  0.94283572  1.0
  O  O129  1  0.82493791  0.64274509  0.95368015  1.0
  O  O130  1  0.64243558  0.81683522  0.95448473  1.0
  O  O131  1  0.63428350  0.02704840  0.93894782  1.0
  O  O132  1  0.83919886  0.84135791  0.98969386  1.0
  O  O133  1  0.69896844  0.51048334  0.53689460  1.0
  O  O134  1  0.70456898  0.30465443  0.45056159  1.0
  O  O135  1  0.69497600  0.51473557  0.43803104  1.0
  O  O136  1  0.51331198  0.69075549  0.43826625  1.0
  O  O137  1  0.29868111  0.69963664  0.45503968  1.0
  O  O138  1  0.29519266  0.51379135  0.56331649  1.0
  O  O139  1  0.50847036  0.30609448  0.56552666  1.0
  O  O140  1  0.70011700  0.30283390  0.54934732  1.0
  O  O141  1  0.52100239  0.68895412  0.53646855  1.0
  O  O142  1  0.30763252  0.69461238  0.55273241  1.0
  O  O143  1  0.49690846  0.49485622  0.50102064  1.0
  O  O144  1  0.82262313  0.03136758  0.03371847  1.0
  O  O145  1  0.03809016  0.82315109  0.03136917  1.0
  O  O146  1  0.02956336  0.64086848  0.04148087  1.0
  O  O147  1  0.81639032  0.64787425  0.05243052  1.0
  O  O148  1  0.31707992  0.31859317  0.51803522  1.0
  O  O149  1  0.01754277  0.01928719  0.96695546  1.0
