# generated using pymatgen
data_ZnH16C16N3O7
_symmetry_space_group_name_H-M   'P 1'
_cell_length_a   9.51721030
_cell_length_b   10.87190265
_cell_length_c   19.06863616
_cell_angle_alpha   90.06857268
_cell_angle_beta   90.42260636
_cell_angle_gamma   89.70053273
_symmetry_Int_Tables_number   1
_chemical_formula_structural   ZnH16C16N3O7
_chemical_formula_sum   'Zn2 H32 C32 N6 O14'
_cell_volume   1972.95334735
_cell_formula_units_Z   2
loop_
 _symmetry_equiv_pos_site_id
 _symmetry_equiv_pos_as_xyz
  1  'x, y, z'
loop_
 _atom_site_type_symbol
 _atom_site_label
 _atom_site_symmetry_multiplicity
 _atom_site_fract_x
 _atom_site_fract_y
 _atom_site_fract_z
 _atom_site_occupancy
  Zn  Zn0  1  0.64702243  0.49420670  0.49902301  1.0
  Zn  Zn1  1  0.35311732  0.49489511  0.50052860  1.0
  H  H2  1  0.72269528  0.54727496  0.71862639  1.0
  H  H3  1  0.27444095  0.50958233  0.72197092  1.0
  H  H4  1  0.12312831  0.34943584  0.57363428  1.0
  H  H5  1  0.87505459  0.34003455  0.56712381  1.0
  H  H6  1  0.13049683  0.30380410  0.48517539  1.0
  H  H7  1  0.88232393  0.30650769  0.47595207  1.0
  H  H8  1  0.12823578  0.56544752  0.60414530  1.0
  H  H9  1  0.87930280  0.54968835  0.60591838  1.0
  H  H10  1  0.11905871  0.67764244  0.53710672  1.0
  H  H11  1  0.86867046  0.67172743  0.54503826  1.0
  H  H12  1  0.72413320  0.59466219  0.84724508  1.0
  H  H13  1  0.27358754  0.56211916  0.85008735  1.0
  H  H14  1  0.72772628  0.56503698  0.14919433  1.0
  H  H15  1  0.27606615  0.58496398  0.15007366  1.0
  H  H16  1  0.72740295  0.51750881  0.27793445  1.0
  H  H17  1  0.27765915  0.54213312  0.27930611  1.0
  H  H18  1  0.46317240  0.07023787  0.39155787  1.0
  H  H19  1  0.27849119  0.10269923  0.46082999  1.0
  H  H20  1  0.56431652  0.87123613  0.39317058  1.0
  H  H21  1  0.30519846  0.89266190  0.44356471  1.0
  H  H22  1  0.69809655  0.91486606  0.45323764  1.0
  H  H23  1  0.28018159  0.87703324  0.53481510  1.0
  H  H24  1  0.76462582  0.93785140  0.58150446  1.0
  H  H25  1  0.50418580  0.93158596  0.66837424  1.0
  H  H26  1  0.12688525  0.61628743  0.41586088  1.0
  H  H27  1  0.87787525  0.62631519  0.42146792  1.0
  H  H28  1  0.12059665  0.45836432  0.39392868  1.0
  H  H29  1  0.87186792  0.47210595  0.39150372  1.0
  H  H30  1  0.69165733  0.10165507  0.36082314  1.0
  H  H31  1  0.32063316  0.07385254  0.60609874  1.0
  H  H32  1  0.72498849  0.17638762  0.53414252  1.0
  H  H33  1  0.54318235  0.20876752  0.62500371  1.0
  C  C34  1  0.49139360  0.25463998  0.49707001  1.0
  C  C35  1  0.49937409  0.60843851  0.93164257  1.0
  C  C36  1  0.62955592  0.55880914  0.17798023  1.0
  C  C37  1  0.37440856  0.57047566  0.17850508  1.0
  C  C38  1  0.62932014  0.53288372  0.24937857  1.0
  C  C39  1  0.37529120  0.54632056  0.24997972  1.0
  C  C40  1  0.50247624  0.52786598  0.28616892  1.0
  C  C41  1  0.50190811  0.57857623  0.14195699  1.0
  C  C42  1  0.54898760  0.06061650  0.43057571  1.0
  C  C43  1  0.33832115  0.06153636  0.50442335  1.0
  C  C44  1  0.58558720  0.92389196  0.44129784  1.0
  C  C45  1  0.34650838  0.92008499  0.49531234  1.0
  C  C46  1  0.57899864  0.06769108  0.56377047  1.0
  C  C47  1  0.48976121  0.11402767  0.50017979  1.0
  C  C48  1  0.49853163  0.87200716  0.50218187  1.0
  C  C49  1  0.49988630  0.49929012  0.63574497  1.0
  C  C50  1  0.56364591  0.92264024  0.57199716  1.0
  C  C51  1  0.08296783  0.37076670  0.52094730  1.0
  C  C52  1  0.92082261  0.36885647  0.51712358  1.0
  C  C53  1  0.08045187  0.58703051  0.55304583  1.0
  C  C54  1  0.91799366  0.58188517  0.55515343  1.0
  C  C55  1  0.08059537  0.52785562  0.43059466  1.0
  C  C56  1  0.91842540  0.53307886  0.43108801  1.0
  C  C57  1  0.50287901  0.73139321  0.50226846  1.0
  C  C58  1  0.50147538  0.50701962  0.36389006  1.0
  C  C59  1  0.62540689  0.54913791  0.74828810  1.0
  C  C60  1  0.37209390  0.52864969  0.74998766  1.0
  C  C61  1  0.62615246  0.57603952  0.81945343  1.0
  C  C62  1  0.37163128  0.55733265  0.82105243  1.0
  C  C63  1  0.49888437  0.58111920  0.85644942  1.0
  C  C64  1  0.49871885  0.52500074  0.71294181  1.0
  C  C65  1  0.50119030  0.60643031  0.06678713  1.0
  N  N66  1  0.37533919  0.62657323  0.96471464  1.0
  N  N67  1  0.62388343  0.62619774  0.96495557  1.0
  N  N68  1  0.37645425  0.62478169  0.03370336  1.0
  N  N69  1  0.62493591  0.62576222  0.03395422  1.0
  N  N70  1  0.13483678  0.49531142  0.50161048  1.0
  N  N71  1  0.86547854  0.49406779  0.50087784  1.0
  O  O72  1  0.60515929  0.30646821  0.51788755  1.0
  O  O73  1  0.38370594  0.31084925  0.47498965  1.0
  O  O74  1  0.61596006  0.51686187  0.60457096  1.0
  O  O75  1  0.38623204  0.46256253  0.60675653  1.0
  O  O76  1  0.61642926  0.67956236  0.48317965  1.0
  O  O77  1  0.39142712  0.67608820  0.52040690  1.0
  O  O78  1  0.61476856  0.46919202  0.39285591  1.0
  O  O79  1  0.38682825  0.53099857  0.39515302  1.0
  O  O80  1  0.69657945  0.87104178  0.58734678  1.0
  O  O81  1  0.46887782  0.89246618  0.62569144  1.0
  O  O82  1  0.66620022  0.13184906  0.40706563  1.0
  O  O83  1  0.26372797  0.09837785  0.56546058  1.0
  O  O84  1  0.72300491  0.09270342  0.55438183  1.0
  O  O85  1  0.53120285  0.11974120  0.62833135  1.0
