# generated using pymatgen
data_Al2H10C21S2(ClO5)2
_symmetry_space_group_name_H-M   'P 1'
_cell_length_a   6.63836416
_cell_length_b   11.10685578
_cell_length_c   12.63121418
_cell_angle_alpha   80.95058091
_cell_angle_beta   76.77237391
_cell_angle_gamma   72.92071889
_symmetry_Int_Tables_number   1
_chemical_formula_structural   Al2H10C21S2(ClO5)2
_chemical_formula_sum   'Al2 H10 C21 S2 Cl2 O10'
_cell_volume   862.55499590
_cell_formula_units_Z   1
loop_
 _symmetry_equiv_pos_site_id
 _symmetry_equiv_pos_as_xyz
  1  'x, y, z'
loop_
 _atom_site_type_symbol
 _atom_site_label
 _atom_site_symmetry_multiplicity
 _atom_site_fract_x
 _atom_site_fract_y
 _atom_site_fract_z
 _atom_site_occupancy
  Al  Al0  1  0.48564302  0.49857169  0.49890297  1.0
  Al  Al1  1  0.98779400  0.49311277  0.49890708  1.0
  H  H2  1  0.18092570  0.64931709  0.43710342  1.0
  H  H3  1  0.71101482  0.42807213  0.63332477  1.0
  H  H4  1  0.39264681  0.39738809  0.87007385  1.0
  H  H5  1  0.87509177  0.74922719  0.63030696  1.0
  H  H6  1  0.66178367  0.21835375  0.61918253  1.0
  H  H7  1  0.17572194  0.12433365  0.43534503  1.0
  H  H8  1  0.28936380  0.88880121  0.43579234  1.0
  H  H9  1  0.45238208  0.60261321  0.21624745  1.0
  H  H10  1  0.43006952  0.53830373  0.10138418  1.0
  H  H11  1  0.49206070  0.68527500  0.08216864  1.0
  C  C12  1  0.61722651  0.72453079  0.50495992  1.0
  C  C13  1  0.83211505  0.48611763  0.30553304  1.0
  C  C14  1  0.35800079  0.27035911  0.50361862  1.0
  C  C15  1  0.14469299  0.49106252  0.69764506  1.0
  C  C16  1  0.75332198  0.52508883  0.11028527  1.0
  C  C17  1  0.21974290  0.43624064  0.89295164  1.0
  C  C18  1  0.88544261  0.47850462  0.18703412  1.0
  C  C19  1  0.08776996  0.48377384  0.81710275  1.0
  C  C20  1  0.09868237  0.44660783  0.00045299  1.0
  C  C21  1  0.87805828  0.50476158  0.00417710  1.0
  C  C22  1  0.55213852  0.86338352  0.51569424  1.0
  C  C23  1  0.66422524  0.92229403  0.56757049  1.0
  C  C24  1  0.37671801  0.93591762  0.47152034  1.0
  C  C25  1  0.82657260  0.85191647  0.62642945  1.0
  C  C26  1  0.92178843  0.91082888  0.68181230  1.0
  C  C27  1  0.42651018  0.12930137  0.51330690  1.0
  C  C28  1  0.31329096  0.06811740  0.47071919  1.0
  C  C29  1  0.60096405  0.05803822  0.56554135  1.0
  C  C30  1  0.70461914  0.11595109  0.62150351  1.0
  C  C31  1  0.85961028  0.04503382  0.67934611  1.0
  C  C32  1  0.51954571  0.59197129  0.12977666  1.0
  S  S33  1  0.15392739  0.41122129  0.13028735  1.0
  S  S34  1  0.81789987  0.54089273  0.87551812  1.0
  Cl  Cl35  1  0.11335365  0.82073107  0.75484252  1.0
  Cl  Cl36  1  0.97305200  0.12041059  0.74990103  1.0
  O  O37  1  0.46602618  0.67210363  0.51404163  1.0
  O  O38  1  0.99015842  0.46487189  0.35409615  1.0
  O  O39  1  0.15710113  0.32290306  0.51745136  1.0
  O  O40  1  0.34198873  0.47369935  0.65180752  1.0
  O  O41  1  0.50408658  0.32830239  0.48165746  1.0
  O  O42  1  0.98622631  0.51470448  0.64855711  1.0
  O  O43  1  0.81777545  0.66908247  0.48389803  1.0
  O  O44  1  0.63495349  0.51495263  0.35206043  1.0
  O  O45  1  0.22603566  0.55779426  0.45064624  1.0
  O  O46  1  0.73855962  0.44143337  0.55409872  1.0
