# generated using pymatgen
data_Zn2H18C41N2Cl3O11
_symmetry_space_group_name_H-M   'P 1'
_cell_length_a   13.25259454
_cell_length_b   13.83538796
_cell_length_c   28.58765826
_cell_angle_alpha   89.90972206
_cell_angle_beta   89.75029287
_cell_angle_gamma   89.86542265
_symmetry_Int_Tables_number   1
_chemical_formula_structural   Zn2H18C41N2Cl3O11
_chemical_formula_sum   'Zn4 H36 C82 N4 Cl6 O22'
_cell_volume   5241.61332771
_cell_formula_units_Z   2
loop_
 _symmetry_equiv_pos_site_id
 _symmetry_equiv_pos_as_xyz
  1  'x, y, z'
loop_
 _atom_site_type_symbol
 _atom_site_label
 _atom_site_symmetry_multiplicity
 _atom_site_fract_x
 _atom_site_fract_y
 _atom_site_fract_z
 _atom_site_occupancy
  Zn  Zn0  1  0.50940429  0.40321739  0.49653943  1.0
  Zn  Zn1  1  0.48853514  0.60243253  0.50128087  1.0
  Zn  Zn2  1  0.50964636  0.59748435  0.03727901  1.0
  Zn  Zn3  1  0.48987082  0.39834512  0.03261901  1.0
  H  H4  1  0.39849049  0.25603407  0.54858700  1.0
  H  H5  1  0.32293599  0.10180492  0.58357108  1.0
  H  H6  1  0.61933432  0.24530712  0.44591991  1.0
  H  H7  1  0.60117675  0.74878895  0.45014953  1.0
  H  H8  1  0.67891454  0.90290140  0.41619366  1.0
  H  H9  1  0.38114860  0.75944584  0.55308900  1.0
  H  H10  1  0.50549123  0.62668571  0.18965009  1.0
  H  H11  1  0.49898404  0.31914863  0.17609122  1.0
  H  H12  1  0.50605041  0.37256711  0.34413089  1.0
  H  H13  1  0.49894425  0.68011014  0.35775085  1.0
  H  H14  1  0.49686488  0.65455174  0.64815722  1.0
  H  H15  1  0.49808631  0.74543706  0.72310388  1.0
  H  H16  1  0.50138913  0.34482536  0.64789060  1.0
  H  H17  1  0.49738507  0.34497616  0.88572567  1.0
  H  H18  1  0.49762452  0.25408795  0.81076439  1.0
  H  H19  1  0.50334047  0.65466697  0.88595489  1.0
  H  H20  1  0.83385765  0.37212412  0.49816121  1.0
  H  H21  1  0.80163781  0.67950194  0.50061938  1.0
  H  H22  1  0.16476577  0.62720578  0.50055846  1.0
  H  H23  1  0.19702737  0.31981027  0.49885229  1.0
  H  H24  1  0.39847158  0.74543186  0.98557904  1.0
  H  H25  1  0.32361953  0.90025230  0.95080733  1.0
  H  H26  1  0.61969916  0.75468001  0.08719848  1.0
  H  H27  1  0.60230964  0.25131376  0.08333986  1.0
  H  H28  1  0.68010129  0.09667205  0.11677960  1.0
  H  H29  1  0.38304498  0.24218742  0.98093283  1.0
  H  H30  1  0.83404259  0.62939465  0.03596319  1.0
  H  H31  1  0.80336902  0.32204568  0.03383472  1.0
  H  H32  1  0.16628688  0.37427844  0.03425806  1.0
  H  H33  1  0.19687677  0.68170709  0.03601133  1.0
  H  H34  1  0.50035465  0.71858480  0.23583513  1.0
  H  H35  1  0.50043305  0.28085026  0.29800996  1.0
  H  H36  1  0.93406888  0.28063677  0.50052600  1.0
  H  H37  1  0.06454607  0.71896335  0.50067618  1.0
  H  H38  1  0.93374257  0.72080437  0.03483335  1.0
  H  H39  1  0.06638703  0.28249267  0.03547300  1.0
  C  C40  1  0.49796288  0.50091603  0.59096987  1.0
  C  C41  1  0.30160663  0.48866696  0.49963000  1.0
  C  C42  1  0.50168374  0.51323034  0.40710189  1.0
  C  C43  1  0.69695273  0.51167209  0.49872754  1.0
  C  C44  1  0.49945310  0.49868556  0.94289485  1.0
  C  C45  1  0.30242114  0.51295940  0.03478302  1.0
  C  C46  1  0.50160174  0.48615557  0.12672176  1.0
  C  C47  1  0.69782813  0.48997077  0.03509082  1.0
  C  C48  1  0.44533527  0.20929962  0.52672429  1.0
  C  C49  1  0.43889906  0.10824761  0.52921769  1.0
  C  C50  1  0.37144993  0.05945630  0.56048914  1.0
  C  C51  1  0.56995426  0.20336218  0.46873160  1.0
  C  C52  1  0.57016799  0.10206749  0.46804134  1.0
  C  C53  1  0.63390049  0.04420575  0.43809313  1.0
  C  C54  1  0.55485893  0.79567547  0.47219312  1.0
  C  C55  1  0.56209634  0.89667230  0.47009631  1.0
  C  C56  1  0.63010010  0.94538202  0.43908829  1.0
  C  C57  1  0.43041426  0.80157145  0.53028868  1.0
  C  C58  1  0.43082143  0.90282999  0.53128247  1.0
  C  C59  1  0.36761412  0.96061816  0.56146758  1.0
  C  C60  1  0.50273128  0.05351094  0.49907345  1.0
  C  C61  1  0.49831473  0.95137565  0.50027579  1.0
  C  C62  1  0.50465482  0.55658784  0.20728774  1.0
  C  C63  1  0.50182659  0.38210360  0.19879601  1.0
  C  C64  1  0.50315427  0.37057707  0.24673587  1.0
  C  C65  1  0.50457307  0.45229999  0.27734041  1.0
  C  C66  1  0.50501239  0.44268885  0.32650164  1.0
  C  C67  1  0.50189453  0.61718260  0.33500621  1.0
  C  C68  1  0.50308095  0.62876688  0.28707214  1.0
  C  C69  1  0.50442845  0.54703815  0.25645159  1.0
  C  C70  1  0.50314056  0.47560771  0.17891635  1.0
  C  C71  1  0.50336342  0.52368059  0.35488907  1.0
  C  C72  1  0.49779075  0.58711522  0.66788774  1.0
  C  C73  1  0.49865480  0.58847342  0.71690283  1.0
  C  C74  1  0.49878970  0.67745004  0.74242111  1.0
  C  C75  1  0.49995368  0.41187388  0.66772087  1.0
  C  C76  1  0.49938485  0.40978661  0.71672606  1.0
  C  C77  1  0.49886083  0.32169386  0.74367087  1.0
  C  C78  1  0.49847845  0.41241194  0.86598194  1.0
  C  C79  1  0.49885269  0.41104142  0.81696558  1.0
  C  C80  1  0.49835258  0.32206557  0.79143294  1.0
  C  C81  1  0.50148141  0.58763659  0.86612622  1.0
  C  C82  1  0.50043016  0.58972025  0.81713140  1.0
  C  C83  1  0.49990382  0.67780653  0.79018401  1.0
  C  C84  1  0.49865563  0.49968773  0.64349503  1.0
  C  C85  1  0.49918090  0.49913946  0.74208503  1.0
  C  C86  1  0.49996785  0.49984227  0.89036989  1.0
  C  C87  1  0.49949544  0.50037249  0.79177350  1.0
  C  C88  1  0.87131375  0.44233446  0.49887714  1.0
  C  C89  1  0.85135160  0.61679403  0.50001380  1.0
  C  C90  1  0.95468427  0.62870914  0.50024140  1.0
  C  C91  1  0.02137677  0.54713950  0.49996357  1.0
  C  C92  1  0.12726337  0.55700693  0.50017878  1.0
  C  C93  1  0.14738974  0.38257703  0.49933283  1.0
  C  C94  1  0.04400163  0.37070299  0.49946318  1.0
  C  C95  1  0.97724305  0.45222562  0.49944976  1.0
  C  C96  1  0.80938048  0.52314057  0.49915058  1.0
  C  C97  1  0.18928637  0.47627931  0.49972430  1.0
  C  C98  1  0.44561448  0.79186021  0.00718622  1.0
  C  C99  1  0.43959706  0.89296387  0.00466743  1.0
  C  C100  1  0.37230874  0.94224432  0.97366911  1.0
  C  C101  1  0.57033595  0.79698079  0.06463676  1.0
  C  C102  1  0.57088965  0.89827479  0.06530671  1.0
  C  C103  1  0.63479332  0.95568898  0.09499651  1.0
  C  C104  1  0.55617535  0.20474223  0.06134177  1.0
  C  C105  1  0.56331048  0.10371276  0.06334460  1.0
  C  C106  1  0.63118895  0.05454163  0.09406763  1.0
  C  C107  1  0.43210511  0.19970118  0.00356783  1.0
  C  C108  1  0.43225403  0.09845491  0.00257894  1.0
  C  C109  1  0.36886890  0.04110801  0.97265981  1.0
  C  C110  1  0.50362433  0.94727616  0.03453674  1.0
  C  C111  1  0.49950350  0.04944917  0.03336013  1.0
  C  C112  1  0.87185373  0.55917993  0.03544924  1.0
  C  C113  1  0.85274832  0.38474834  0.03447573  1.0
  C  C114  1  0.95615320  0.37279847  0.03471197  1.0
  C  C115  1  0.02246711  0.45434395  0.03491080  1.0
  C  C116  1  0.12843205  0.44448032  0.03470073  1.0
  C  C117  1  0.14760549  0.61891737  0.03550341  1.0
  C  C118  1  0.04415168  0.63077001  0.03542329  1.0
  C  C119  1  0.97784072  0.54924764  0.03523914  1.0
  C  C120  1  0.81030530  0.47841321  0.03500222  1.0
  C  C121  1  0.19001907  0.52524301  0.03501650  1.0
  N  N122  1  0.50906151  0.25404553  0.49730128  1.0
  N  N123  1  0.49064572  0.75110139  0.50139698  1.0
  N  N124  1  0.50920061  0.74669852  0.03636576  1.0
  N  N125  1  0.49223032  0.24973657  0.03233049  1.0
  Cl  Cl126  1  0.28577411  0.90316616  0.59938977  1.0
  Cl  Cl127  1  0.71631113  0.10152497  0.40037733  1.0
  Cl  Cl128  1  0.50025431  0.78789802  0.81930607  1.0
  Cl  Cl129  1  0.49854433  0.21158935  0.71455154  1.0
  Cl  Cl130  1  0.28731084  0.09912617  0.93500643  1.0
  Cl  Cl131  1  0.71717086  0.89776701  0.13230974  1.0
  O  O132  1  0.50657797  0.42068732  0.56962548  1.0
  O  O133  1  0.48864461  0.58374602  0.57180802  1.0
  O  O134  1  0.33585433  0.57462612  0.50066943  1.0
  O  O135  1  0.35464468  0.41166577  0.49845624  1.0
  O  O136  1  0.49409502  0.59162107  0.43023818  1.0
  O  O137  1  0.50751631  0.42854911  0.42454786  1.0
  O  O138  1  0.66179616  0.42591540  0.49644237  1.0
  O  O139  1  0.64470675  0.58881860  0.50078968  1.0
  O  O140  1  0.50817829  0.57886479  0.96421248  1.0
  O  O141  1  0.49004415  0.41591518  0.96209549  1.0
  O  O142  1  0.33714829  0.42703830  0.03378835  1.0
  O  O143  1  0.35501918  0.59003632  0.03561130  1.0
  O  O144  1  0.49482566  0.40773331  0.10360564  1.0
  O  O145  1  0.50681538  0.57084669  0.10926392  1.0
  O  O146  1  0.66225596  0.57573743  0.03751429  1.0
  O  O147  1  0.64593745  0.41291198  0.03270671  1.0
  O  O148  1  0.50222707  0.72115013  0.26987974  1.0
  O  O149  1  0.50242948  0.27822776  0.26395744  1.0
  O  O150  1  0.00753464  0.27823988  0.49949543  1.0
  O  O151  1  0.99106025  0.72119257  0.50078544  1.0
  O  O152  1  0.00720372  0.72321132  0.03554556  1.0
  O  O153  1  0.99293148  0.28029266  0.03466594  1.0
