# generated using pymatgen
data_AlH6C24(BrO)6
_symmetry_space_group_name_H-M   'P 1'
_cell_length_a   4.06315930
_cell_length_b   29.18865472
_cell_length_c   29.19227525
_cell_angle_alpha   119.99787746
_cell_angle_beta   90.00244928
_cell_angle_gamma   89.99879902
_symmetry_Int_Tables_number   1
_chemical_formula_structural   AlH6C24(BrO)6
_chemical_formula_sum   'Al2 H12 C48 Br12 O12'
_cell_volume   2998.37393358
_cell_formula_units_Z   2
loop_
 _symmetry_equiv_pos_site_id
 _symmetry_equiv_pos_as_xyz
  1  'x, y, z'
loop_
 _atom_site_type_symbol
 _atom_site_label
 _atom_site_symmetry_multiplicity
 _atom_site_fract_x
 _atom_site_fract_y
 _atom_site_fract_z
 _atom_site_occupancy
  Al  Al0  1  0.99985746  0.00001276  0.50002308  1.0
  Al  Al1  1  0.99999127  0.33332821  0.16667197  1.0
  H  H2  1  0.34324389  0.57968561  0.36054827  1.0
  H  H3  1  0.65750106  0.57970719  0.21913087  1.0
  H  H4  1  0.65873920  0.75380453  0.44758360  1.0
  H  H5  1  0.34158628  0.75378398  0.30626131  1.0
  H  H6  1  0.34305566  0.13936339  0.21902501  1.0
  H  H7  1  0.65725554  0.28075977  0.36050291  1.0
  H  H8  1  0.65862308  0.05239215  0.30622280  1.0
  H  H9  1  0.34144473  0.19374286  0.44749944  1.0
  H  H10  1  0.34375611  0.28091479  0.92033057  1.0
  H  H11  1  0.65795470  0.13945755  0.92029901  1.0
  H  H12  1  0.65901368  0.19380339  0.74619636  1.0
  H  H13  1  0.34184644  0.05252397  0.74626506  1.0
  C  C14  1  0.49986260  0.04066573  0.58131506  1.0
  C  C15  1  0.49984927  0.91872211  0.45938684  1.0
  C  C16  1  0.49985287  0.04064946  0.45936542  1.0
  C  C17  1  0.50003374  0.41470168  0.20733199  1.0
  C  C18  1  0.50000308  0.29263746  0.20734938  1.0
  C  C19  1  0.49999823  0.29263069  0.08529796  1.0
  C  C20  1  0.50012961  0.47446237  0.23720529  1.0
  C  C21  1  0.41135679  0.50347746  0.29086098  1.0
  C  C22  1  0.41242242  0.55848389  0.31898928  1.0
  C  C23  1  0.50047858  0.58666255  0.29332777  1.0
  C  C24  1  0.58831840  0.55849368  0.23948268  1.0
  C  C25  1  0.58900069  0.50348398  0.21257703  1.0
  C  C26  1  0.50052262  0.64264495  0.32133394  1.0
  C  C27  1  0.50035224  0.69088011  0.34546224  1.0
  C  C28  1  0.50013294  0.74686291  0.37346108  1.0
  C  C29  1  0.58873955  0.77501896  0.42727367  1.0
  C  C30  1  0.58922383  0.83001640  0.45416154  1.0
  C  C31  1  0.49990599  0.85900415  0.42952224  1.0
  C  C32  1  0.41067694  0.83000702  0.37590230  1.0
  C  C33  1  0.41144240  0.77500811  0.34779454  1.0
  C  C34  1  0.49999625  0.26273546  0.23720657  1.0
  C  C35  1  0.41120954  0.20907764  0.21254421  1.0
  C  C36  1  0.41224712  0.18093004  0.23940218  1.0
  C  C37  1  0.50022658  0.20658030  0.29324825  1.0
  C  C38  1  0.58810807  0.26043485  0.31894585  1.0
  C  C39  1  0.58882744  0.28735222  0.29085756  1.0
  C  C40  1  0.50021863  0.17856592  0.32122277  1.0
  C  C41  1  0.50011978  0.15448740  0.34537659  1.0
  C  C42  1  0.50004045  0.12652208  0.37338797  1.0
  C  C43  1  0.58868418  0.07270928  0.34774682  1.0
  C  C44  1  0.58922493  0.04584097  0.37587539  1.0
  C  C45  1  0.49991140  0.07048895  0.42949548  1.0
  C  C46  1  0.41070120  0.12411510  0.45410436  1.0
  C  C47  1  0.41137903  0.15220653  0.42719706  1.0
  C  C48  1  0.50017992  0.26275460  0.02554610  1.0
  C  C49  1  0.41153007  0.28741005  0.99653759  1.0
  C  C50  1  0.41283307  0.26055241  0.94153615  1.0
  C  C51  1  0.50105980  0.20671493  0.91335391  1.0
  C  C52  1  0.58875175  0.18102109  0.94152003  1.0
  C  C53  1  0.58918611  0.20910591  0.99652048  1.0
  C  C54  1  0.50122060  0.17873939  0.85736364  1.0
  C  C55  1  0.50086718  0.15463182  0.80914510  1.0
  C  C56  1  0.50045947  0.12663293  0.75316371  1.0
  C  C57  1  0.58895554  0.15227795  0.72498751  1.0
  C  C58  1  0.58937521  0.12416504  0.66999631  1.0
  C  C59  1  0.50000331  0.07053787  0.64102452  1.0
  C  C60  1  0.41080845  0.04591662  0.67003115  1.0
  C  C61  1  0.41166140  0.07282251  0.72502794  1.0
  Br  Br62  1  0.27828473  0.46749849  0.32685243  1.0
  Br  Br63  1  0.72179427  0.46751610  0.14059384  1.0
  Br  Br64  1  0.72199207  0.86601410  0.52614055  1.0
  Br  Br65  1  0.27792137  0.86598664  0.33991280  1.0
  Br  Br66  1  0.27819511  0.17310070  0.14056772  1.0
  Br  Br67  1  0.72156190  0.35933474  0.32689974  1.0
  Br  Br68  1  0.72193165  0.97386510  0.33990584  1.0
  Br  Br69  1  0.27790023  0.16011977  0.52607546  1.0
  Br  Br70  1  0.27824532  0.35936850  0.03250754  1.0
  Br  Br71  1  0.72173526  0.17308355  0.03247579  1.0
  Br  Br72  1  0.72200918  0.16012741  0.63398663  1.0
  Br  Br73  1  0.27801488  0.97395128  0.63407157  1.0
  O  O74  1  0.26275091  0.00898161  0.45051690  1.0
  O  O75  1  0.26279206  0.04952371  0.55849673  1.0
  O  O76  1  0.26277475  0.94154094  0.49105737  1.0
  O  O77  1  0.73686751  0.04951630  0.49104912  1.0
  O  O78  1  0.73690096  0.94153704  0.45051966  1.0
  O  O79  1  0.73690548  0.00898605  0.55849388  1.0
  O  O80  1  0.26286143  0.28379966  0.10812671  1.0
  O  O81  1  0.26287139  0.39186589  0.17567837  1.0
  O  O82  1  0.26290015  0.32430970  0.21618301  1.0
  O  O83  1  0.73712088  0.32429370  0.10814331  1.0
  O  O84  1  0.73717119  0.28382080  0.17569998  1.0
  O  O85  1  0.73716477  0.39186456  0.21616338  1.0
