# generated using pymatgen
data_ZnH14C23S4NO16F
_symmetry_space_group_name_H-M   'P 1'
_cell_length_a   10.89448021
_cell_length_b   18.17738215
_cell_length_c   19.55650035
_cell_angle_alpha   90.11164666
_cell_angle_beta   90.29245718
_cell_angle_gamma   92.39010132
_symmetry_Int_Tables_number   1
_chemical_formula_structural   ZnH14C23S4NO16F
_chemical_formula_sum   'Zn2 H28 C46 S8 N2 O32 F2'
_cell_volume   3869.40634185
_cell_formula_units_Z   2
loop_
 _symmetry_equiv_pos_site_id
 _symmetry_equiv_pos_as_xyz
  1  'x, y, z'
loop_
 _atom_site_type_symbol
 _atom_site_label
 _atom_site_symmetry_multiplicity
 _atom_site_fract_x
 _atom_site_fract_y
 _atom_site_fract_z
 _atom_site_occupancy
  Zn  Zn0  1  0.50156550  0.42418131  0.49921825  1.0
  Zn  Zn1  1  0.49896579  0.57655376  0.49974946  1.0
  H  H2  1  0.49031624  0.61622645  0.71537803  1.0
  H  H3  1  0.51609777  0.38531699  0.28462108  1.0
  H  H4  1  0.49592180  0.62064964  0.28287536  1.0
  H  H5  1  0.49858786  0.38029838  0.71506940  1.0
  H  H6  1  0.49357100  0.61691960  0.84273326  1.0
  H  H7  1  0.51069766  0.38315893  0.15731510  1.0
  H  H8  1  0.49324486  0.61972699  0.15550328  1.0
  H  H9  1  0.50275554  0.37999943  0.84248536  1.0
  H  H10  1  0.63060958  0.41372355  0.93686190  1.0
  H  H11  1  0.36858733  0.58535808  0.06208222  1.0
  H  H12  1  0.63197007  0.41503583  0.06304824  1.0
  H  H13  1  0.36739649  0.58413044  0.93587930  1.0
  H  H14  1  0.66367309  0.31498574  0.55712978  1.0
  H  H15  1  0.33755548  0.68549799  0.44257076  1.0
  H  H16  1  0.35049386  0.30461618  0.43824376  1.0
  H  H17  1  0.64983715  0.69586791  0.56203695  1.0
  H  H18  1  0.67346392  0.07091543  0.44562437  1.0
  H  H19  1  0.32628440  0.92960990  0.55477000  1.0
  H  H20  1  0.33171714  0.06564673  0.55681153  1.0
  H  H21  1  0.66804773  0.93487980  0.44357671  1.0
  H  H22  1  0.89066894  0.25612733  0.50563903  1.0
  H  H23  1  0.10857635  0.74272743  0.49676546  1.0
  H  H24  1  0.05056292  0.45435898  0.69421710  1.0
  H  H25  1  0.95333449  0.54462149  0.30508899  1.0
  H  H26  1  0.77717622  0.26603907  0.64223752  1.0
  H  H27  1  0.22200541  0.73382419  0.35916710  1.0
  H  H28  1  0.18945134  0.24619261  0.38909860  1.0
  H  H29  1  0.80975003  0.75363601  0.61071518  1.0
  C  C30  1  0.50771551  0.50404914  0.36737957  1.0
  C  C31  1  0.49270479  0.49814720  0.63156164  1.0
  C  C32  1  0.57146565  0.45067801  0.96418352  1.0
  C  C33  1  0.42772659  0.54840138  0.03476775  1.0
  C  C34  1  0.57227134  0.45145633  0.03527589  1.0
  C  C35  1  0.42695241  0.54766178  0.96368366  1.0
  C  C36  1  0.50055132  0.50035397  0.07197163  1.0
  C  C37  1  0.49885293  0.49885986  0.92699489  1.0
  C  C38  1  0.59450469  0.27912805  0.53202268  1.0
  C  C39  1  0.40623590  0.72138922  0.46801656  1.0
  C  C40  1  0.41843550  0.27332018  0.46528262  1.0
  C  C41  1  0.58212801  0.72721974  0.53486339  1.0
  C  C42  1  0.59643763  0.20266962  0.53523367  1.0
  C  C43  1  0.40361202  0.79783103  0.46525701  1.0
  C  C44  1  0.41435491  0.19688587  0.46578595  1.0
  C  C45  1  0.58597979  0.80366320  0.53452659  1.0
  C  C46  1  0.50508494  0.15837183  0.50154306  1.0
  C  C47  1  0.49492214  0.84215720  0.49894305  1.0
  C  C48  1  0.59761152  0.03996351  0.46977266  1.0
  C  C49  1  0.40214502  0.96056021  0.53062631  1.0
  C  C50  1  0.40540955  0.03699835  0.53216624  1.0
  C  C51  1  0.59435737  0.96352984  0.46823990  1.0
  C  C52  1  0.49652967  0.92356958  0.49876208  1.0
  C  C53  1  0.50329518  0.07695344  0.50170137  1.0
  C  C54  1  0.26034128  0.48915847  0.49267391  1.0
  C  C55  1  0.73977648  0.51006722  0.50720901  1.0
  C  C56  1  0.02179165  0.42479409  0.49300443  1.0
  C  C57  1  0.97809074  0.57399764  0.50742104  1.0
  C  C58  1  0.95511952  0.46131707  0.55536820  1.0
  C  C59  1  0.04480389  0.53747105  0.44518310  1.0
  C  C60  1  0.94423240  0.47322890  0.44405349  1.0
  C  C61  1  0.05571606  0.52563532  0.55647649  1.0
  C  C62  1  0.87754959  0.50898368  0.50565651  1.0
  C  C63  1  0.12246098  0.48975872  0.49511822  1.0
  C  C64  1  0.49197596  0.56482177  0.74384805  1.0
  C  C65  1  0.51177587  0.43629736  0.25567824  1.0
  C  C66  1  0.49904687  0.56900435  0.25467452  1.0
  C  C67  1  0.49802683  0.43177572  0.74369432  1.0
  C  C68  1  0.49316282  0.56483182  0.81490975  1.0
  C  C69  1  0.50959456  0.43550989  0.18462043  1.0
  C  C70  1  0.49669313  0.56806563  0.18361476  1.0
  C  C71  1  0.50087117  0.43198246  0.81477917  1.0
  C  C72  1  0.49779987  0.49847166  0.85161021  1.0
  C  C73  1  0.50214979  0.50132985  0.14733739  1.0
  C  C74  1  0.49383755  0.49824031  0.70764484  1.0
  C  C75  1  0.50663822  0.50308889  0.29130042  1.0
  S  S76  1  0.05034048  0.32911901  0.48301597  1.0
  S  S77  1  0.94843850  0.66960303  0.51671871  1.0
  S  S78  1  0.89527337  0.42196991  0.63209933  1.0
  S  S79  1  0.10633252  0.57686095  0.36892125  1.0
  S  S80  1  0.72240983  0.16831786  0.58413673  1.0
  S  S81  1  0.27618561  0.83167358  0.41725744  1.0
  S  S82  1  0.29062877  0.15025484  0.41873111  1.0
  S  S83  1  0.71010670  0.85020075  0.58131005  1.0
  N  N84  1  0.50700837  0.31319139  0.49786693  1.0
  N  N85  1  0.49390795  0.68738962  0.50199360  1.0
  O  O86  1  0.51996460  0.44280848  0.39821981  1.0
  O  O87  1  0.50385273  0.56038570  0.60147093  1.0
  O  O88  1  0.48053847  0.43605429  0.60119376  1.0
  O  O89  1  0.49649982  0.56593194  0.39705055  1.0
  O  O90  1  0.30968755  0.42810869  0.48848157  1.0
  O  O91  1  0.69147361  0.57089058  0.49821064  1.0
  O  O92  1  0.68999970  0.44643540  0.51471843  1.0
  O  O93  1  0.30904020  0.55348155  0.49715233  1.0
  O  O94  1  0.11196107  0.32244600  0.41793318  1.0
  O  O95  1  0.10506099  0.30246247  0.54447256  1.0
  O  O96  1  0.91483373  0.29813573  0.47336076  1.0
  O  O97  1  0.89779063  0.69639801  0.45424035  1.0
  O  O98  1  0.88239400  0.67569127  0.58051650  1.0
  O  O99  1  0.08290573  0.70121070  0.52916211  1.0
  O  O100  1  0.82627038  0.47722382  0.66490504  1.0
  O  O101  1  0.84391332  0.34912816  0.61862826  1.0
  O  O102  1  0.01831106  0.40788522  0.67401382  1.0
  O  O103  1  0.15759663  0.64956404  0.38316667  1.0
  O  O104  1  0.17651389  0.52164634  0.33686873  1.0
  O  O105  1  0.98472510  0.59100721  0.32583396  1.0
  O  O106  1  0.69536701  0.09530876  0.60726139  1.0
  O  O107  1  0.83296318  0.18478912  0.54434878  1.0
  O  O108  1  0.72510195  0.22017639  0.64933768  1.0
  O  O109  1  0.16687571  0.81431674  0.45777849  1.0
  O  O110  1  0.30145848  0.90486844  0.39412866  1.0
  O  O111  1  0.27301220  0.78002198  0.35186423  1.0
  O  O112  1  0.34238516  0.09497213  0.37695198  1.0
  O  O113  1  0.19346053  0.13393485  0.46668226  1.0
  O  O114  1  0.24994914  0.21299022  0.36800659  1.0
  O  O115  1  0.80699043  0.86609416  0.53307562  1.0
  O  O116  1  0.65920230  0.90575807  0.62310827  1.0
  O  O117  1  0.75080171  0.78753261  0.63215028  1.0
  F  F118  1  0.88533779  0.44932651  0.38641975  1.0
  F  F119  1  0.11401257  0.54962784  0.61427151  1.0
