# generated using pymatgen
data_ZnH11C20N3O10
_symmetry_space_group_name_H-M   'P 1'
_cell_length_a   11.06127441
_cell_length_b   15.98660961
_cell_length_c   17.18356893
_cell_angle_alpha   83.23185585
_cell_angle_beta   89.84730953
_cell_angle_gamma   86.92788036
_symmetry_Int_Tables_number   1
_chemical_formula_structural   ZnH11C20N3O10
_chemical_formula_sum   'Zn2 H22 C40 N6 O20'
_cell_volume   3013.07721647
_cell_formula_units_Z   2
loop_
 _symmetry_equiv_pos_site_id
 _symmetry_equiv_pos_as_xyz
  1  'x, y, z'
loop_
 _atom_site_type_symbol
 _atom_site_label
 _atom_site_symmetry_multiplicity
 _atom_site_fract_x
 _atom_site_fract_y
 _atom_site_fract_z
 _atom_site_occupancy
  Zn  Zn0  1  0.50771701  0.40449693  0.50111320  1.0
  Zn  Zn1  1  0.50199173  0.59019173  0.49311886  1.0
  H  H2  1  0.60614057  0.71372779  0.57807611  1.0
  H  H3  1  0.60201280  0.87119353  0.57843101  1.0
  H  H4  1  0.31131808  0.88994373  0.40835115  1.0
  H  H5  1  0.68787480  0.10106185  0.57655055  1.0
  H  H6  1  0.35170373  0.12685252  0.44492656  1.0
  H  H7  1  0.36068672  0.28290088  0.44242555  1.0
  H  H8  1  0.51091770  0.61870917  0.73334730  1.0
  H  H9  1  0.51506398  0.61634001  0.87924518  1.0
  H  H10  1  0.47580754  0.34746055  0.90400700  1.0
  H  H11  1  0.49715578  0.66377773  0.09370041  1.0
  H  H12  1  0.52182342  0.39197499  0.11288335  1.0
  H  H13  1  0.52913901  0.38652194  0.25960611  1.0
  H  H14  1  0.23319555  0.59280314  0.59330607  1.0
  H  H15  1  0.78539257  0.58661979  0.61754125  1.0
  H  H16  1  0.30090429  0.66557467  0.43005962  1.0
  H  H17  1  0.71185675  0.32263301  0.55489107  1.0
  H  H18  1  0.47820225  0.34660114  0.69710128  1.0
  H  H19  1  0.50900968  0.65900982  0.30086441  1.0
  H  H20  1  0.84585746  0.48535941  0.33084451  1.0
  H  H21  1  0.17703922  0.50157788  0.33450879  1.0
  H  H22  1  0.28117429  0.62179239  0.70904210  1.0
  H  H23  1  0.82672742  0.76480073  0.63119899  1.0
  C  C24  1  0.48869186  0.48858733  0.65015586  1.0
  C  C25  1  0.74230537  0.49556073  0.50910533  1.0
  C  C26  1  0.51808646  0.51519552  0.34519861  1.0
  C  C27  1  0.26681087  0.49459805  0.48770747  1.0
  C  C28  1  0.54349825  0.75575768  0.54098584  1.0
  C  C29  1  0.54181897  0.84187902  0.54101979  1.0
  C  C30  1  0.45837422  0.89153033  0.49068557  1.0
  C  C31  1  0.37811663  0.85286836  0.44613630  1.0
  C  C32  1  0.38350974  0.76425309  0.45153016  1.0
  C  C33  1  0.61406242  0.13947030  0.54656703  1.0
  C  C34  1  0.52032032  0.10284232  0.51168606  1.0
  C  C35  1  0.42620942  0.15407795  0.47246662  1.0
  C  C36  1  0.43165775  0.24010054  0.47082826  1.0
  C  C37  1  0.61405876  0.22801575  0.54118518  1.0
  C  C38  1  0.49025931  0.48509774  0.73611943  1.0
  C  C39  1  0.50207460  0.55986269  0.77154672  1.0
  C  C40  1  0.50446509  0.55914499  0.85191117  1.0
  C  C41  1  0.49435568  0.48135703  0.89944059  1.0
  C  C42  1  0.48289489  0.40663658  0.86617435  1.0
  C  C43  1  0.48178116  0.40712552  0.78453793  1.0
  C  C44  1  0.50395727  0.60322667  0.13029717  1.0
  C  C45  1  0.50792361  0.52852259  0.09556958  1.0
  C  C46  1  0.51771712  0.44910815  0.14167685  1.0
  C  C47  1  0.52163978  0.44652343  0.22214625  1.0
  C  C48  1  0.51653565  0.52109928  0.25903138  1.0
  C  C49  1  0.50821845  0.60066516  0.21208707  1.0
  C  C50  1  0.13146797  0.49581911  0.49390003  1.0
  C  C51  1  0.07161335  0.54257681  0.54976042  1.0
  C  C52  1  0.06739855  0.44663674  0.44859751  1.0
  C  C53  1  0.13526331  0.59040019  0.59939680  1.0
  C  C54  1  0.07493874  0.63737597  0.65136046  1.0
  C  C55  1  0.87824319  0.49216355  0.50749574  1.0
  C  C56  1  0.93964012  0.44357319  0.45634963  1.0
  C  C57  1  0.94269131  0.54130802  0.55601168  1.0
  C  C58  1  0.88320016  0.58843153  0.61134583  1.0
  C  C59  1  0.94644923  0.63637144  0.65719230  1.0
  C  C60  1  0.87235077  0.38750156  0.40801503  1.0
  C  C61  1  0.13428619  0.39546617  0.39195180  1.0
  C  C62  1  0.13846203  0.69879277  0.69415875  1.0
  C  C63  1  0.87612435  0.68162161  0.71642129  1.0
  N  N64  1  0.46810482  0.71703180  0.49589455  1.0
  N  N65  1  0.44770743  0.98117023  0.48257703  1.0
  N  N66  1  0.52933352  0.01339229  0.51874025  1.0
  N  N67  1  0.52316708  0.27707389  0.50456943  1.0
  N  N68  1  0.49692348  0.47131341  0.98237660  1.0
  N  N69  1  0.50274446  0.53949198  0.01261861  1.0
  O  O70  1  0.49247682  0.41843300  0.61981654  1.0
  O  O71  1  0.48244443  0.56111331  0.60947697  1.0
  O  O72  1  0.68841047  0.56794061  0.50199154  1.0
  O  O73  1  0.69143980  0.42534152  0.51573716  1.0
  O  O74  1  0.51968773  0.58551093  0.37617390  1.0
  O  O75  1  0.51713766  0.44321039  0.38520307  1.0
  O  O76  1  0.32141267  0.42295249  0.49810720  1.0
  O  O77  1  0.31636182  0.56528438  0.47376213  1.0
  O  O78  1  0.30203671  0.72727974  0.41177959  1.0
  O  O79  1  0.70557441  0.26164160  0.57414425  1.0
  O  O80  1  0.47248970  0.33313967  0.75532983  1.0
  O  O81  1  0.50366802  0.67471949  0.24275608  1.0
  O  O82  1  0.82807126  0.42571783  0.33781368  1.0
  O  O83  1  0.85908231  0.31357017  0.42817748  1.0
  O  O84  1  0.19134538  0.44112897  0.33178331  1.0
  O  O85  1  0.13852438  0.31912511  0.39742786  1.0
  O  O86  1  0.25517682  0.67981822  0.71635847  1.0
  O  O87  1  0.08840458  0.76588906  0.70591291  1.0
  O  O88  1  0.80182649  0.74834792  0.68520707  1.0
  O  O89  1  0.87556844  0.65723893  0.78580861  1.0
