# generated using pymatgen
data_TbH5C9O7
_symmetry_space_group_name_H-M   'P 1'
_cell_length_a   10.35533526
_cell_length_b   10.35532763
_cell_length_c   14.53362191
_cell_angle_alpha   89.99991311
_cell_angle_beta   90.00007308
_cell_angle_gamma   89.99813496
_symmetry_Int_Tables_number   1
_chemical_formula_structural   TbH5C9O7
_chemical_formula_sum   'Tb4 H20 C36 O28'
_cell_volume   1558.48226909
_cell_formula_units_Z   4
loop_
 _symmetry_equiv_pos_site_id
 _symmetry_equiv_pos_as_xyz
  1  'x, y, z'
loop_
 _atom_site_type_symbol
 _atom_site_label
 _atom_site_symmetry_multiplicity
 _atom_site_fract_x
 _atom_site_fract_y
 _atom_site_fract_z
 _atom_site_occupancy
  Tb  Tb0  1  0.35669076  0.35575869  0.84570334  1.0
  Tb  Tb1  1  0.64331276  0.64424374  0.34570407  1.0
  Tb  Tb2  1  0.35575064  0.64331777  0.09570156  1.0
  Tb  Tb3  1  0.64424472  0.35667940  0.59570179  1.0
  H  H4  1  0.49869768  0.59122854  0.72080461  1.0
  H  H5  1  0.50130949  0.40877223  0.22079583  1.0
  H  H6  1  0.59123523  0.50131073  0.97080089  1.0
  H  H7  1  0.40876368  0.49869336  0.47080637  1.0
  H  H8  1  0.56959141  0.94894871  0.57938410  1.0
  H  H9  1  0.43040392  0.05105139  0.07938045  1.0
  H  H10  1  0.94896297  0.43041112  0.82938693  1.0
  H  H11  1  0.05103569  0.56957590  0.32938512  1.0
  H  H12  1  0.42208503  0.95225346  0.85709594  1.0
  H  H13  1  0.57791755  0.04774797  0.35709106  1.0
  H  H14  1  0.95224424  0.57793590  0.10709408  1.0
  H  H15  1  0.04775211  0.42206704  0.60709505  1.0
  H  H16  1  0.10427143  0.21829829  0.84739248  1.0
  H  H17  1  0.89572920  0.78170703  0.34739124  1.0
  H  H18  1  0.21828117  0.89573886  0.09739261  1.0
  H  H19  1  0.78171903  0.10425830  0.59738223  1.0
  H  H20  1  0.20667906  0.12466854  0.80105589  1.0
  H  H21  1  0.79331666  0.87533592  0.30105789  1.0
  H  H22  1  0.12466535  0.79332552  0.05105112  1.0
  H  H23  1  0.87533379  0.20667754  0.55104827  1.0
  C  C24  1  0.49793404  0.69626820  0.72013301  1.0
  C  C25  1  0.50207409  0.30373160  0.22012709  1.0
  C  C26  1  0.69627383  0.50206805  0.97012939  1.0
  C  C27  1  0.30372508  0.49793604  0.47013271  1.0
  C  C28  1  0.49630633  0.96581740  0.71824896  1.0
  C  C29  1  0.50369214  0.03418240  0.21824608  1.0
  C  C30  1  0.96581988  0.50370437  0.96825042  1.0
  C  C31  1  0.03417807  0.49628718  0.46824731  1.0
  C  C32  1  0.41214372  0.68986982  0.88056442  1.0
  C  C33  1  0.58785986  0.31013350  0.38055858  1.0
  C  C34  1  0.68986534  0.58786257  0.13056298  1.0
  C  C35  1  0.31013298  0.41213838  0.63056559  1.0
  C  C36  1  0.53878403  0.89739791  0.64098128  1.0
  C  C37  1  0.46121334  0.10260013  0.14097830  1.0
  C  C38  1  0.89740456  0.46121825  0.89098268  1.0
  C  C39  1  0.10259518  0.53877345  0.39098027  1.0
  C  C40  1  0.45470601  0.76392868  0.79748532  1.0
  C  C41  1  0.54530225  0.23607385  0.29747883  1.0
  C  C42  1  0.76392633  0.54530269  0.04748189  1.0
  C  C43  1  0.23607184  0.45469652  0.54748369  1.0
  C  C44  1  0.45412730  0.89910549  0.79650957  1.0
  C  C45  1  0.54587904  0.10089608  0.29650461  1.0
  C  C46  1  0.89910108  0.54588956  0.04650766  1.0
  C  C47  1  0.10089516  0.45410675  0.54650727  1.0
  C  C48  1  0.53989870  0.76239492  0.64188546  1.0
  C  C49  1  0.46010060  0.23760409  0.14188302  1.0
  C  C50  1  0.76240267  0.46009736  0.89188535  1.0
  C  C51  1  0.23759707  0.53990304  0.39188720  1.0
  C  C52  1  0.49644289  0.11064601  0.71679279  1.0
  C  C53  1  0.50355268  0.88935477  0.21679657  1.0
  C  C54  1  0.11064525  0.50357247  0.96680097  1.0
  C  C55  1  0.88935269  0.49642198  0.46679659  1.0
  C  C56  1  0.58390710  0.68816680  0.55952890  1.0
  C  C57  1  0.41609205  0.31183335  0.05952703  1.0
  C  C58  1  0.68817298  0.41609039  0.80952803  1.0
  C  C59  1  0.31183048  0.58390729  0.30952990  1.0
  O  O60  1  0.39029800  0.56973493  0.87117384  1.0
  O  O61  1  0.60970847  0.43026648  0.37116513  1.0
  O  O62  1  0.56973173  0.60971609  0.12116884  1.0
  O  O63  1  0.43026754  0.39028778  0.62117089  1.0
  O  O64  1  0.57705741  0.16497910  0.66357276  1.0
  O  O65  1  0.42293517  0.83501792  0.16358065  1.0
  O  O66  1  0.16499338  0.42295323  0.91358856  1.0
  O  O67  1  0.83501220  0.57704036  0.41358060  1.0
  O  O68  1  0.41555907  0.16738231  0.76877220  1.0
  O  O69  1  0.58444335  0.83262125  0.26877130  1.0
  O  O70  1  0.16736748  0.58446715  0.01877849  1.0
  O  O71  1  0.83262678  0.41553308  0.51877676  1.0
  O  O72  1  0.58917487  0.74631754  0.48244141  1.0
  O  O73  1  0.41082696  0.25368170  0.98243809  1.0
  O  O74  1  0.74631501  0.41082653  0.73243923  1.0
  O  O75  1  0.25368928  0.58916745  0.23244103  1.0
  O  O76  1  0.61291728  0.56970748  0.56985744  1.0
  O  O77  1  0.38707997  0.43029264  0.06985542  1.0
  O  O78  1  0.56971569  0.38708308  0.81986059  1.0
  O  O79  1  0.43028586  0.61291747  0.31986459  1.0
  O  O80  1  0.40167479  0.74925480  0.95708901  1.0
  O  O81  1  0.59832893  0.25075125  0.45708531  1.0
  O  O82  1  0.74924429  0.59833440  0.20708901  1.0
  O  O83  1  0.25075417  0.40167316  0.70709226  1.0
  O  O84  1  0.19016110  0.18098469  0.85349770  1.0
  O  O85  1  0.80984050  0.81902159  0.35350115  1.0
  O  O86  1  0.18096847  0.80985034  0.10349849  1.0
  O  O87  1  0.81903173  0.19014681  0.60349423  1.0
