# generated using pymatgen
data_ZnH12C10NO4
_symmetry_space_group_name_H-M   'P 1'
_cell_length_a   9.80119918
_cell_length_b   10.90694641
_cell_length_c   11.30446063
_cell_angle_alpha   89.80827774
_cell_angle_beta   86.34305245
_cell_angle_gamma   76.55823618
_symmetry_Int_Tables_number   1
_chemical_formula_structural   ZnH12C10NO4
_chemical_formula_sum   'Zn2 H24 C20 N2 O8'
_cell_volume   1172.88089825
_cell_formula_units_Z   2
loop_
 _symmetry_equiv_pos_site_id
 _symmetry_equiv_pos_as_xyz
  1  'x, y, z'
loop_
 _atom_site_type_symbol
 _atom_site_label
 _atom_site_symmetry_multiplicity
 _atom_site_fract_x
 _atom_site_fract_y
 _atom_site_fract_z
 _atom_site_occupancy
  Zn  Zn0  1  0.35893918  0.52663429  0.48167613  1.0
  Zn  Zn1  1  0.63820313  0.46362538  0.51520213  1.0
  H  H2  1  0.69949669  0.07219630  0.57981695  1.0
  H  H3  1  0.39468682  0.89493245  0.67464627  1.0
  H  H4  1  0.47502998  0.08031658  0.68758705  1.0
  H  H5  1  0.61784668  0.47836910  0.89817991  1.0
  H  H6  1  0.37489696  0.51627675  0.09837147  1.0
  H  H7  1  0.29705010  0.51702554  0.88873790  1.0
  H  H8  1  0.69739437  0.45461182  0.10706803  1.0
  H  H9  1  0.12280371  0.42169352  0.57236917  1.0
  H  H10  1  0.86990613  0.58009969  0.43370522  1.0
  H  H11  1  0.09575315  0.62634419  0.40081546  1.0
  H  H12  1  0.57238263  0.90071356  0.31865821  1.0
  H  H13  1  0.90193775  0.36831042  0.59735977  1.0
  H  H14  1  0.48137248  0.11852695  0.30955135  1.0
  H  H15  1  0.32400479  0.11419617  0.39171478  1.0
  H  H16  1  0.28559256  0.95020785  0.55887220  1.0
  H  H17  1  0.66465857  0.86960328  0.62186425  1.0
  H  H18  1  0.73048775  0.83303447  0.47433930  1.0
  H  H19  1  0.71040206  0.04608263  0.42569921  1.0
  H  H20  1  0.25881699  0.90765499  0.36416838  1.0
  H  H21  1  0.34047742  0.94075651  0.22667587  1.0
  H  H22  1  0.38743732  0.78736417  0.28805091  1.0
  H  H23  1  0.20178952  0.18306273  0.56595723  1.0
  H  H24  1  0.21262235  0.13304864  0.71556400  1.0
  H  H25  1  0.27983353  0.26519200  0.66927955  1.0
  C  C26  1  0.55642675  0.48419589  0.26865644  1.0
  C  C27  1  0.49826527  0.11532189  0.50109551  1.0
  C  C28  1  0.41014412  0.08107947  0.61123726  1.0
  C  C29  1  0.64913302  0.03514416  0.50849007  1.0
  C  C30  1  0.58665169  0.47779290  0.13840547  1.0
  C  C31  1  0.48382000  0.49613842  0.06160107  1.0
  C  C32  1  0.40719263  0.50509178  0.85777244  1.0
  C  C33  1  0.50934137  0.49177544  0.93487619  1.0
  C  C34  1  0.92249088  0.50612025  0.49255577  1.0
  C  C35  1  0.07192214  0.49341970  0.51076354  1.0
  C  C36  1  0.50301632  0.73355791  0.49888560  1.0
  C  C37  1  0.43785928  0.50335520  0.72763255  1.0
  C  C38  1  0.49626795  0.25577712  0.49976738  1.0
  C  C39  1  0.47304295  0.93091965  0.37362038  1.0
  C  C40  1  0.43853291  0.07630921  0.38779028  1.0
  C  C41  1  0.39042364  0.94613483  0.59044526  1.0
  C  C42  1  0.64656744  0.89581354  0.52908283  1.0
  C  C43  1  0.50336721  0.87338760  0.49894308  1.0
  C  C44  1  0.35878635  0.88853556  0.30981174  1.0
  C  C45  1  0.26817365  0.17175838  0.64208080  1.0
  N  N46  1  0.84878967  0.43534410  0.54223008  1.0
  N  N47  1  0.14739754  0.56075106  0.45790813  1.0
  O  O48  1  0.43012954  0.53241146  0.30778805  1.0
  O  O49  1  0.66018246  0.44095372  0.33176641  1.0
  O  O50  1  0.38406331  0.70510288  0.51231557  1.0
  O  O51  1  0.62079955  0.65376137  0.48437135  1.0
  O  O52  1  0.33513189  0.50126153  0.66368002  1.0
  O  O53  1  0.56263492  0.50456186  0.68879349  1.0
  O  O54  1  0.38825126  0.33136102  0.46275161  1.0
  O  O55  1  0.60319649  0.28865038  0.53619973  1.0
