# generated using pymatgen
data_Zn6H36C61O26
_symmetry_space_group_name_H-M   'P 1'
_cell_length_a   18.63282366
_cell_length_b   18.66949762
_cell_length_c   18.70859522
_cell_angle_alpha   109.24356551
_cell_angle_beta   109.65172861
_cell_angle_gamma   109.19116156
_symmetry_Int_Tables_number   1
_chemical_formula_structural   Zn6H36C61O26
_chemical_formula_sum   'Zn6 H36 C61 O26'
_cell_volume   5029.97362557
_cell_formula_units_Z   1
loop_
 _symmetry_equiv_pos_site_id
 _symmetry_equiv_pos_as_xyz
  1  'x, y, z'
loop_
 _atom_site_type_symbol
 _atom_site_label
 _atom_site_symmetry_multiplicity
 _atom_site_fract_x
 _atom_site_fract_y
 _atom_site_fract_z
 _atom_site_occupancy
  Zn  Zn0  1  0.94294572  0.44110664  0.99823672  1.0
  Zn  Zn1  1  0.06063103  0.56551810  0.99079684  1.0
  Zn  Zn2  1  0.49329033  0.43905093  0.43753828  1.0
  Zn  Zn3  1  0.48859226  0.55998748  0.56067676  1.0
  Zn  Zn4  1  0.05367596  0.99011710  0.55314923  1.0
  Zn  Zn5  1  0.93352158  0.00061021  0.43308828  1.0
  H  H6  1  0.32688297  0.44240902  0.16878897  1.0
  H  H7  1  0.62636049  0.39892039  0.84669978  1.0
  H  H8  1  0.02591000  0.40718576  0.72546423  1.0
  H  H9  1  0.30281877  0.59075200  0.19910073  1.0
  H  H10  1  0.99675053  0.27946764  0.59856526  1.0
  H  H11  1  0.93470644  0.08192910  0.74568987  1.0
  H  H12  1  0.05078654  0.12772367  0.79535386  1.0
  H  H13  1  0.95359809  0.20780186  0.86969134  1.0
  H  H14  1  0.06970702  0.25298223  0.91990614  1.0
  H  H15  1  0.64211336  0.80528812  0.54919132  1.0
  H  H16  1  0.75722192  0.90448620  0.53618097  1.0
  H  H17  1  0.98588608  0.71211928  0.38295253  1.0
  H  H18  1  0.86276274  0.67279286  0.46225335  1.0
  H  H19  1  0.74971110  0.57043447  0.47602996  1.0
  H  H20  1  0.33109243  0.61694774  0.36775230  1.0
  H  H21  1  0.81753363  0.63226838  0.59302040  1.0
  H  H22  1  0.24279554  0.38715650  0.55490046  1.0
  H  H23  1  0.13911964  0.25897438  0.54932302  1.0
  H  H24  1  0.37512589  0.14747070  0.59571848  1.0
  H  H25  1  0.30796101  0.08798740  0.47957423  1.0
  H  H26  1  0.47268359  0.26934487  0.58554364  1.0
  H  H27  1  0.40373986  0.21108139  0.46986305  1.0
  H  H28  1  0.11195826  0.68247519  0.32020543  1.0
  H  H29  1  0.14714310  0.50824771  0.29235048  1.0
  H  H30  1  0.17449286  0.36240266  0.26442774  1.0
  H  H31  1  0.14350195  0.33553739  0.09605531  1.0
  H  H32  1  0.96922719  0.76795162  0.08422583  1.0
  H  H33  1  0.94311895  0.86533497  0.18676259  1.0
  H  H34  1  0.09705922  0.79076239  0.42847681  1.0
  H  H35  1  0.07441288  0.77087942  0.61843004  1.0
  H  H36  1  0.99928280  0.60440811  0.27144206  1.0
  H  H37  1  0.85089135  0.44597252  0.72296585  1.0
  H  H38  1  0.74319667  0.44471854  0.60000393  1.0
  H  H39  1  0.59672994  0.52995593  0.79140489  1.0
  H  H40  1  0.52544610  0.41478820  0.73115244  1.0
  H  H41  1  0.69536211  0.51466614  0.90853514  1.0
  C  C42  1  0.01375306  0.64289419  0.09912058  1.0
  C  C43  1  0.00912189  0.77037412  0.30096903  1.0
  C  C44  1  0.03582020  0.74071963  0.36697939  1.0
  C  C45  1  0.10349125  0.48495432  0.11125967  1.0
  C  C46  1  0.04544924  0.67337853  0.29834803  1.0
  C  C47  1  0.70637902  0.45056759  0.79228609  1.0
  C  C48  1  0.78107086  0.44871119  0.79443697  1.0
  C  C49  1  0.79272295  0.44676813  0.72316149  1.0
  C  C50  1  0.73291075  0.44736692  0.65464194  1.0
  C  C51  1  0.66112695  0.45606699  0.65647106  1.0
  C  C52  1  0.64984265  0.45737842  0.72671636  1.0
  C  C53  1  0.20163218  0.41316586  0.24914415  1.0
  C  C54  1  0.59444606  0.46657536  0.76913636  1.0
  C  C55  1  0.65765371  0.45753475  0.84272723  1.0
  C  C56  1  0.01165290  0.26758155  0.80430447  1.0
  C  C57  1  0.02840127  0.41521748  0.87664466  1.0
  C  C58  1  0.02137765  0.34457289  0.80361461  1.0
  C  C59  1  0.01789859  0.34782262  0.72834249  1.0
  C  C60  1  0.00207026  0.27605759  0.65708404  1.0
  C  C61  1  0.99403358  0.19919067  0.65941092  1.0
  C  C62  1  0.00100168  0.19812038  0.73550675  1.0
  C  C63  1  0.99719194  0.14278800  0.77948678  1.0
  C  C64  1  0.18658691  0.39817463  0.15682183  1.0
  C  C65  1  0.00902897  0.22167047  0.85760806  1.0
  C  C66  1  0.61264557  0.64445214  0.53432929  1.0
  C  C67  1  0.37363920  0.47447481  0.35765080  1.0
  C  C68  1  0.38373127  0.40565681  0.53163730  1.0
  C  C69  1  0.85204320  0.45871423  0.87053960  1.0
  C  C70  1  0.60317789  0.46749716  0.58952627  1.0
  C  C71  1  0.14426942  0.11342402  0.53276119  1.0
  C  C72  1  0.97041960  0.88613855  0.34976960  1.0
  C  C73  1  0.89370308  0.88931254  0.52183787  1.0
  C  C74  1  0.98197432  0.12326380  0.58742377  1.0
  C  C75  1  0.17417467  0.48090178  0.17380862  1.0
  C  C76  1  0.75645202  0.69874421  0.53756907  1.0
  C  C77  1  0.68851083  0.71272249  0.54149975  1.0
  C  C78  1  0.69288545  0.79055601  0.54453543  1.0
  C  C79  1  0.75835169  0.84704477  0.53791326  1.0
  C  C80  1  0.82598874  0.83151796  0.53259535  1.0
  C  C81  1  0.27463188  0.54004337  0.21398271  1.0
  C  C82  1  0.82356625  0.75712539  0.53501270  1.0
  C  C83  1  0.86696577  0.70058251  0.52610374  1.0
  C  C84  1  0.79228132  0.63626981  0.53311808  1.0
  C  C85  1  0.34493376  0.26794161  0.54085538  1.0
  C  C86  1  0.01884055  0.71200079  0.24104602  1.0
  C  C87  1  0.32953968  0.33661031  0.54314494  1.0
  C  C88  1  0.25625751  0.33383651  0.55113705  1.0
  C  C89  1  0.19858016  0.26222900  0.54921230  1.0
  C  C90  1  0.21380439  0.19210006  0.54533105  1.0
  C  C91  1  0.29035843  0.19906083  0.54502946  1.0
  C  C92  1  0.34300742  0.15254784  0.53791288  1.0
  C  C93  1  0.28723268  0.45794030  0.19637376  1.0
  C  C94  1  0.40417452  0.22998527  0.53220578  1.0
  C  C95  1  0.30372596  0.47436709  0.28967504  1.0
  C  C96  1  0.28909319  0.55488942  0.30640442  1.0
  C  C97  1  0.00557802  0.70906693  0.16208532  1.0
  C  C98  1  0.18860308  0.49454665  0.26646751  1.0
  C  C99  1  0.95958789  0.74086567  0.59849800  1.0
  C  C100  1  0.97977851  0.76740050  0.14498831  1.0
  C  C101  1  0.96537737  0.82277469  0.20314432  1.0
  C  C102  1  0.98045226  0.82616139  0.28362987  1.0
  O  O103  1  0.97255074  0.56520999  0.08331203  1.0
  O  O104  1  0.06649782  0.08747936  0.47730475  1.0
  O  O105  1  0.01137914  0.90065077  0.42730268  1.0
  O  O106  1  0.06181792  0.66759941  0.06676003  1.0
  O  O107  1  0.92205925  0.91952243  0.32698455  1.0
  O  O108  1  0.97257127  0.90537033  0.56618663  1.0
  O  O109  1  0.86916383  0.91736733  0.47016637  1.0
  O  O110  1  0.02224302  0.08454834  0.61046526  1.0
  O  O111  1  0.93198140  0.10106471  0.50779004  1.0
  O  O112  1  0.02401379  0.43178570  0.08720070  1.0
  O  O113  1  0.12545412  0.53992607  0.08594546  1.0
  O  O114  1  0.57864322  0.66725763  0.58137141  1.0
  O  O115  1  0.98572563  0.39031717  0.91242217  1.0
  O  O116  1  0.07567550  0.49546612  0.89916264  1.0
  O  O117  1  0.83195381  0.41291191  0.90667280  1.0
  O  O118  1  0.92938362  0.51382731  0.89566293  1.0
  O  O119  1  0.58640288  0.56636229  0.48034748  1.0
  O  O120  1  0.98268635  0.76784524  0.67568366  1.0
  O  O121  1  0.01639514  0.74301436  0.56720830  1.0
  O  O122  1  0.40434134  0.42387684  0.33360237  1.0
  O  O123  1  0.39858890  0.52509214  0.43655747  1.0
  O  O124  1  0.40756035  0.38099389  0.47619751  1.0
  O  O125  1  0.40287650  0.48486694  0.57794049  1.0
  O  O126  1  0.58256418  0.42246865  0.50943669  1.0
  O  O127  1  0.57739884  0.52071727  0.61608597  1.0
  O  O128  1  0.16545599  0.07657820  0.57767413  1.0
