# generated using pymatgen
data_Al4H9C29(BrO7)3
_symmetry_space_group_name_H-M   'P 1'
_cell_length_a   6.66093946
_cell_length_b   16.51673329
_cell_length_c   19.02226234
_cell_angle_alpha   75.47963651
_cell_angle_beta   89.93764671
_cell_angle_gamma   89.73275885
_symmetry_Int_Tables_number   1
_chemical_formula_structural   Al4H9C29(BrO7)3
_chemical_formula_sum   'Al4 H9 C29 Br3 O21'
_cell_volume   2025.90337219
_cell_formula_units_Z   1
loop_
 _symmetry_equiv_pos_site_id
 _symmetry_equiv_pos_as_xyz
  1  'x, y, z'
loop_
 _atom_site_type_symbol
 _atom_site_label
 _atom_site_symmetry_multiplicity
 _atom_site_fract_x
 _atom_site_fract_y
 _atom_site_fract_z
 _atom_site_occupancy
  Al  Al0  1  0.11334397  0.49637521  0.50021075  1.0
  Al  Al1  1  0.61278765  0.50007396  0.49930190  1.0
  Al  Al2  1  0.62843603  0.99898446  0.99596326  1.0
  Al  Al3  1  0.12816395  0.99817892  0.99933340  1.0
  H  H4  1  0.59793320  0.16587436  0.78650470  1.0
  H  H5  1  0.04445600  0.20074416  0.80836228  1.0
  H  H6  1  0.08617330  0.79425727  0.18492296  1.0
  H  H7  1  0.54874078  0.79449027  0.19086400  1.0
  H  H8  1  0.48075095  0.20150679  0.67009016  1.0
  H  H9  1  0.37197315  0.39279059  0.49542189  1.0
  H  H10  1  0.86797047  0.60613813  0.46002543  1.0
  H  H11  1  0.37912644  0.09811623  0.01256621  1.0
  H  H12  1  0.87667383  0.89078279  0.03472406  1.0
  C  C13  1  0.35218799  0.58420234  0.58399637  1.0
  C  C14  1  0.36762212  0.61352735  0.39239425  1.0
  C  C15  1  0.86967636  0.40922516  0.41668298  1.0
  C  C16  1  0.85378819  0.39217952  0.61041045  1.0
  C  C17  1  0.74121865  0.19851259  0.77285551  1.0
  C  C18  1  0.89456743  0.17493103  0.81974382  1.0
  C  C19  1  0.74996597  0.25911635  0.70264517  1.0
  C  C20  1  0.85992095  0.33054517  0.68390323  1.0
  C  C21  1  0.87207670  0.13564941  0.13628303  1.0
  C  C22  1  0.86812304  0.17869838  0.18028794  1.0
  C  C23  1  0.86505921  0.22586050  0.22830971  1.0
  C  C24  1  0.86337024  0.26933070  0.27243335  1.0
  C  C25  1  0.86319331  0.31632565  0.32057967  1.0
  C  C26  1  0.86451141  0.35926937  0.36465989  1.0
  C  C27  1  0.35576476  0.63321594  0.63668753  1.0
  C  C28  1  0.35971481  0.67677701  0.68024998  1.0
  C  C29  1  0.36386318  0.72513218  0.72725868  1.0
  C  C30  1  0.36700496  0.77035506  0.76993570  1.0
  C  C31  1  0.36985877  0.81926917  0.81649838  1.0
  C  C32  1  0.37249607  0.86382036  0.85926772  1.0
  C  C33  1  0.23461769  0.77482766  0.20756949  1.0
  C  C34  1  0.39705661  0.81321700  0.17249544  1.0
  C  C35  1  0.23985064  0.70478305  0.27161631  1.0
  C  C36  1  0.36622269  0.68936112  0.32913469  1.0
  C  C37  1  0.38447232  0.88229253  0.10604515  1.0
  C  C38  1  0.37420503  0.91401597  0.91119089  1.0
  C  C39  1  0.87685895  0.10977484  0.88843215  1.0
  C  C40  1  0.87831743  0.08601793  0.08392588  1.0
  C  C41  1  0.61421393  0.23946019  0.64649656  1.0
  Br  Br42  1  0.02858835  0.36956573  0.74795934  1.0
  Br  Br43  1  0.03555419  0.62500127  0.26640928  1.0
  Br  Br44  1  0.56717372  0.76726494  0.33983378  1.0
  O  O45  1  0.53758269  0.57953747  0.40988909  1.0
  O  O46  1  0.18380739  0.55351017  0.57299065  1.0
  O  O47  1  0.01900964  0.40512315  0.57654167  1.0
  O  O48  1  0.20152327  0.59199902  0.42413586  1.0
  O  O49  1  0.04227113  0.43520415  0.42980747  1.0
  O  O50  1  0.51771164  0.57728335  0.55239435  1.0
  O  O51  1  0.36550679  0.44732312  0.50588770  1.0
  O  O52  1  0.70238410  0.42233648  0.44447331  1.0
  O  O53  1  0.68727503  0.42776098  0.59118833  1.0
  O  O54  1  0.86402552  0.54945034  0.49047055  1.0
  O  O55  1  0.20404610  0.93701746  0.92968331  1.0
  O  O56  1  0.55398474  0.91189626  0.08055036  1.0
  O  O57  1  0.71025221  0.07193514  0.05740113  1.0
  O  O58  1  0.54537528  0.92952584  0.93417281  1.0
  O  O59  1  0.70443036  0.08088320  0.91031202  1.0
  O  O60  1  0.21240346  0.90633074  0.07899245  1.0
  O  O61  1  0.37779984  0.04839766  0.99419202  1.0
  O  O62  1  0.04261479  0.08789903  0.92157321  1.0
  O  O63  1  0.05147908  0.06177467  0.06901287  1.0
  O  O64  1  0.87875258  0.94817842  0.00589683  1.0
  O  O65  1  0.64234581  0.25987661  0.58102229  1.0
