# generated using pymatgen
data_Zn3H6C35(I4O11)2
_symmetry_space_group_name_H-M   'P 1'
_cell_length_a   21.90345099
_cell_length_b   21.99781426
_cell_length_c   22.24607884
_cell_angle_alpha   60.36776561
_cell_angle_beta   60.89376798
_cell_angle_gamma   90.00099510
_symmetry_Int_Tables_number   1
_chemical_formula_structural   Zn3H6C35(I4O11)2
_chemical_formula_sum   'Zn6 H12 C70 I16 O44'
_cell_volume   7721.35837142
_cell_formula_units_Z   2
loop_
 _symmetry_equiv_pos_site_id
 _symmetry_equiv_pos_as_xyz
  1  'x, y, z'
loop_
 _atom_site_type_symbol
 _atom_site_label
 _atom_site_symmetry_multiplicity
 _atom_site_fract_x
 _atom_site_fract_y
 _atom_site_fract_z
 _atom_site_occupancy
  Zn  Zn0  1  0.50001862  0.44013142  0.99998319  1.0
  Zn  Zn1  1  0.49997905  0.55823363  0.00000966  1.0
  Zn  Zn2  1  0.05911232  0.00087641  0.99992883  1.0
  Zn  Zn3  1  0.94088424  0.00079060  0.00008286  1.0
  Zn  Zn4  1  0.95900822  0.46090724  0.08088722  1.0
  Zn  Zn5  1  0.04097069  0.54179315  0.91916394  1.0
  H  H6  1  0.75926119  0.50434230  0.10318699  1.0
  H  H7  1  0.24074979  0.60750529  0.89680792  1.0
  H  H8  1  0.84622893  0.73039967  0.64679638  1.0
  H  H9  1  0.15371312  0.37648309  0.35301487  1.0
  H  H10  1  0.72761231  0.43221783  0.84311520  1.0
  H  H11  1  0.27246390  0.27533016  0.15675281  1.0
  H  H12  1  0.84035660  0.99950550  0.35742298  1.0
  H  H13  1  0.15891637  0.35691202  0.64255055  1.0
  H  H14  1  0.65528794  0.76004028  0.35507716  1.0
  H  H15  1  0.34489523  0.11576942  0.64495633  1.0
  H  H16  1  0.52358803  0.45975777  0.20946481  1.0
  H  H17  1  0.47641106  0.66916925  0.79058179  1.0
  C  C18  1  0.61655072  0.49637346  0.00300045  1.0
  C  C19  1  0.38342479  0.49932566  0.99703156  1.0
  C  C20  1  0.79326347  0.79505922  0.41263009  1.0
  C  C21  1  0.20671610  0.20774909  0.58737772  1.0
  C  C22  1  0.69191835  0.77389756  0.52788967  1.0
  C  C23  1  0.30794393  0.30200976  0.47211211  1.0
  C  C24  1  0.77508609  0.82296835  0.47094736  1.0
  C  C25  1  0.22469017  0.29393909  0.52903530  1.0
  C  C26  1  0.66343621  0.66349828  0.67422726  1.0
  C  C27  1  0.33656647  0.33775637  0.32576433  1.0
  C  C28  1  0.83815729  0.83901736  0.32465655  1.0
  C  C29  1  0.16181790  0.16372643  0.67534427  1.0
  C  C30  1  0.68969921  0.49943242  0.06213641  1.0
  C  C31  1  0.31028426  0.56152240  0.93788838  1.0
  C  C32  1  0.75530206  0.50067054  0.05803544  1.0
  C  C33  1  0.24468467  0.55867632  0.94198834  1.0
  C  C34  1  0.81602464  0.49716340  0.99736868  1.0
  C  C35  1  0.18395407  0.49451161  0.00267287  1.0
  C  C36  1  0.81090401  0.49172214  0.93946569  1.0
  C  C37  1  0.18908106  0.43115229  0.06055117  1.0
  C  C38  1  0.74511602  0.49025766  0.94305140  1.0
  C  C39  1  0.25487184  0.43327653  0.05695441  1.0
  C  C40  1  0.58046930  0.58025716  0.83959174  1.0
  C  C41  1  0.41949541  0.41982139  0.16040007  1.0
  C  C42  1  0.68477048  0.49473829  0.00382471  1.0
  C  C43  1  0.31521934  0.49852268  0.99618661  1.0
  C  C44  1  0.99994811  0.88336788  0.00001794  1.0
  C  C45  1  0.92234543  0.92111913  0.15941053  1.0
  C  C46  1  0.07770726  0.08053432  0.84060104  1.0
  C  C47  1  0.99999855  0.11855283  0.00000724  1.0
  C  C48  1  0.99999867  0.38394747  0.99996944  1.0
  C  C49  1  0.88369275  0.49951803  0.99865784  1.0
  C  C50  1  0.11625954  0.49814381  0.00144059  1.0
  C  C51  1  0.00002127  0.61835534  0.99999387  1.0
  C  C52  1  0.99159504  0.81135916  0.94273819  1.0
  C  C53  1  0.00836733  0.75409160  0.05729373  1.0
  C  C54  1  0.98729227  0.74587945  0.94614336  1.0
  C  C55  1  0.01270221  0.69202889  0.05387091  1.0
  C  C56  1  0.00000547  0.68694983  0.00000722  1.0
  C  C57  1  0.80940295  0.72885830  0.47119268  1.0
  C  C58  1  0.19073737  0.19992651  0.52881566  1.0
  C  C59  1  0.99996925  0.81466581  0.00002010  1.0
  C  C60  1  0.93545085  0.19040359  0.05798486  1.0
  C  C61  1  0.06453491  0.24839834  0.94199388  1.0
  C  C62  1  0.93419567  0.25603339  0.05423213  1.0
  C  C63  1  0.06579384  0.31029260  0.94572414  1.0
  C  C64  1  0.99999341  0.31529088  0.99997290  1.0
  C  C65  1  0.99999404  0.18734011  0.99999712  1.0
  C  C66  1  0.79076252  0.75738689  0.52884756  1.0
  C  C67  1  0.20917229  0.28606855  0.47113571  1.0
  C  C68  1  0.62454331  0.62521652  0.75002283  1.0
  C  C69  1  0.37541809  0.37521285  0.24997620  1.0
  C  C70  1  0.87774082  0.87618785  0.24891918  1.0
  C  C71  1  0.12228657  0.12512931  0.75108954  1.0
  C  C72  1  0.72663216  0.68008012  0.52754851  1.0
  C  C73  1  0.27360632  0.20772409  0.47246095  1.0
  C  C74  1  0.70771355  0.70757569  0.58644326  1.0
  C  C75  1  0.29231058  0.29405633  0.41355553  1.0
  C  C76  1  0.70981297  0.74583572  0.47024079  1.0
  C  C77  1  0.29024163  0.21634280  0.52978484  1.0
  C  C78  1  0.84050728  0.76872376  0.55280464  1.0
  C  C79  1  0.15938136  0.32110606  0.44710766  1.0
  C  C80  1  0.73963290  0.49163501  0.87746444  1.0
  C  C81  1  0.26033997  0.36904490  0.12252658  1.0
  C  C82  1  0.79780319  0.89897527  0.44854497  1.0
  C  C83  1  0.20178557  0.34755042  0.55137848  1.0
  C  C84  1  0.65926349  0.73453223  0.44739257  1.0
  C  C85  1  0.34084844  0.18241839  0.55265282  1.0
  C  C86  1  0.62744599  0.50128283  0.13100964  1.0
  C  C87  1  0.37252959  0.63224873  0.86901880  1.0
  I  I88  1  0.99245038  0.90707423  0.84830825  1.0
  I  I89  1  0.00750515  0.75535723  0.15173353  1.0
  I  I90  1  0.95561583  0.73248989  0.87684166  1.0
  I  I91  1  0.04438440  0.60932749  0.12316805  1.0
  I  I92  1  0.84413332  0.09382783  0.15412427  1.0
  I  I93  1  0.15585365  0.24792775  0.84589541  1.0
  I  I94  1  0.83355647  0.26883075  0.12336778  1.0
  I  I95  1  0.16644044  0.39221154  0.87660108  1.0
  I  I96  1  0.90151477  0.69506316  0.42650831  1.0
  I  I97  1  0.09877819  0.12119407  0.57356296  1.0
  I  I98  1  0.60092920  0.80955958  0.57275506  1.0
  I  I99  1  0.39867959  0.38279999  0.42729131  1.0
  I  I100  1  0.68947769  0.56980896  0.57116833  1.0
  I  I101  1  0.31120376  0.14114099  0.42884921  1.0
  I  I102  1  0.89915984  0.48305076  0.84867327  1.0
  I  I103  1  0.10086393  0.33165035  0.15126334  1.0
  O  O104  1  0.58896018  0.44328102  0.00574312  1.0
  O  O105  1  0.41105627  0.44901177  0.99423674  1.0
  O  O106  1  0.87372541  0.45564781  0.06962455  1.0
  O  O107  1  0.12620009  0.52523443  0.93049179  1.0
  O  O108  1  0.94451972  0.54575263  0.93020610  1.0
  O  O109  1  0.05544125  0.47589993  0.06991556  1.0
  O  O110  1  0.95159639  0.55826519  0.06790167  1.0
  O  O111  1  0.04845573  0.62620647  0.93207157  1.0
  O  O112  1  0.59377439  0.55078131  0.99778901  1.0
  O  O113  1  0.40615354  0.54848641  0.00231788  1.0
  O  O114  1  0.56591096  0.51067808  0.87493593  1.0
  O  O115  1  0.43411220  0.38560748  0.12503142  1.0
  O  O116  1  0.55990390  0.61451619  0.87510776  1.0
  O  O117  1  0.44002108  0.48959355  0.12490647  1.0
  O  O118  1  0.05920303  0.91871586  0.98143048  1.0
  O  O119  1  0.94069746  0.90012663  0.01858275  1.0
  O  O120  1  0.99123482  0.92906563  0.12381552  1.0
  O  O121  1  0.00882020  0.05286357  0.87620274  1.0
  O  O122  1  0.88861962  0.94905446  0.12383830  1.0
  O  O123  1  0.11142632  0.07291540  0.87617746  1.0
  O  O124  1  0.04142528  0.08367311  0.01783385  1.0
  O  O125  1  0.95857335  0.10147942  0.98218824  1.0
  O  O126  1  0.97869077  0.37570983  0.06868626  1.0
  O  O127  1  0.02132651  0.44442805  0.93125230  1.0
  O  O128  1  0.90166992  0.81440016  0.50150290  1.0
  O  O129  1  0.81041351  0.72163461  0.63532236  1.0
  O  O130  1  0.09812841  0.31538766  0.49833893  1.0
  O  O131  1  0.18954639  0.35642164  0.36458763  1.0
  O  O132  1  0.74307884  0.54751103  0.82056629  1.0
  O  O133  1  0.72999084  0.42514072  0.88900098  1.0
  O  O134  1  0.25687032  0.36798379  0.17945471  1.0
  O  O135  1  0.27002868  0.31413518  0.11092115  1.0
  O  O136  1  0.78756677  0.91074617  0.50024530  1.0
  O  O137  1  0.82797757  0.95142336  0.36680530  1.0
  O  O138  1  0.21203301  0.41100404  0.49962244  1.0
  O  O139  1  0.17144989  0.31825720  0.63314265  1.0
  O  O140  1  0.59518105  0.69546355  0.49976157  1.0
  O  O141  1  0.69228664  0.77151232  0.36389612  1.0
  O  O142  1  0.40497156  0.19583170  0.50030017  1.0
  O  O143  1  0.30784875  0.13594628  0.63614788  1.0
  O  O144  1  0.63515955  0.53812687  0.15505836  1.0
  O  O145  1  0.56183412  0.45456495  0.16626910  1.0
  O  O146  1  0.36484608  0.69315399  0.84497114  1.0
  O  O147  1  0.43813809  0.62078942  0.83375703  1.0
