# generated using pymatgen
data_Cu4H24C29N8
_symmetry_space_group_name_H-M   'P 1'
_cell_length_a   24.65448238
_cell_length_b   26.18319181
_cell_length_c   27.72368139
_cell_angle_alpha   87.62479991
_cell_angle_beta   89.51013808
_cell_angle_gamma   86.18691262
_symmetry_Int_Tables_number   1
_chemical_formula_structural   Cu4H24C29N8
_chemical_formula_sum   'Cu12 H72 C87 N24'
_cell_volume   17841.29198412
_cell_formula_units_Z   3
loop_
 _symmetry_equiv_pos_site_id
 _symmetry_equiv_pos_as_xyz
  1  'x, y, z'
loop_
 _atom_site_type_symbol
 _atom_site_label
 _atom_site_symmetry_multiplicity
 _atom_site_fract_x
 _atom_site_fract_y
 _atom_site_fract_z
 _atom_site_occupancy
  Cu  Cu0  1  0.20980942  0.22104440  0.85387819  1.0
  Cu  Cu1  1  0.14169844  0.20929064  0.76031626  1.0
  Cu  Cu2  1  0.24044956  0.12627986  0.79061680  1.0
  Cu  Cu3  1  0.17654172  0.76402524  0.13038989  1.0
  Cu  Cu4  1  0.09027575  0.77661678  0.21462719  1.0
  Cu  Cu5  1  0.19211688  0.84419926  0.21267701  1.0
  Cu  Cu6  1  0.76486455  0.20237005  0.14184428  1.0
  Cu  Cu7  1  0.86153095  0.22948336  0.20948339  1.0
  Cu  Cu8  1  0.79180891  0.13532488  0.23832626  1.0
  Cu  Cu9  1  0.80639147  0.80054927  0.85927480  1.0
  Cu  Cu10  1  0.89128065  0.80877156  0.76971336  1.0
  Cu  Cu11  1  0.81381973  0.90341806  0.79840166  1.0
  H  H12  1  0.14792324  0.31600892  0.89882158  1.0
  H  H13  1  0.04913539  0.30180402  0.77212926  1.0
  H  H14  1  0.33371677  0.06754302  0.85613485  1.0
  H  H15  1  0.29816533  0.20478451  0.93590508  1.0
  H  H16  1  0.10907562  0.16700547  0.66121262  1.0
  H  H17  1  0.24118832  0.05605972  0.70024617  1.0
  H  H18  1  0.12807496  0.67442302  0.07368343  1.0
  H  H19  1  0.00951984  0.69269057  0.18902291  1.0
  H  H20  1  0.30157111  0.89024704  0.17712500  1.0
  H  H21  1  0.28342834  0.77852782  0.06839453  1.0
  H  H22  1  0.03422661  0.80906563  0.31258169  1.0
  H  H23  1  0.17258382  0.90292620  0.31079031  1.0
  H  H24  1  0.77252912  0.28979723  0.05871639  1.0
  H  H25  1  0.90609529  0.32347772  0.15028244  1.0
  H  H26  1  0.69996728  0.05592460  0.23528741  1.0
  H  H27  1  0.66619341  0.14533045  0.10267735  1.0
  H  H28  1  0.94410689  0.22460594  0.29768757  1.0
  H  H29  1  0.85165916  0.09306442  0.33383841  1.0
  H  H30  1  0.83860230  0.68879271  0.89889334  1.0
  H  H31  1  0.95293486  0.69896976  0.77993285  1.0
  H  H32  1  0.71842973  0.97199741  0.84395274  1.0
  H  H33  1  0.70362265  0.82993819  0.92747208  1.0
  H  H34  1  0.94419024  0.85412152  0.67221789  1.0
  H  H35  1  0.83833212  0.98350583  0.71466131  1.0
  H  H36  1  0.08971874  0.38678433  0.91909242  1.0
  H  H37  1  0.97694083  0.44348833  0.89782325  1.0
  H  H38  1  0.00911739  0.37832734  0.83584583  1.0
  H  H39  1  0.06267021  0.44518366  0.97792582  1.0
  H  H40  1  0.07054150  0.60908118  0.04285226  1.0
  H  H41  1  0.97709511  0.54070521  0.07554433  1.0
  H  H42  1  0.99354806  0.61094855  0.13096019  1.0
  H  H43  1  0.04853078  0.54852108  0.98395871  1.0
  H  H44  1  0.92971102  0.38654984  0.08864314  1.0
  H  H45  1  0.88814374  0.44325129  0.99366814  1.0
  H  H46  1  0.82927528  0.37422605  0.02580044  1.0
  H  H47  1  0.99114390  0.44565015  0.05566509  1.0
  H  H48  1  0.88257886  0.60277289  0.91882792  1.0
  H  H49  1  0.98831204  0.53704419  0.89422512  1.0
  H  H50  1  0.96776855  0.60963608  0.83721963  1.0
  H  H51  1  0.90789925  0.53670503  0.97997527  1.0
  H  H52  1  0.38961814  0.03555069  0.92808686  1.0
  H  H53  1  0.45176072  0.07923509  0.01308275  1.0
  H  H54  1  0.38471815  0.14166936  0.97258006  1.0
  H  H55  1  0.44663501  0.97189677  0.97204092  1.0
  H  H56  1  0.62705003  0.88390816  0.97711730  1.0
  H  H57  1  0.55161581  0.98110744  0.95064644  1.0
  H  H58  1  0.62695398  0.97142133  0.89935616  1.0
  H  H59  1  0.55490359  0.91017825  0.04238223  1.0
  H  H60  1  0.37649747  0.92240170  0.12453128  1.0
  H  H61  1  0.45438614  0.88470356  0.04233301  1.0
  H  H62  1  0.37908589  0.82928586  0.05993632  1.0
  H  H63  1  0.44063947  0.98499009  0.09714079  1.0
  H  H64  1  0.60304419  0.08217539  0.08391702  1.0
  H  H65  1  0.53890226  0.99303898  0.12881703  1.0
  H  H66  1  0.61045289  0.02583611  0.18367204  1.0
  H  H67  1  0.54697602  0.04652918  0.02803567  1.0
  H  H68  1  0.08919628  0.11110892  0.59677857  1.0
  H  H69  1  0.13661944  0.01851710  0.53912889  1.0
  H  H70  1  0.19322080  0.04038620  0.61087043  1.0
  H  H71  1  0.02763818  0.08344651  0.54070290  1.0
  H  H72  1  0.91838874  0.07079039  0.39696487  1.0
  H  H73  1  0.01508672  0.11269045  0.45144391  1.0
  H  H74  1  0.97750561  0.17041325  0.38263067  1.0
  H  H75  1  0.95956469  0.01038197  0.45400038  1.0
  H  H76  1  0.98072956  0.91660251  0.60846122  1.0
  H  H77  1  0.93746762  0.01491887  0.54987507  1.0
  H  H78  1  0.88554820  0.99652559  0.62418176  1.0
  H  H79  1  0.04359690  0.94587319  0.54559555  1.0
  H  H80  1  0.12493799  0.94717739  0.38412079  1.0
  H  H81  1  0.03443437  0.92107469  0.45856132  1.0
  H  H82  1  0.04209667  0.86426000  0.39368597  1.0
  H  H83  1  0.10135604  0.01608220  0.44421897  1.0
  C  C84  1  0.12963654  0.30616416  0.86527748  1.0
  C  C85  1  0.08264806  0.32798382  0.84183258  1.0
  C  C86  1  0.07918960  0.29862095  0.80067885  1.0
  C  C87  1  0.31814629  0.10368729  0.87031902  1.0
  C  C88  1  0.33419716  0.12867345  0.91143710  1.0
  C  C89  1  0.30028344  0.17403198  0.91072288  1.0
  C  C90  1  0.14262351  0.14389087  0.67774349  1.0
  C  C91  1  0.17185605  0.09992662  0.66108931  1.0
  C  C92  1  0.21029931  0.08756928  0.69765317  1.0
  C  C93  1  0.10343809  0.68558298  0.10459046  1.0
  C  C94  1  0.05604313  0.66492666  0.12366226  1.0
  C  C95  1  0.04316369  0.69485849  0.16366459  1.0
  C  C96  1  0.28899084  0.86085935  0.15393648  1.0
  C  C97  1  0.31479559  0.84042902  0.11278485  1.0
  C  C98  1  0.27983602  0.80345134  0.09876265  1.0
  C  C99  1  0.07099193  0.82862086  0.30482318  1.0
  C  C100  1  0.09575672  0.86473104  0.33203694  1.0
  C  C101  1  0.14129393  0.87697362  0.30384777  1.0
  C  C102  1  0.80309217  0.29141100  0.08648652  1.0
  C  C103  1  0.84474600  0.32530523  0.08989018  1.0
  C  C104  1  0.87142837  0.30858603  0.13303308  1.0
  C  C105  1  0.69862724  0.08299373  0.20451447  1.0
  C  C106  1  0.66337918  0.08661709  0.16470888  1.0
  C  C107  1  0.68150929  0.12834559  0.13666212  1.0
  C  C108  1  0.91594433  0.19441608  0.29987268  1.0
  C  C109  1  0.91262502  0.15395965  0.33457218  1.0
  C  C110  1  0.86903930  0.12708841  0.31833945  1.0
  C  C111  1  0.86264384  0.69913121  0.86746291  1.0
  C  C112  1  0.90563963  0.67105585  0.84470291  1.0
  C  C113  1  0.92099218  0.70456404  0.80677086  1.0
  C  C114  1  0.72250583  0.93359676  0.86044404  1.0
  C  C115  1  0.68989848  0.91088626  0.89613067  1.0
  C  C116  1  0.71508904  0.86128575  0.90350944  1.0
  C  C117  1  0.91616782  0.88138937  0.68962555  1.0
  C  C118  1  0.89781652  0.93153766  0.67432371  1.0
  C  C119  1  0.86164664  0.94718822  0.71115653  1.0
  C  C120  1  0.03336430  0.01506984  0.49712281  1.0
  C  C121  1  0.98622954  0.49178838  0.98725896  1.0
  C  C122  1  0.49779502  0.97974486  0.03554238  1.0
  C  C123  1  0.04567810  0.36929655  0.85749914  1.0
  C  C124  1  0.05280782  0.39575826  0.89779899  1.0
  C  C125  1  0.01502504  0.43391897  0.91716256  1.0
  C  C126  1  0.02450799  0.45623807  0.95911197  1.0
  C  C127  1  0.02702617  0.62265907  0.10772266  1.0
  C  C128  1  0.03787881  0.59697985  0.06688349  1.0
  C  C129  1  0.00884293  0.55474591  0.05152168  1.0
  C  C130  1  0.01821756  0.53302736  0.00860114  1.0
  C  C131  1  0.85718252  0.36653578  0.05614180  1.0
  C  C132  1  0.90117903  0.39479104  0.05879937  1.0
  C  C133  1  0.91586762  0.43374054  0.02389762  1.0
  C  C134  1  0.96334360  0.45656166  0.02582462  1.0
  C  C135  1  0.93180054  0.62167108  0.85837484  1.0
  C  C136  1  0.91822419  0.59137494  0.89695952  1.0
  C  C137  1  0.95169726  0.54786290  0.91503808  1.0
  C  C138  1  0.94370536  0.52439392  0.95873117  1.0
  C  C139  1  0.37484986  0.11276964  0.94716952  1.0
  C  C140  1  0.40019332  0.06531195  0.95235698  1.0
  C  C141  1  0.43957408  0.04989966  0.98904160  1.0
  C  C142  1  0.46038544  0.00107350  0.99543289  1.0
  C  C143  1  0.64163189  0.93508998  0.91727674  1.0
  C  C144  1  0.61324364  0.91890284  0.95655294  1.0
  C  C145  1  0.56619548  0.94820231  0.97390174  1.0
  C  C146  1  0.54072874  0.94097631  0.01675296  1.0
  C  C147  1  0.36425183  0.85415810  0.08868752  1.0
  C  C148  1  0.39177826  0.89607117  0.09707573  1.0
  C  C149  1  0.43789082  0.91126211  0.06916621  1.0
  C  C150  1  0.45847276  0.95767451  0.07166238  1.0
  C  C151  1  0.62000738  0.05396695  0.15505435  1.0
  C  C152  1  0.59230789  0.05487535  0.11292510  1.0
  C  C153  1  0.55168446  0.02059579  0.10084573  1.0
  C  C154  1  0.53195643  0.01968104  0.05555784  1.0
  C  C155  1  0.16339635  0.07202406  0.61815707  1.0
  C  C156  1  0.11994821  0.08051107  0.58850460  1.0
  C  C157  1  0.10689908  0.04925811  0.54928471  1.0
  C  C158  1  0.05730768  0.05369693  0.52844460  1.0
  C  C159  1  0.94757517  0.14254715  0.37575276  1.0
  C  C160  1  0.94744985  0.09931682  0.40447611  1.0
  C  C161  1  0.98552243  0.08511944  0.44252141  1.0
  C  C162  1  0.98829459  0.03797764  0.46456489  1.0
  C  C163  1  0.91126153  0.96138144  0.63146565  1.0
  C  C164  1  0.95315813  0.95045224  0.60078144  1.0
  C  C165  1  0.96633033  0.98253529  0.55956894  1.0
  C  C166  1  0.01352842  0.97672705  0.53467389  1.0
  C  C167  1  0.07588552  0.88404406  0.37732328  1.0
  C  C168  1  0.09253894  0.92516033  0.40002165  1.0
  C  C169  1  0.06571883  0.94444875  0.44245245  1.0
  C  C170  1  0.07228284  0.99071095  0.46074146  1.0
  N  N171  1  0.12070673  0.26230270  0.79989492  1.0
  N  N172  1  0.15191701  0.26719804  0.84009698  1.0
  N  N173  1  0.26667732  0.17570217  0.87253700  1.0
  N  N174  1  0.27791243  0.13207721  0.84733290  1.0
  N  N175  1  0.20420030  0.12122939  0.73319015  1.0
  N  N176  1  0.16217018  0.15633706  0.72062202  1.0
  N  N177  1  0.07990918  0.73023615  0.16802864  1.0
  N  N178  1  0.11741318  0.72435833  0.13136144  1.0
  N  N179  1  0.23670397  0.80224276  0.12892619  1.0
  N  N180  1  0.24257775  0.83780765  0.16333606  1.0
  N  N181  1  0.14315637  0.85017250  0.26331133  1.0
  N  N182  1  0.09932803  0.82028198  0.26383690  1.0
  N  N183  1  0.84744018  0.26820017  0.15334135  1.0
  N  N184  1  0.80499908  0.25733567  0.12440888  1.0
  N  N185  1  0.72391507  0.14770594  0.15821918  1.0
  N  N186  1  0.73474221  0.11946860  0.20036239  1.0
  N  N187  1  0.84851054  0.14982685  0.27738629  1.0
  N  N188  1  0.87768601  0.19163207  0.26574784  1.0
  N  N189  1  0.88983368  0.74888879  0.80707186  1.0
  N  N190  1  0.85355333  0.74542384  0.84488596  1.0
  N  N191  1  0.75879337  0.85524129  0.87421161  1.0
  N  N192  1  0.76353380  0.90029491  0.84765818  1.0
  N  N193  1  0.85881172  0.90952104  0.74550381  1.0
  N  N194  1  0.89246096  0.86851959  0.73200029  1.0
