# generated using pymatgen
data_Zn2H14C24N8OF4
_symmetry_space_group_name_H-M   'P 1'
_cell_length_a   14.80304696
_cell_length_b   14.83783280
_cell_length_c   14.84895268
_cell_angle_alpha   113.80159639
_cell_angle_beta   100.22638996
_cell_angle_gamma   114.19826572
_symmetry_Int_Tables_number   1
_chemical_formula_structural   Zn2H14C24N8OF4
_chemical_formula_sum   'Zn4 H28 C48 N16 O2 F8'
_cell_volume   2481.44076004
_cell_formula_units_Z   2
loop_
 _symmetry_equiv_pos_site_id
 _symmetry_equiv_pos_as_xyz
  1  'x, y, z'
loop_
 _atom_site_type_symbol
 _atom_site_label
 _atom_site_symmetry_multiplicity
 _atom_site_fract_x
 _atom_site_fract_y
 _atom_site_fract_z
 _atom_site_occupancy
  Zn  Zn102  1  0.01169664  0.87010200  0.86322251  1.0
  Zn  Zn103  1  0.15926754  0.15485195  0.00570375  1.0
  Zn  Zn104  1  0.01458302  0.15468892  0.15350631  1.0
  Zn  Zn105  1  0.86891281  0.87049289  0.01073439  1.0
  H  H56  1  0.16402079  0.81465592  0.98728916  1.0
  H  H57  1  0.25488871  0.20127643  0.83207293  1.0
  H  H58  1  0.08192948  0.82296980  0.49376822  1.0
  H  H59  1  0.50815667  0.18943469  0.25016936  1.0
  H  H60  1  0.25016984  0.19473714  0.50624576  1.0
  H  H61  1  0.49593950  0.82106845  0.06061183  1.0
  H  H62  1  0.50894464  0.75635006  0.68420125  1.0
  H  H63  1  0.34436586  0.60470424  0.51743197  1.0
  H  H64  1  0.54143768  0.56486074  0.34092135  1.0
  H  H65  1  0.70541743  0.71549996  0.50722661  1.0
  H  H66  1  0.18522596  0.19558510  0.35607224  1.0
  H  H67  1  0.64936964  0.82508841  0.05722629  1.0
  H  H68  1  0.38671423  0.41957551  0.18416908  1.0
  H  H69  1  0.86196717  0.85315380  0.66607016  1.0
  H  H70  1  0.75666308  0.59126527  0.94559595  1.0
  H  H71  1  0.84008664  0.18878078  0.03061972  1.0
  H  H72  1  0.99802009  0.81762186  0.16350385  1.0
  H  H73  1  0.83691705  0.20232259  0.24686159  1.0
  H  H74  1  0.35894934  0.19258416  0.17826338  1.0
  H  H75  1  0.05879391  0.82414632  0.64200551  1.0
  H  H76  1  0.90453334  0.24501878  0.74663990  1.0
  H  H77  1  0.93833660  0.43651495  0.77544487  1.0
  H  H78  1  0.99242241  0.50735817  0.03548510  1.0
  H  H79  1  0.99263226  0.42639253  0.09853658  1.0
  H  H80  1  0.91112378  0.48945455  0.11078330  1.0
  H  H81  1  0.59526346  0.27267675  0.66879728  1.0
  H  H82  1  0.61940826  0.41311352  0.75749326  1.0
  H  H83  1  0.55242940  0.29569167  0.77760631  1.0
  C  C0  1  0.19740112  0.90749920  0.02642125  1.0
  C  C1  1  0.20461384  0.10890514  0.80044040  1.0
  C  C2  1  0.11347574  0.00533617  0.30094516  1.0
  C  C3  1  0.70184643  0.01341312  0.16110816  1.0
  C  C4  1  0.33346470  0.46635559  0.32056043  1.0
  C  C5  1  0.71802325  0.81527130  0.71040088  1.0
  C  C6  1  0.83163867  0.53828135  0.83102863  1.0
  C  C7  1  0.91380376  0.21633039  0.91665413  1.0
  C  C8  1  0.87940910  0.29443394  0.80173927  1.0
  C  C9  1  0.87317326  0.38511122  0.79165857  1.0
  C  C10  1  0.87693183  0.28180057  0.88703550  1.0
  C  C11  1  0.80547578  0.42345954  0.81010812  1.0
  C  C12  1  0.11002450  0.90500828  0.40412236  1.0
  C  C13  1  0.59860808  0.10869240  0.22145463  1.0
  C  C14  1  0.12112939  0.90621470  0.49912811  1.0
  C  C15  1  0.50283246  0.10672191  0.20883266  1.0
  C  C16  1  0.17595261  0.01167939  0.59987243  1.0
  C  C17  1  0.40109930  0.00185589  0.13927788  1.0
  C  C18  1  0.22657752  0.11251027  0.59587285  1.0
  C  C19  1  0.40566231  0.90120572  0.09417969  1.0
  C  C20  1  0.21378555  0.11135990  0.50081490  1.0
  C  C21  1  0.50140358  0.90340041  0.10534757  1.0
  C  C22  1  0.13211392  0.10334643  0.29472843  1.0
  C  C23  1  0.71018134  0.91774801  0.10181480  1.0
  C  C24  1  0.14924273  0.00607656  0.39947457  1.0
  C  C25  1  0.60302019  0.00933537  0.16652812  1.0
  C  C26  1  0.51693964  0.71477507  0.60926277  1.0
  C  C27  1  0.42341177  0.62857974  0.51451737  1.0
  C  C28  1  0.42940250  0.56917229  0.41649282  1.0
  C  C29  1  0.62065336  0.74505536  0.61022986  1.0
  C  C30  1  0.53330162  0.60698580  0.41580419  1.0
  C  C31  1  0.62649719  0.69278417  0.51025487  1.0
  C  C32  1  0.32514731  0.40108735  0.21590177  1.0
  C  C33  1  0.82651441  0.85327042  0.72414951  1.0
  C  C34  1  0.80612726  0.61111974  0.90231532  1.0
  C  C35  1  0.89561769  0.18477509  0.99244903  1.0
  C  C36  1  0.22831989  0.39804470  0.31006711  1.0
  C  C37  1  0.72538618  0.83960048  0.81409528  1.0
  C  C38  1  0.89911324  0.61219140  0.80407193  1.0
  C  C39  1  0.99333732  0.19213849  0.89833700  1.0
  C  C40  1  0.03594004  0.91033889  0.19630748  1.0
  C  C41  1  0.80589079  0.11014618  0.19787031  1.0
  C  C42  1  0.29703125  0.10047916  0.12420224  1.0
  C  C43  1  0.10414920  0.91657320  0.70298612  1.0
  C  C44  1  0.30259148  0.00194205  0.10429756  1.0
  C  C45  1  0.16755211  0.01331916  0.69673776  1.0
  C  C46  1  0.94232042  0.44759347  0.05711409  1.0
  C  C47  1  0.61537530  0.33542442  0.75273580  1.0
  N  N84  1  0.13674455  0.94804612  0.00150463  1.0
  N  N85  1  0.16580143  0.07162879  0.86199118  1.0
  N  N86  1  0.06909398  0.06850222  0.19567307  1.0
  N  N87  1  0.80973213  0.95432966  0.10263779  1.0
  N  N88  1  0.22503218  0.30477147  0.15179398  1.0
  N  N89  1  0.88925962  0.89338906  0.82578146  1.0
  N  N90  1  0.85494605  0.71724684  0.91547957  1.0
  N  N91  1  0.95994827  0.14713477  0.01587393  1.0
  N  N92  1  0.16366011  0.30283979  0.21164956  1.0
  N  N93  1  0.82584487  0.88482248  0.88227196  1.0
  N  N94  1  0.91370063  0.71786781  0.85307700  1.0
  N  N95  1  0.02149153  0.15201980  0.95721276  1.0
  N  N96  1  0.00992624  0.95006397  0.13518869  1.0
  N  N97  1  0.86951825  0.07424605  0.16234594  1.0
  N  N98  1  0.19777617  0.06648945  0.06141141  1.0
  N  N99  1  0.10328972  0.95181759  0.80134595  1.0
  O  O100  1  0.84918675  0.34452903  0.96239266  1.0
  O  O101  1  0.71529930  0.36404095  0.82489729  1.0
  F  F48  1  0.05114737  0.79798975  0.30964171  1.0
  F  F49  1  0.69400157  0.21535068  0.28698513  1.0
  F  F50  1  0.28726774  0.21946981  0.69059582  1.0
  F  F51  1  0.31069384  0.79426981  0.02896369  1.0
  F  F52  1  0.18767704  0.41561390  0.38575786  1.0
  F  F53  1  0.64471943  0.81857222  0.84824700  1.0
  F  F54  1  0.94921873  0.58968322  0.73807990  1.0
  F  F55  1  0.04314299  0.20826226  0.83379914  1.0
