# generated using pymatgen
data_Zn2H33C47N3(ClO4)2
_symmetry_space_group_name_H-M   'P 1'
_cell_length_a   10.90816399
_cell_length_b   14.62230648
_cell_length_c   15.52582003
_cell_angle_alpha   79.96219077
_cell_angle_beta   88.90516177
_cell_angle_gamma   71.90133032
_symmetry_Int_Tables_number   1
_chemical_formula_structural   Zn2H33C47N3(ClO4)2
_chemical_formula_sum   'Zn2 H33 C47 N3 Cl2 O8'
_cell_volume   2316.22628859
_cell_formula_units_Z   1
loop_
 _symmetry_equiv_pos_site_id
 _symmetry_equiv_pos_as_xyz
  1  'x, y, z'
loop_
 _atom_site_type_symbol
 _atom_site_label
 _atom_site_symmetry_multiplicity
 _atom_site_fract_x
 _atom_site_fract_y
 _atom_site_fract_z
 _atom_site_occupancy
  Zn  Zn0  1  0.46357451  0.59553509  0.51736513  1.0
  Zn  Zn1  1  0.54648409  0.40522323  0.48404296  1.0
  H  H2  1  0.83814449  0.65105214  0.44532235  1.0
  H  H3  1  0.86315166  0.57415066  0.36651917  1.0
  H  H4  1  0.31087810  0.63209530  0.85179030  1.0
  H  H5  1  0.52941433  0.18781411  0.91611621  1.0
  H  H6  1  0.72873496  0.97428710  0.32355103  1.0
  H  H7  1  0.54206346  0.76565077  0.46243889  1.0
  H  H8  1  0.29082362  0.70109176  0.64648338  1.0
  H  H9  1  0.26545915  0.03293494  0.66710854  1.0
  H  H10  1  0.76213210  0.13915806  0.30224455  1.0
  H  H11  1  0.71207009  0.30282155  0.34919810  1.0
  H  H12  1  0.46491491  0.23702220  0.53601101  1.0
  H  H13  1  0.17483856  0.34236884  0.53616129  1.0
  H  H14  1  0.08153088  0.56325047  0.36042524  1.0
  H  H15  1  0.62511844  0.85887333  0.39989693  1.0
  H  H16  1  0.36963347  0.14809272  0.59121443  1.0
  H  H17  1  0.23578836  0.86659538  0.69065291  1.0
  H  H18  1  0.05361378  0.64957658  0.43115051  1.0
  H  H19  1  0.85807764  0.58648968  0.60004503  1.0
  H  H20  1  0.07052194  0.59049176  0.59685516  1.0
  H  H21  1  0.96205147  0.33964320  0.52896824  1.0
  H  H22  1  0.94768367  0.38971642  0.41680771  1.0
  H  H23  1  0.16530843  0.38272022  0.42210356  1.0
  H  H24  1  0.12451249  0.46388650  0.63931949  1.0
  H  H25  1  0.34255337  0.40290448  0.20700302  1.0
  H  H26  1  0.36840458  0.24903098  0.27996174  1.0
  H  H27  1  0.48788979  0.19795477  0.20761769  1.0
  H  H28  1  0.32124548  0.22924605  0.17661737  1.0
  H  H29  1  0.24910976  0.75802102  0.94396514  1.0
  H  H30  1  0.41965885  0.53859507  0.78101606  1.0
  H  H31  1  0.55538142  0.23759640  0.75636177  1.0
  H  H32  1  0.46083045  0.23260131  0.05860607  1.0
  H  H33  1  0.33887680  0.76020993  0.24619861  1.0
  H  H34  1  0.47802386  0.45934772  0.22153897  1.0
  C  C35  1  0.46504236  0.57547301  0.33415218  1.0
  C  C36  1  0.37594633  0.55560078  0.10410188  1.0
  C  C37  1  0.32269157  0.65698461  0.06494315  1.0
  C  C38  1  0.74449349  0.49850692  0.50179732  1.0
  C  C39  1  0.38940591  0.48090587  0.05090105  1.0
  C  C40  1  0.38039376  0.50949366  0.95865729  1.0
  C  C41  1  0.32773150  0.61084310  0.92241470  1.0
  C  C42  1  0.29356888  0.68164957  0.97337715  1.0
  C  C43  1  0.41037992  0.37815520  0.08706133  1.0
  C  C44  1  0.44415561  0.30965210  0.03192536  1.0
  C  C45  1  0.45809586  0.33613240  0.94096429  1.0
  C  C46  1  0.12481384  0.49906756  0.49748812  1.0
  C  C47  1  0.42311999  0.43729881  0.90248459  1.0
  C  C48  1  0.50379965  0.26499217  0.88638341  1.0
  C  C49  1  0.51825498  0.29206351  0.79809007  1.0
  C  C50  1  0.50633302  0.42366290  0.66568600  1.0
  C  C51  1  0.43961570  0.46263151  0.81242364  1.0
  C  C52  1  0.69557641  0.15780690  0.35440737  1.0
  C  C53  1  0.66945840  0.24741865  0.37966785  1.0
  C  C54  1  0.52897856  0.21040074  0.48489112  1.0
  C  C55  1  0.54810366  0.11709132  0.46380064  1.0
  C  C56  1  0.63608400  0.08968071  0.39662758  1.0
  C  C57  1  0.06632149  0.51921397  0.58614736  1.0
  C  C58  1  0.48450628  0.04988087  0.50803190  1.0
  C  C59  1  0.51343329  0.95597535  0.48503853  1.0
  C  C60  1  0.60268437  0.93087728  0.41783955  1.0
  C  C61  1  0.66121256  0.99508559  0.37477758  1.0
  C  C62  1  0.26291157  0.50367524  0.49652031  1.0
  C  C63  1  0.39356315  0.07557534  0.57418741  1.0
  C  C64  1  0.33463527  0.01147194  0.61693625  1.0
  C  C65  1  0.36215724  0.91602121  0.59651820  1.0
  C  C66  1  0.45138068  0.88817331  0.53013348  1.0
  C  C67  1  0.30385361  0.84741844  0.63940133  1.0
  C  C68  1  0.11834492  0.39927203  0.48323809  1.0
  C  C69  1  0.33312330  0.75668398  0.61597312  1.0
  C  C70  1  0.47470461  0.79334574  0.51156946  1.0
  C  C71  1  0.90017293  0.58141977  0.42952433  1.0
  C  C72  1  0.04296430  0.57892227  0.42414038  1.0
  C  C73  1  0.92564571  0.51720958  0.58796392  1.0
  C  C74  1  0.97661041  0.39964552  0.48111614  1.0
  C  C75  1  0.88564165  0.49691932  0.50027818  1.0
  C  C76  1  0.39216875  0.25174486  0.21081516  1.0
  C  C77  1  0.41291889  0.60570579  0.24129389  1.0
  C  C78  1  0.48756577  0.39210750  0.76034869  1.0
  C  C79  1  0.30800036  0.72854956  0.11914185  1.0
  C  C80  1  0.35034949  0.70452273  0.20577182  1.0
  C  C81  1  0.42431813  0.53364608  0.19153185  1.0
  N  N82  1  0.58779411  0.27233240  0.44491692  1.0
  N  N83  1  0.41762016  0.73070315  0.55243881  1.0
  N  N84  1  0.39346875  0.34948574  0.17475816  1.0
  Cl  Cl85  1  0.90423712  0.42807952  0.67923307  1.0
  Cl  Cl86  1  0.23809871  0.85175379  0.07472141  1.0
  O  O87  1  0.43703094  0.64036184  0.38287278  1.0
  O  O88  1  0.53102762  0.48610400  0.35766139  1.0
  O  O89  1  0.65951911  0.57937409  0.50775609  1.0
  O  O90  1  0.72325877  0.41898994  0.49653801  1.0
  O  O91  1  0.49241924  0.51429179  0.64027932  1.0
  O  O92  1  0.53360672  0.35903307  0.61651012  1.0
  O  O93  1  0.28057501  0.57900775  0.51766704  1.0
  O  O94  1  0.35003001  0.43225764  0.47364914  1.0
