# generated using pymatgen
data_Zn4H27C36Cl3O13
_symmetry_space_group_name_H-M   'P 1'
_cell_length_a   18.42766564
_cell_length_b   18.43800474
_cell_length_c   18.45647428
_cell_angle_alpha   119.96484276
_cell_angle_beta   90.56065220
_cell_angle_gamma   119.32967116
_symmetry_Int_Tables_number   1
_chemical_formula_structural   Zn4H27C36Cl3O13
_chemical_formula_sum   'Zn8 H54 C72 Cl6 O26'
_cell_volume   4459.47594790
_cell_formula_units_Z   2
loop_
 _symmetry_equiv_pos_site_id
 _symmetry_equiv_pos_as_xyz
  1  'x, y, z'
loop_
 _atom_site_type_symbol
 _atom_site_label
 _atom_site_symmetry_multiplicity
 _atom_site_fract_x
 _atom_site_fract_y
 _atom_site_fract_z
 _atom_site_occupancy
  Zn  Zn0  1  0.86972271  0.41576177  0.96183968  1.0
  Zn  Zn1  1  0.45612086  0.58827316  0.54724085  1.0
  Zn  Zn2  1  0.04308485  0.58914491  0.13499664  1.0
  Zn  Zn3  1  0.04038231  0.41173858  0.95612329  1.0
  Zn  Zn4  1  0.45893103  0.41090065  0.37294646  1.0
  Zn  Zn5  1  0.45458224  0.41424835  0.54591340  1.0
  Zn  Zn6  1  0.04305086  0.58861133  0.96152999  1.0
  Zn  Zn7  1  0.62985435  0.59040810  0.54698301  1.0
  H  H8  1  0.68448762  0.09803239  0.84628711  1.0
  H  H9  1  0.30223458  0.61400115  0.41098809  1.0
  H  H10  1  0.98380267  0.19055851  0.73513110  1.0
  H  H11  1  0.98356712  0.08455168  0.65386556  1.0
  H  H12  1  0.61845657  0.16568573  0.22848525  1.0
  H  H13  1  0.56111117  0.04152929  0.20318704  1.0
  H  H14  1  0.60702857  0.06448878  0.12681122  1.0
  H  H15  1  0.44163256  0.97747096  0.07751947  1.0
  H  H16  1  0.49684627  0.09747169  0.09593064  1.0
  H  H17  1  0.48189876  0.17551435  0.24528060  1.0
  H  H18  1  0.44030135  0.06204330  0.23727939  1.0
  H  H19  1  0.20598908  0.61452935  0.31628040  1.0
  H  H20  1  0.24665552  0.27435258  0.12591667  1.0
  H  H21  1  0.15028261  0.27572679  0.02918671  1.0
  H  H22  1  0.34266262  0.36715850  0.12352901  1.0
  H  H23  1  0.24633216  0.36954064  0.02789911  1.0
  H  H24  1  0.23938792  0.09802783  0.40616018  1.0
  H  H25  1  0.68248467  0.38437419  0.79833912  1.0
  H  H26  1  0.58675028  0.38428652  0.70231816  1.0
  H  H27  1  0.86843411  0.71917626  0.75424157  1.0
  H  H28  1  0.96617225  0.71919476  0.85144688  1.0
  H  H29  1  0.87100523  0.62526010  0.65794447  1.0
  H  H30  1  0.96800818  0.62468499  0.75496776  1.0
  H  H31  1  0.58969004  0.90834623  0.75148357  1.0
  H  H32  1  0.14158326  0.90874130  0.31181054  1.0
  H  H33  1  0.83836452  0.89942951  0.61239436  1.0
  H  H34  1  0.30621143  0.89085465  0.07947177  1.0
  H  H35  1  0.97068480  0.09499086  0.79408354  1.0
  H  H36  1  0.34591195  0.09458680  0.12982203  1.0
  H  H37  1  0.89869187  0.67141043  0.31098579  1.0
  H  H38  1  0.30872759  0.63109132  0.72067837  1.0
  H  H39  1  0.80291678  0.66952645  0.40499061  1.0
  H  H40  1  0.59423981  0.27202077  0.18972665  1.0
  H  H41  1  0.21474049  0.63129002  0.81665459  1.0
  H  H42  1  0.75695689  0.16168620  0.13879316  1.0
  H  H43  1  0.84837820  0.25105077  0.12950102  1.0
  H  H44  1  0.84890314  0.27423730  0.23524446  1.0
  H  H45  1  0.81586788  0.38149343  0.21711228  1.0
  H  H46  1  0.72556961  0.29505324  0.22822518  1.0
  H  H47  1  0.65119391  0.17682098  0.06067942  1.0
  H  H48  1  0.74392323  0.26317298  0.05071530  1.0
  H  H49  1  0.13282355  0.27242597  0.72821202  1.0
  H  H50  1  0.13101224  0.12549524  0.42308409  1.0
  H  H51  1  0.06709528  0.05842357  0.46675685  1.0
  H  H52  1  0.02879305  0.10944945  0.42921959  1.0
  H  H53  1  0.08898668  0.22138554  0.59387168  1.0
  H  H54  1  0.15583095  0.28734172  0.55183557  1.0
  H  H55  1  0.26576675  0.25284365  0.57335382  1.0
  H  H56  1  0.19895344  0.17874814  0.61011097  1.0
  H  H57  1  0.94183206  0.20446608  0.61034861  1.0
  H  H58  1  0.93189578  0.09190907  0.52612791  1.0
  H  H59  1  0.84075201  0.10096577  0.52079324  1.0
  H  H60  1  0.82029373  0.99243520  0.57367837  1.0
  H  H61  1  0.82548894  0.10140644  0.65457140  1.0
  C  C62  1  0.13598390  0.50089962  0.86412786  1.0
  C  C63  1  0.18249649  0.89093482  0.19849729  1.0
  C  C64  1  0.36451580  0.49680289  0.36029386  1.0
  C  C65  1  0.12976855  0.77763199  0.14364338  1.0
  C  C66  1  0.63480965  0.77853802  0.64957203  1.0
  C  C67  1  0.85770301  0.22470806  0.87088381  1.0
  C  C68  1  0.35790270  0.22337151  0.36677611  1.0
  C  C69  1  0.83410410  0.05418788  0.76946264  1.0
  C  C70  1  0.69238721  0.89202816  0.70942063  1.0
  C  C71  1  0.29528312  0.05213884  0.22219164  1.0
  C  C72  1  0.80151181  0.11139076  0.81677512  1.0
  C  C73  1  0.29742718  0.11012705  0.30871473  1.0
  C  C74  1  0.71218271  0.05585575  0.80999229  1.0
  C  C75  1  0.23920670  0.05524588  0.33876529  1.0
  C  C76  1  0.70454716  0.25817599  0.09457782  1.0
  C  C77  1  0.76376789  0.29985399  0.18333409  1.0
  C  C78  1  0.80676834  0.24352013  0.17109528  1.0
  C  C79  1  0.21717177  0.24402311  0.60794176  1.0
  C  C80  1  0.13566109  0.22356971  0.55690304  1.0
  C  C81  1  0.08804937  0.12381563  0.46395267  1.0
  C  C82  1  0.78146742  0.94798750  0.71862476  1.0
  C  C83  1  0.94164323  0.10691737  0.68758379  1.0
  C  C84  1  0.86529645  0.07620404  0.61967568  1.0
  C  C85  1  0.89658446  0.12072354  0.56627770  1.0
  C  C86  1  0.44172657  0.09183863  0.19780297  1.0
  C  C87  1  0.48607405  0.05994727  0.12992154  1.0
  C  C88  1  0.57293208  0.08418267  0.17407074  1.0
  C  C89  1  0.23820853  0.94603182  0.16855431  1.0
  C  C90  1  0.85344881  0.94010717  0.68450428  1.0
  C  C91  1  0.27845738  0.93564699  0.09596763  1.0
  C  C92  1  0.64078965  0.50952057  0.36829246  1.0
  C  C93  1  0.91303521  0.06089063  0.74046376  1.0
  C  C94  1  0.34741635  0.05580281  0.15900538  1.0
  C  C95  1  0.72059596  0.42911673  0.17048246  1.0
  C  C96  1  0.27139975  0.43359340  0.72162457  1.0
  C  C97  1  0.80548752  0.51527069  0.20021184  1.0
  C  C98  1  0.30442773  0.50308251  0.69920933  1.0
  C  C99  1  0.83292285  0.60245036  0.28550712  1.0
  C  C100  1  0.28304254  0.57479399  0.73571669  1.0
  C  C101  1  0.77915258  0.60139085  0.33844451  1.0
  C  C102  1  0.23022258  0.57485290  0.78949598  1.0
  C  C103  1  0.69504715  0.51296472  0.30929997  1.0
  C  C104  1  0.19503905  0.50259737  0.80957175  1.0
  C  C105  1  0.86489540  0.51294321  0.14615557  1.0
  C  C106  1  0.35959330  0.50286708  0.64068716  1.0
  C  C107  1  0.66734058  0.42785653  0.22340204  1.0
  C  C108  1  0.65905679  0.94934564  0.75719391  1.0
  C  C109  1  0.21819946  0.43328625  0.77471131  1.0
  C  C110  1  0.59948836  0.31397603  0.16168928  1.0
  C  C111  1  0.20143850  0.33958852  0.76500074  1.0
  C  C112  1  0.66217858  0.31414417  0.10149000  1.0
  C  C113  1  0.26300840  0.33918385  0.70368691  1.0
  C  C114  1  0.18391843  0.94887994  0.28567016  1.0
  C  C115  1  0.22232213  0.43012216  0.15605966  1.0
  C  C116  1  0.27630278  0.42961457  0.20944408  1.0
  C  C117  1  0.19554007  0.49598219  0.19220126  1.0
  C  C118  1  0.30672532  0.49519256  0.30192272  1.0
  C  C119  1  0.22577670  0.56219598  0.28586520  1.0
  C  C120  1  0.27965713  0.56188755  0.33892187  1.0
  C  C121  1  0.27744205  0.34552842  0.13064948  1.0
  C  C122  1  0.21681100  0.34645977  0.07035593  1.0
  C  C123  1  0.84052031  0.56510349  0.77934251  1.0
  C  C124  1  0.78673961  0.56496765  0.72530738  1.0
  C  C125  1  0.80519896  0.50040794  0.80658880  1.0
  C  C126  1  0.69478456  0.50014001  0.69562191  1.0
  C  C127  1  0.71204888  0.43525062  0.77754373  1.0
  C  C128  1  0.65846876  0.43515088  0.72374575  1.0
  C  C129  1  0.86172568  0.49930183  0.86328115  1.0
  C  C130  1  0.63709574  0.49857919  0.63741507  1.0
  C  C131  1  0.86445363  0.64811424  0.72368835  1.0
  C  C132  1  0.92537425  0.64804797  0.78461560  1.0
  C  C133  1  0.13839392  0.49794544  0.13673000  1.0
  Cl  Cl134  1  0.61178664  0.27140009  0.99249492  1.0
  Cl  Cl135  1  0.23398621  0.35063620  0.86271335  1.0
  Cl  Cl136  1  0.48974035  0.26853917  0.11316181  1.0
  Cl  Cl137  1  0.36468329  0.36384772  0.75030126  1.0
  Cl  Cl138  1  0.89634409  0.88841247  0.71753531  1.0
  Cl  Cl139  1  0.20989969  0.88837996  0.99257613  1.0
  O  O140  1  0.99966204  0.50169118  0.00454751  1.0
  O  O141  1  0.38601506  0.43400886  0.32143906  1.0
  O  O142  1  0.11595319  0.43679049  0.05262157  1.0
  O  O143  1  0.12335893  0.57138091  0.89599087  1.0
  O  O144  1  0.67899099  0.58243733  0.45073154  1.0
  O  O145  1  0.94799082  0.57383429  0.18770428  1.0
  O  O146  1  0.38004563  0.56390749  0.61839873  1.0
  O  O147  1  0.49986432  0.50145450  0.50343241  1.0
  O  O148  1  0.10268841  0.42832587  0.87362589  1.0
  O  O149  1  0.56046429  0.43239308  0.33070770  1.0
  O  O150  1  0.82606900  0.44797409  0.06256952  1.0
  O  O151  1  0.38119252  0.44056725  0.61784107  1.0
  O  O152  1  0.94522224  0.56077680  0.88546993  1.0
  O  O153  1  0.67654457  0.55859960  0.61397314  1.0
  O  O154  1  0.11660653  0.56014268  0.17745750  1.0
  O  O155  1  0.38765929  0.56061418  0.44398471  1.0
  O  O156  1  0.11501163  0.73345275  0.06036691  1.0
  O  O157  1  0.67492479  0.73521067  0.62200316  1.0
  O  O158  1  0.94034393  0.26695879  0.88306871  1.0
  O  O159  1  0.39217162  0.26625113  0.32776088  1.0
  O  O160  1  0.10583308  0.73508241  0.18429654  1.0
  O  O161  1  0.55129494  0.73473188  0.63005476  1.0
  O  O162  1  0.81928612  0.27002873  0.90030350  1.0
  O  O163  1  0.82270208  0.43741768  0.88484411  1.0
  O  O164  1  0.37037543  0.26817873  0.44992010  1.0
  O  O165  1  0.55365861  0.43765858  0.61562623  1.0
