# generated using pymatgen
data_ZnH8C19(NO3)2
_symmetry_space_group_name_H-M   'P 1'
_cell_length_a   5.59763221
_cell_length_b   14.68783971
_cell_length_c   27.71247541
_cell_angle_alpha   90.00014978
_cell_angle_beta   90.00009901
_cell_angle_gamma   79.82928432
_symmetry_Int_Tables_number   1
_chemical_formula_structural   ZnH8C19(NO3)2
_chemical_formula_sum   'Zn4 H32 C76 N8 O24'
_cell_volume   2242.63661293
_cell_formula_units_Z   4
loop_
 _symmetry_equiv_pos_site_id
 _symmetry_equiv_pos_as_xyz
  1  'x, y, z'
loop_
 _atom_site_type_symbol
 _atom_site_label
 _atom_site_symmetry_multiplicity
 _atom_site_fract_x
 _atom_site_fract_y
 _atom_site_fract_z
 _atom_site_occupancy
  Zn  Zn0  1  0.03904476  0.59003593  0.02330980  1.0
  Zn  Zn1  1  0.46093794  0.90996555  0.52330981  1.0
  Zn  Zn2  1  0.96095416  0.40996406  0.97669020  1.0
  Zn  Zn3  1  0.53905204  0.09003445  0.47669018  1.0
  H  H4  1  0.78197152  0.75932267  0.57232993  1.0
  H  H5  1  0.80909831  0.69193063  0.65628485  1.0
  H  H6  1  0.06358119  0.82424571  0.67764703  1.0
  H  H7  1  0.06382613  0.88372674  0.59266152  1.0
  H  H8  1  0.06632015  0.53165220  0.77046423  1.0
  H  H9  1  0.06857653  0.47867613  0.85648033  1.0
  H  H10  1  0.88059551  0.75398773  0.91110913  1.0
  H  H11  1  0.85037105  0.81444247  0.82586344  1.0
  H  H12  1  0.71802948  0.74067793  0.07233054  1.0
  H  H13  1  0.69090617  0.80807173  0.15628483  1.0
  H  H14  1  0.43642070  0.67575577  0.17764619  1.0
  H  H15  1  0.43617374  0.61627367  0.09266132  1.0
  H  H16  1  0.43368444  0.96834901  0.27046632  1.0
  H  H17  1  0.43142213  0.02132572  0.35648288  1.0
  H  H18  1  0.61940866  0.74601230  0.41110972  1.0
  H  H19  1  0.64962414  0.68555995  0.32586288  1.0
  H  H20  1  0.21803275  0.24067733  0.42767007  1.0
  H  H21  1  0.19090532  0.30807075  0.34371586  1.0
  H  H22  1  0.93642098  0.17575498  0.32235404  1.0
  H  H23  1  0.93617457  0.11627326  0.40733883  1.0
  H  H24  1  0.93367991  0.46834918  0.22953576  1.0
  H  H25  1  0.93142207  0.52132456  0.14351966  1.0
  H  H26  1  0.11940844  0.24601296  0.08888942  1.0
  H  H27  1  0.14962691  0.18555960  0.17413547  1.0
  H  H28  1  0.28196911  0.25932276  0.92767018  1.0
  H  H29  1  0.30909600  0.19192896  0.84371589  1.0
  H  H30  1  0.56358000  0.32424423  0.82235380  1.0
  H  H31  1  0.56382485  0.38372702  0.90733867  1.0
  H  H32  1  0.56632111  0.03164822  0.72953403  1.0
  H  H33  1  0.56858311  0.97867220  0.64351784  1.0
  H  H34  1  0.38059026  0.25398770  0.58888992  1.0
  H  H35  1  0.35037363  0.31443867  0.67413676  1.0
  C  C36  1  0.62687714  0.77063866  0.59674779  1.0
  C  C37  1  0.64166012  0.73394169  0.64309945  1.0
  C  C38  1  0.43783540  0.75482887  0.67270163  1.0
  C  C39  1  0.22503712  0.80806232  0.65507779  1.0
  C  C40  1  0.22500219  0.84123130  0.60811593  1.0
  C  C41  1  0.29360427  0.65924427  0.73392342  1.0
  C  C42  1  0.30862839  0.62628188  0.78418019  1.0
  C  C43  1  0.45810018  0.66145044  0.81839624  1.0
  C  C44  1  0.60082612  0.72775897  0.80411790  1.0
  C  C45  1  0.60179798  0.75937646  0.75368179  1.0
  C  C46  1  0.17550568  0.55915810  0.79753367  1.0
  C  C47  1  0.17982679  0.52884395  0.84545647  1.0
  C  C48  1  0.31654901  0.56435453  0.88037870  1.0
  C  C49  1  0.46745996  0.62910349  0.86730632  1.0
  C  C50  1  0.63032171  0.66210531  0.89989422  1.0
  C  C51  1  0.75820850  0.73027688  0.88526117  1.0
  C  C52  1  0.74386199  0.76322270  0.83769308  1.0
  C  C53  1  0.27053917  0.53769943  0.93153974  1.0
  C  C54  1  0.71179482  0.61460299  0.94676839  1.0
  C  C55  1  0.87312160  0.72936342  0.09674772  1.0
  C  C56  1  0.85834282  0.76605991  0.14309943  1.0
  C  C57  1  0.06216824  0.74517259  0.17270183  1.0
  C  C58  1  0.27496462  0.69193907  0.15507728  1.0
  C  C59  1  0.27499746  0.65876987  0.10811609  1.0
  C  C60  1  0.20640042  0.84075608  0.23392489  1.0
  C  C61  1  0.19138115  0.87371662  0.28418278  1.0
  C  C62  1  0.04190422  0.83854822  0.31839729  1.0
  C  C63  1  0.89917525  0.77224128  0.30411898  1.0
  C  C64  1  0.89820746  0.74062564  0.25368319  1.0
  C  C65  1  0.32450184  0.94084116  0.29753568  1.0
  C  C66  1  0.32017293  0.97115759  0.34545888  1.0
  C  C67  1  0.18344494  0.93564856  0.38037993  1.0
  C  C68  1  0.03254023  0.87089746  0.36730705  1.0
  C  C69  1  0.86967703  0.83789468  0.39989430  1.0
  C  C70  1  0.74179225  0.76972235  0.38526183  1.0
  C  C71  1  0.75613927  0.73677840  0.33769298  1.0
  C  C72  1  0.22945103  0.96230112  0.43154175  1.0
  C  C73  1  0.78818521  0.88539582  0.44676743  1.0
  C  C74  1  0.37312471  0.22936272  0.40325293  1.0
  C  C75  1  0.35834531  0.26605969  0.35690126  1.0
  C  C76  1  0.56216823  0.24517251  0.32729909  1.0
  C  C77  1  0.77496830  0.19193907  0.34492256  1.0
  C  C78  1  0.77499965  0.15877008  0.39188442  1.0
  C  C79  1  0.70639969  0.34075642  0.26607658  1.0
  C  C80  1  0.69136956  0.37372019  0.21581945  1.0
  C  C81  1  0.54189663  0.33855025  0.18160412  1.0
  C  C82  1  0.39917216  0.27224241  0.19588173  1.0
  C  C83  1  0.39820240  0.24062423  0.24631784  1.0
  C  C84  1  0.82449260  0.44084328  0.20246596  1.0
  C  C85  1  0.82017148  0.47115743  0.15454316  1.0
  C  C86  1  0.68344926  0.43564686  0.11962166  1.0
  C  C87  1  0.53254010  0.37089789  0.13269368  1.0
  C  C88  1  0.36968193  0.33789607  0.10010506  1.0
  C  C89  1  0.24179335  0.26972451  0.11473811  1.0
  C  C90  1  0.25613596  0.23677938  0.16230655  1.0
  C  C91  1  0.72946428  0.46229849  0.06845953  1.0
  C  C92  1  0.28820588  0.38539701  0.05323124  1.0
  C  C93  1  0.12687553  0.27063658  0.90325227  1.0
  C  C94  1  0.14165789  0.23394008  0.85690056  1.0
  C  C95  1  0.93783279  0.25482671  0.82729852  1.0
  C  C96  1  0.72503461  0.30806024  0.84492236  1.0
  C  C97  1  0.72500146  0.34123012  0.89188426  1.0
  C  C98  1  0.79360239  0.15924323  0.76607583  1.0
  C  C99  1  0.80862473  0.12627992  0.71581830  1.0
  C  C100  1  0.95810166  0.16144832  0.68160343  1.0
  C  C101  1  0.10082642  0.22775665  0.69588137  1.0
  C  C102  1  0.10179357  0.25937367  0.74631753  1.0
  C  C103  1  0.67550550  0.05915608  0.70246467  1.0
  C  C104  1  0.67983230  0.02884033  0.65454111  1.0
  C  C105  1  0.81655640  0.06435006  0.61962006  1.0
  C  C106  1  0.96746111  0.12910116  0.63269331  1.0
  C  C107  1  0.13031863  0.16210463  0.60010533  1.0
  C  C108  1  0.25820520  0.23027695  0.61473816  1.0
  C  C109  1  0.24386354  0.26322091  0.66230665  1.0
  C  C110  1  0.77054788  0.03769888  0.56845788  1.0
  C  C111  1  0.21180088  0.11460487  0.55323076  1.0
  N  N112  1  0.42358797  0.82409236  0.57972982  1.0
  N  N113  1  0.44678645  0.72254279  0.72158933  1.0
  N  N114  1  0.07640971  0.67590868  0.07972994  1.0
  N  N115  1  0.05321962  0.77745820  0.22158958  1.0
  N  N116  1  0.57641420  0.17590833  0.42027053  1.0
  N  N117  1  0.55321719  0.27745859  0.27841066  1.0
  N  N118  1  0.92358710  0.32409201  0.92027078  1.0
  N  N119  1  0.94678108  0.22254180  0.77841077  1.0
  O  O120  1  0.23914165  0.60217741  0.96294189  1.0
  O  O121  1  0.24464735  0.45476695  0.93823919  1.0
  O  O122  1  0.76203822  0.66370523  0.98155855  1.0
  O  O123  1  0.75166819  0.52626741  0.94451917  1.0
  O  O124  1  0.72482618  0.81558399  0.73904296  1.0
  O  O125  1  0.16087415  0.63347801  0.70318957  1.0
  O  O126  1  0.26083544  0.89782120  0.46294273  1.0
  O  O127  1  0.25534387  0.04523319  0.43824316  1.0
  O  O128  1  0.73792385  0.83629443  0.48155569  1.0
  O  O129  1  0.74832223  0.97373208  0.44451832  1.0
  O  O130  1  0.77517266  0.68441666  0.23904279  1.0
  O  O131  1  0.33912548  0.86652497  0.20319040  1.0
  O  O132  1  0.76085645  0.39782052  0.03705811  1.0
  O  O133  1  0.75535157  0.54523305  0.06175972  1.0
  O  O134  1  0.23796541  0.33629615  0.01844109  1.0
  O  O135  1  0.24833430  0.47373259  0.05548046  1.0
  O  O136  1  0.27517778  0.18441670  0.26095704  1.0
  O  O137  1  0.83913013  0.36652199  0.29680935  1.0
  O  O138  1  0.73915487  0.10217810  0.53705690  1.0
  O  O139  1  0.74465958  0.95476473  0.56175612  1.0
  O  O140  1  0.26204291  0.16370557  0.51844142  1.0
  O  O141  1  0.25167279  0.02626861  0.55548095  1.0
  O  O142  1  0.22482805  0.31558334  0.76095720  1.0
  O  O143  1  0.66087280  0.13347641  0.79680996  1.0
