# generated using pymatgen
data_Zn3H32C36N4O13
_symmetry_space_group_name_H-M   'P 1'
_cell_length_a   21.28417009
_cell_length_b   21.28474736
_cell_length_c   24.33933121
_cell_angle_alpha   64.39701480
_cell_angle_beta   64.07266051
_cell_angle_gamma   90.34681517
_symmetry_Int_Tables_number   1
_chemical_formula_structural   Zn3H32C36N4O13
_chemical_formula_sum   'Zn6 H64 C72 N8 O26'
_cell_volume   8680.56258790
_cell_formula_units_Z   2
loop_
 _symmetry_equiv_pos_site_id
 _symmetry_equiv_pos_as_xyz
  1  'x, y, z'
loop_
 _atom_site_type_symbol
 _atom_site_label
 _atom_site_symmetry_multiplicity
 _atom_site_fract_x
 _atom_site_fract_y
 _atom_site_fract_z
 _atom_site_occupancy
  Zn  Zn0  1  0.00069022  0.93368711  0.50102204  1.0
  Zn  Zn1  1  0.53643803  0.03467964  0.42995733  1.0
  Zn  Zn2  1  0.46458281  0.96636134  0.57009911  1.0
  Zn  Zn3  1  0.43470786  0.50174643  0.49895257  1.0
  Zn  Zn4  1  0.00229207  0.06309513  0.49488904  1.0
  Zn  Zn5  1  0.55799402  0.49720295  0.50505463  1.0
  H  H6  1  0.15694335  0.16921081  0.28312430  1.0
  H  H7  1  0.60736971  0.70428407  0.51780397  1.0
  H  H8  1  0.62901712  0.26044353  0.37790185  1.0
  H  H9  1  0.06862974  0.98975042  0.27955460  1.0
  H  H10  1  0.26931752  0.34815461  0.72046062  1.0
  H  H11  1  0.14011397  0.89798646  0.57680623  1.0
  H  H12  1  0.47438773  0.71685933  0.42352092  1.0
  H  H13  1  0.13275230  0.93939133  0.62798297  1.0
  H  H14  1  0.22241810  0.12530886  0.48163391  1.0
  H  H15  1  0.56694305  0.76081552  0.37203298  1.0
  H  H16  1  0.23863047  0.90473701  0.62413011  1.0
  H  H17  1  0.52833994  0.86272492  0.37612677  1.0
  H  H18  1  0.25773746  0.88864096  0.55363658  1.0
  H  H19  1  0.44191316  0.81118971  0.44692915  1.0
  H  H20  1  0.22372798  0.97170115  0.44572172  1.0
  H  H21  1  0.41754459  0.66935607  0.55462203  1.0
  H  H22  1  0.89461335  0.99526240  0.65963778  1.0
  H  H23  1  0.65492418  0.55420171  0.34031355  1.0
  H  H24  1  0.16162824  0.07604233  0.57189172  1.0
  H  H25  1  0.64799002  0.73370027  0.42758447  1.0
  H  H26  1  0.25265625  0.03534794  0.59844335  1.0
  H  H27  1  0.63372883  0.85125372  0.40109605  1.0
  H  H28  1  0.45234297  0.44011927  0.71684616  1.0
  H  H29  1  0.31274379  0.10491771  0.51347624  1.0
  H  H30  1  0.61888643  0.82648344  0.48586963  1.0
  H  H31  1  0.24181649  0.06638909  0.40361747  1.0
  H  H32  1  0.47050823  0.64544348  0.59631560  1.0
  H  H33  1  0.34591487  0.07808692  0.41298794  1.0
  H  H34  1  0.49170519  0.75892350  0.58687600  1.0
  H  H35  1  0.79270244  0.90605001  0.84331074  1.0
  H  H36  1  0.74940483  0.63592909  0.15664617  1.0
  H  H37  1  0.84583134  0.70695090  0.85434774  1.0
  H  H38  1  0.56137193  0.70020026  0.14558381  1.0
  H  H39  1  0.21852181  0.23842607  0.15283660  1.0
  H  H40  1  0.39127801  0.37139424  0.84712543  1.0
  H  H41  1  0.91007294  0.76651601  0.72360985  1.0
  H  H42  1  0.49018544  0.63372276  0.27631552  1.0
  H  H43  1  0.78076023  0.89773408  0.54633905  1.0
  H  H44  1  0.34199376  0.98936252  0.42747017  1.0
  H  H45  1  0.44388067  0.32703251  0.45386941  1.0
  H  H46  1  0.82893987  0.95015988  0.45488682  1.0
  H  H47  1  0.40495189  0.28373871  0.54531050  1.0
  H  H48  1  0.72385571  0.96868606  0.44645218  1.0
  H  H49  1  0.41503965  0.17023970  0.55369247  1.0
  H  H50  1  0.41717733  0.76936630  0.57283607  1.0
  H  H51  1  0.67919200  0.89451183  0.53166265  1.0
  H  H52  1  0.42600816  0.21080323  0.46852488  1.0
  H  H53  1  0.75956449  0.95538332  0.62376422  1.0
  H  H54  1  0.57891489  0.38329648  0.37631083  1.0
  H  H55  1  0.64885453  0.92104603  0.63297343  1.0
  H  H56  1  0.55386184  0.28178900  0.36711298  1.0
  H  H57  1  0.82397509  0.12768021  0.45488806  1.0
  H  H58  1  0.58260774  0.27887881  0.54505038  1.0
  H  H59  1  0.83283287  0.08573346  0.40385801  1.0
  H  H60  1  0.48962673  0.23667605  0.59617601  1.0
  H  H61  1  0.71516329  0.09567963  0.42765183  1.0
  H  H62  1  0.52330795  0.14280223  0.57237792  1.0
  H  H63  1  0.12494067  0.06111502  0.14950306  1.0
  H  H64  1  0.21063998  0.27438784  0.85050796  1.0
  H  H65  1  0.69913128  0.11152369  0.49776242  1.0
  H  H66  1  0.60925250  0.19689384  0.50220595  1.0
  H  H67  1  0.75951357  0.04738668  0.58757895  1.0
  H  H68  1  0.63487353  0.34718052  0.41235315  1.0
  H  H69  1  0.63829772  0.00699420  0.62213922  1.0
  C  C70  1  0.11218142  0.01947305  0.51055956  1.0
  C  C71  1  0.20753992  0.19718454  0.06697815  1.0
  C  C72  1  0.52184532  0.31631454  0.48980979  1.0
  C  C73  1  0.67586142  0.99886195  0.52746844  1.0
  C  C74  1  0.52622000  0.20330565  0.47260288  1.0
  C  C75  1  0.67318832  0.97875091  0.59723470  1.0
  C  C76  1  0.57585161  0.27040132  0.40282810  1.0
  C  C77  1  0.72099720  0.07700946  0.47441534  1.0
  C  C78  1  0.26421272  0.27448376  0.93300609  1.0
  C  C79  1  0.55138706  0.19539940  0.52559757  1.0
  C  C80  1  0.51628270  0.89345779  0.47595278  1.0
  C  C81  1  0.36937705  0.99211831  0.52408289  1.0
  C  C82  1  0.52224241  0.13395182  0.46918428  1.0
  C  C83  1  0.60308056  0.99149177  0.53088931  1.0
  C  C84  1  0.92997435  0.90483075  0.63351008  1.0
  C  C85  1  0.53836376  0.56349158  0.36643850  1.0
  C  C86  1  0.15142427  0.14557589  0.25324895  1.0
  C  C87  1  0.39884087  0.40469755  0.74672347  1.0
  C  C88  1  0.18510038  0.18425171  0.18096913  1.0
  C  C89  1  0.16802221  0.94015958  0.57836218  1.0
  C  C90  1  0.36524351  0.36608709  0.81900006  1.0
  C  C91  1  0.17491278  0.15425190  0.14321303  1.0
  C  C92  1  0.29749500  0.31811259  0.85677305  1.0
  C  C93  1  0.13263543  0.08395425  0.17908266  1.0
  C  C94  1  0.26304968  0.31169131  0.82092744  1.0
  C  C95  1  0.51822794  0.74638081  0.42177778  1.0
  C  C96  1  0.10101254  0.04441099  0.25145492  1.0
  C  C97  1  0.29588406  0.35244340  0.74855079  1.0
  C  C98  1  0.24147970  0.92730130  0.57292050  1.0
  C  C99  1  0.49992000  0.81433180  0.42734049  1.0
  C  C100  1  0.53002914  0.62279590  0.48934314  1.0
  C  C101  1  0.23912766  0.01903304  0.44865848  1.0
  C  C102  1  0.46794965  0.68776401  0.55141885  1.0
  C  C103  1  0.20592121  0.07290600  0.52827738  1.0
  C  C104  1  0.60136975  0.73436883  0.47130168  1.0
  C  C105  1  0.17963808  0.01410246  0.51739313  1.0
  C  C106  1  0.53153120  0.69708832  0.48251930  1.0
  C  C107  1  0.29924321  0.99879689  0.52190188  1.0
  C  C108  1  0.52079038  0.82116279  0.47809310  1.0
  C  C109  1  0.31186723  0.02315642  0.44766996  1.0
  C  C110  1  0.47118333  0.75951574  0.55239614  1.0
  C  C111  1  0.26959181  0.05598163  0.54291645  1.0
  C  C112  1  0.59908248  0.81267852  0.45667335  1.0
  C  C113  1  0.07069632  0.03733176  0.36703156  1.0
  C  C114  1  0.40437433  0.43774021  0.63295629  1.0
  C  C115  1  0.85767666  0.90981665  0.74461434  1.0
  C  C116  1  0.10908977  0.07547474  0.28909575  1.0
  C  C117  1  0.65446527  0.60224935  0.25533259  1.0
  C  C118  1  0.81864697  0.87523225  0.81756442  1.0
  C  C119  1  0.69284527  0.63616035  0.18238421  1.0
  C  C120  1  0.81478681  0.80294641  0.85641317  1.0
  C  C121  1  0.65941376  0.67116069  0.14353104  1.0
  C  C122  1  0.36458267  0.39819336  0.71089208  1.0
  C  C123  1  0.84881630  0.76314590  0.82301733  1.0
  C  C124  1  0.58622512  0.67183382  0.17691397  1.0
  C  C125  1  0.88465767  0.79633489  0.75079860  1.0
  C  C126  1  0.54718411  0.63547200  0.24914356  1.0
  C  C127  1  0.89024145  0.86954633  0.71032812  1.0
  C  C128  1  0.57991125  0.60056580  0.28961881  1.0
  C  C129  1  0.70184312  0.70752895  0.06706270  1.0
  C  C130  1  0.77467805  0.76889736  0.93288550  1.0
  C  C131  1  0.78558586  0.94774977  0.50235682  1.0
  C  C132  1  0.44998169  0.28787736  0.49780851  1.0
  C  C133  1  0.71450702  0.94891576  0.49986939  1.0
  C  C134  1  0.44866101  0.21432332  0.50027881  1.0
  C  C135  1  0.75064437  0.99862824  0.58409600  1.0
  C  C136  1  0.58259080  0.33474559  0.41593450  1.0
  C  C137  1  0.88124676  0.01839102  0.50165680  1.0
  C  C138  1  0.52000685  0.38289256  0.49837629  1.0
  C  C139  1  0.80064358  0.08078131  0.45595603  1.0
  C  C140  1  0.53673532  0.25659026  0.54405150  1.0
  C  C141  1  0.80608369  0.01166819  0.51025997  1.0
  N  N142  1  0.18124079  0.17650434  0.03416656  1.0
  N  N143  1  0.68298658  0.76518300  0.03045168  1.0
  N  N144  1  0.79570236  0.71340724  0.96949440  1.0
  N  N145  1  0.75828811  0.68194347  0.03810078  1.0
  N  N146  1  0.72014472  0.79638959  0.96184518  1.0
  N  N147  1  0.21072922  0.21534802  0.96583223  1.0
  N  N148  1  0.28989355  0.29565680  0.96601510  1.0
  N  N149  1  0.26175517  0.25586670  0.03394619  1.0
  O  O150  1  0.08705645  0.96899196  0.50562201  1.0
  O  O151  1  0.60488495  0.01447723  0.47246809  1.0
  O  O152  1  0.48679232  0.07731717  0.52760607  1.0
  O  O153  1  0.55213427  0.13522178  0.40972326  1.0
  O  O154  1  0.54487395  0.96190675  0.59035141  1.0
  O  O155  1  0.08519562  0.07421212  0.50760537  1.0
  O  O156  1  0.58182510  0.59286141  0.49225853  1.0
  O  O157  1  0.47456765  0.59271468  0.49434674  1.0
  O  O158  1  0.05243925  0.96821927  0.39987852  1.0
  O  O159  1  0.36810213  0.45231882  0.60011975  1.0
  O  O160  1  0.05816966  0.07708262  0.39564463  1.0
  O  O161  1  0.47275173  0.45385357  0.60432807  1.0
  O  O162  1  0.91193999  0.96826681  0.49811856  1.0
  O  O163  1  0.46635786  0.41006673  0.50189803  1.0
  O  O164  1  0.90988218  0.07404948  0.49900592  1.0
  O  O165  1  0.57303585  0.40888015  0.50099787  1.0
  O  O166  1  0.94956446  0.86708253  0.60219589  1.0
  O  O167  1  0.46929453  0.55177254  0.39776800  1.0
  O  O168  1  0.94321292  0.97393654  0.60051815  1.0
  O  O169  1  0.57447748  0.54372710  0.39942802  1.0
  O  O170  1  0.48426152  0.89314974  0.53403017  1.0
  O  O171  1  0.42716964  0.01817012  0.46600805  1.0
  O  O172  1  0.86197907  0.98044013  0.71011081  1.0
  O  O173  1  0.54590219  0.95059179  0.41583724  1.0
  O  O174  1  0.69057598  0.57202846  0.28984211  1.0
  O  O175  1  0.36637719  0.96161091  0.58419893  1.0
