# generated using pymatgen
data_Cu2H16C21(N3O5)2
_symmetry_space_group_name_H-M   'P 1'
_cell_length_a   18.61945826
_cell_length_b   18.61858222
_cell_length_c   24.00638319
_cell_angle_alpha   89.99986899
_cell_angle_beta   89.99991731
_cell_angle_gamma   59.99838507
_symmetry_Int_Tables_number   1
_chemical_formula_structural   Cu2H16C21(N3O5)2
_chemical_formula_sum   'Cu12 H96 C126 N36 O60'
_cell_volume   7207.15639018
_cell_formula_units_Z   6
loop_
 _symmetry_equiv_pos_site_id
 _symmetry_equiv_pos_as_xyz
  1  'x, y, z'
loop_
 _atom_site_type_symbol
 _atom_site_label
 _atom_site_symmetry_multiplicity
 _atom_site_fract_x
 _atom_site_fract_y
 _atom_site_fract_z
 _atom_site_occupancy
  Cu  Cu0  1  0.52317585  0.95364681  0.04158438  1.0
  Cu  Cu1  1  0.95348633  0.52321490  0.04139999  1.0
  Cu  Cu2  1  0.52329858  0.52321950  0.04139690  1.0
  Cu  Cu3  1  0.47677191  0.04645368  0.54209579  1.0
  Cu  Cu4  1  0.04629772  0.47680805  0.54221437  1.0
  Cu  Cu5  1  0.47689260  0.47681091  0.54221246  1.0
  Cu  Cu6  1  0.47676992  0.04646118  0.95789895  1.0
  Cu  Cu7  1  0.47688946  0.47681964  0.95778901  1.0
  Cu  Cu8  1  0.04629703  0.47681618  0.95778717  1.0
  Cu  Cu9  1  0.52318023  0.95363942  0.45841518  1.0
  Cu  Cu10  1  0.52330143  0.52321088  0.45860177  1.0
  Cu  Cu11  1  0.95348878  0.52320815  0.45859944  1.0
  H  H12  1  0.50256741  0.91182245  0.14388514  1.0
  H  H13  1  0.71078247  0.85120713  0.78439305  1.0
  H  H14  1  0.70830849  0.94022391  0.86200900  1.0
  H  H15  1  0.91085877  0.58615549  0.14364110  1.0
  H  H16  1  0.85135318  0.43740164  0.78438876  1.0
  H  H17  1  0.94027003  0.35100555  0.86187276  1.0
  H  H18  1  0.58583593  0.50288989  0.14374341  1.0
  H  H19  1  0.43786416  0.71115066  0.78439958  1.0
  H  H20  1  0.35147668  0.70866796  0.86187986  1.0
  H  H21  1  0.49751948  0.08800798  0.64419525  1.0
  H  H22  1  0.28978109  0.14989185  0.28438393  1.0
  H  H23  1  0.29216887  0.06062182  0.36214541  1.0
  H  H24  1  0.08763028  0.41453329  0.64423435  1.0
  H  H25  1  0.14982187  0.56013058  0.28439239  1.0
  H  H26  1  0.06070399  0.64699719  0.36219959  1.0
  H  H27  1  0.41458145  0.49739453  0.64436281  1.0
  H  H28  1  0.56046020  0.28994645  0.28438365  1.0
  H  H29  1  0.64723967  0.29219699  0.36213792  1.0
  H  H30  1  0.41446481  0.08800898  0.85580693  1.0
  H  H31  1  0.56033529  0.14988310  0.21560124  1.0
  H  H32  1  0.64722407  0.06061199  0.13784195  1.0
  H  H33  1  0.49782590  0.41452966  0.85577202  1.0
  H  H34  1  0.29004269  0.56014299  0.21560186  1.0
  H  H35  1  0.29228844  0.64700975  0.13780664  1.0
  H  H36  1  0.08800931  0.49740126  0.85563722  1.0
  H  H37  1  0.14959363  0.28994368  0.21559926  1.0
  H  H38  1  0.06055696  0.29219143  0.13785623  1.0
  H  H39  1  0.58561762  0.91181777  0.35611489  1.0
  H  H40  1  0.43801289  0.85119993  0.71561358  1.0
  H  H41  1  0.35148000  0.94021822  0.63799045  1.0
  H  H42  1  0.50298842  0.58615669  0.35635683  1.0
  H  H43  1  0.71127144  0.43743035  0.71562130  1.0
  H  H44  1  0.70872277  0.35102149  0.63813823  1.0
  H  H45  1  0.91130932  0.50287143  0.35624712  1.0
  H  H46  1  0.85097481  0.71113935  0.71561473  1.0
  H  H47  1  0.93985253  0.70864373  0.63811987  1.0
  H  H48  1  0.49751974  0.08800707  0.85580230  1.0
  H  H49  1  0.28977807  0.14988512  0.21560097  1.0
  H  H50  1  0.29216106  0.06061530  0.13784506  1.0
  H  H51  1  0.08763291  0.41453301  0.85577184  1.0
  H  H52  1  0.14981825  0.56013687  0.21560194  1.0
  H  H53  1  0.06069576  0.64701299  0.13780177  1.0
  H  H54  1  0.41457733  0.49739486  0.85564078  1.0
  H  H55  1  0.56046423  0.28994282  0.21559945  1.0
  H  H56  1  0.64725213  0.29218861  0.13785799  1.0
  H  H57  1  0.50256388  0.91182589  0.35611244  1.0
  H  H58  1  0.71078299  0.85119977  0.71561468  1.0
  H  H59  1  0.70830011  0.94020994  0.63799191  1.0
  H  H60  1  0.91087264  0.58614776  0.35635744  1.0
  H  H61  1  0.85134857  0.43740669  0.71562122  1.0
  H  H62  1  0.94026306  0.35101453  0.63813185  1.0
  H  H63  1  0.58583146  0.50288340  0.35625064  1.0
  H  H64  1  0.43787050  0.71114456  0.71561537  1.0
  H  H65  1  0.35149455  0.70865090  0.63812270  1.0
  H  H66  1  0.58562114  0.91181434  0.14388134  1.0
  H  H67  1  0.43800615  0.85120791  0.78439237  1.0
  H  H68  1  0.35146122  0.94023280  0.86201003  1.0
  H  H69  1  0.50299389  0.58616441  0.14364007  1.0
  H  H70  1  0.71127475  0.43742467  0.78439009  1.0
  H  H71  1  0.70872897  0.35101189  0.86186873  1.0
  H  H72  1  0.91130183  0.50287606  0.14374697  1.0
  H  H73  1  0.85097715  0.71114422  0.78439935  1.0
  H  H74  1  0.93985969  0.70865584  0.86188161  1.0
  H  H75  1  0.41446602  0.08800803  0.64419238  1.0
  H  H76  1  0.56032810  0.14988983  0.28438503  1.0
  H  H77  1  0.64720893  0.06062037  0.36214854  1.0
  H  H78  1  0.49783254  0.41453180  0.64423412  1.0
  H  H79  1  0.29004693  0.56013545  0.28439190  1.0
  H  H80  1  0.29229574  0.64699580  0.36219529  1.0
  H  H81  1  0.08801137  0.49739968  0.64436424  1.0
  H  H82  1  0.14959404  0.28994917  0.28438388  1.0
  H  H83  1  0.06056338  0.29219857  0.36213950  1.0
  H  H84  1  0.01032310  0.86407186  0.74999212  1.0
  H  H85  1  0.86382902  0.12515866  0.74999729  1.0
  H  H86  1  0.12582672  0.01116006  0.74998906  1.0
  H  H87  1  0.98994745  0.13743281  0.25000399  1.0
  H  H88  1  0.13741715  0.87237861  0.25001048  1.0
  H  H89  1  0.87274507  0.99013623  0.25000497  1.0
  H  H90  1  0.87261948  0.13743102  0.25000406  1.0
  H  H91  1  0.99019700  0.87237873  0.25001042  1.0
  H  H92  1  0.13711918  0.99013790  0.25000496  1.0
  H  H93  1  0.12559585  0.86408731  0.74999288  1.0
  H  H94  1  0.01100236  0.12514366  0.74999735  1.0
  H  H95  1  0.86301740  0.01114598  0.74998864  1.0
  H  H96  1  0.75914829  0.75926695  0.99035708  1.0
  H  H97  1  0.75929580  0.48141308  0.99016404  1.0
  H  H98  1  0.48158349  0.75927083  0.99035515  1.0
  H  H99  1  0.24114301  0.24122430  0.49075940  1.0
  H  H100  1  0.24117962  0.51764116  0.49091370  1.0
  H  H101  1  0.51763333  0.24122538  0.49076216  1.0
  H  H102  1  0.51764205  0.24122602  0.00923273  1.0
  H  H103  1  0.24117228  0.51766103  0.00908935  1.0
  H  H104  1  0.24113508  0.24122494  0.00923497  1.0
  H  H105  1  0.48159928  0.75925412  0.50964592  1.0
  H  H106  1  0.75929439  0.48141249  0.50983554  1.0
  H  H107  1  0.75914313  0.75925023  0.50964493  1.0
  C  C108  1  0.64195823  0.91031482  0.95417372  1.0
  C  C109  1  0.72489460  0.85506517  0.92845598  1.0
  C  C110  1  0.74912620  0.87946129  0.88014088  1.0
  C  C111  1  0.91032024  0.44754718  0.95395904  1.0
  C  C112  1  0.85512105  0.41972893  0.92828925  1.0
  C  C113  1  0.87952898  0.37098088  0.88003128  1.0
  C  C114  1  0.44781895  0.64206110  0.95401869  1.0
  C  C115  1  0.42006881  0.72508631  0.92837212  1.0
  C  C116  1  0.37141892  0.74944527  0.88006497  1.0
  C  C117  1  0.35815678  0.09002644  0.45458951  1.0
  C  C118  1  0.27543668  0.14559556  0.42872472  1.0
  C  C119  1  0.25133652  0.12139431  0.38026264  1.0
  C  C120  1  0.08992542  0.55183029  0.45472171  1.0
  C  C121  1  0.14556840  0.57890499  0.42884396  1.0
  C  C122  1  0.12144712  0.62710678  0.38033225  1.0
  C  C123  1  0.55191272  0.35824232  0.45463665  1.0
  C  C124  1  0.57901530  0.27553162  0.42873901  1.0
  C  C125  1  0.62729683  0.25140041  0.38026981  1.0
  C  C126  1  0.55182177  0.09002750  0.04540489  1.0
  C  C127  1  0.57898339  0.14559028  0.07126587  1.0
  C  C128  1  0.62728445  0.12138762  0.11972672  1.0
  C  C129  1  0.35824170  0.55184246  0.04528338  1.0
  C  C130  1  0.27552523  0.57891470  0.07115902  1.0
  C  C131  1  0.25144328  0.62711822  0.11966942  1.0
  C  C132  1  0.08984130  0.35824625  0.04536326  1.0
  C  C133  1  0.14544543  0.27552864  0.07125683  1.0
  C  C134  1  0.12129203  0.25139610  0.11972356  1.0
  C  C135  1  0.44773223  0.91031052  0.54582660  1.0
  C  C136  1  0.42005003  0.85505839  0.57154482  1.0
  C  C137  1  0.37142417  0.87945504  0.61986156  1.0
  C  C138  1  0.64213300  0.44754913  0.54604643  1.0
  C  C139  1  0.72514953  0.41973382  0.57171708  1.0
  C  C140  1  0.74948949  0.37099370  0.61997635  1.0
  C  C141  1  0.91011813  0.64204463  0.54597987  1.0
  C  C142  1  0.85483768  0.72506111  0.57163176  1.0
  C  C143  1  0.87913140  0.74941554  0.61993637  1.0
  C  C144  1  0.35815098  0.09002699  0.04540625  1.0
  C  C145  1  0.27542752  0.14558984  0.07126812  1.0
  C  C146  1  0.25132971  0.12138908  0.11972943  1.0
  C  C147  1  0.08992018  0.55184262  0.04528061  1.0
  C  C148  1  0.14556130  0.57891663  0.07115701  1.0
  C  C149  1  0.12144059  0.62712140  0.11966741  1.0
  C  C150  1  0.55191495  0.35824721  0.04536342  1.0
  C  C151  1  0.57902830  0.27552776  0.07125742  1.0
  C  C152  1  0.62731289  0.25139456  0.11972411  1.0
  C  C153  1  0.64195355  0.91030668  0.54582857  1.0
  C  C154  1  0.72488908  0.85505324  0.57154715  1.0
  C  C155  1  0.74911913  0.87944799  0.61986343  1.0
  C  C156  1  0.91032059  0.44754401  0.54604294  1.0
  C  C157  1  0.85511968  0.41973127  0.57171575  1.0
  C  C158  1  0.87952202  0.37098991  0.61997545  1.0
  C  C159  1  0.44782986  0.64204863  0.54598221  1.0
  C  C160  1  0.42009056  0.72506819  0.57163283  1.0
  C  C161  1  0.37144265  0.74942515  0.61993749  1.0
  C  C162  1  0.44772403  0.91031865  0.95417299  1.0
  C  C163  1  0.42003653  0.85506969  0.92845531  1.0
  C  C164  1  0.37140837  0.87946896  0.88014150  1.0
  C  C165  1  0.64213304  0.44755044  0.95395544  1.0
  C  C166  1  0.72515113  0.41973211  0.92828682  1.0
  C  C167  1  0.74949467  0.37098715  0.88002886  1.0
  C  C168  1  0.91012042  0.64205648  0.95402260  1.0
  C  C169  1  0.85484624  0.72507985  0.92837396  1.0
  C  C170  1  0.87913890  0.74943442  0.88006760  1.0
  C  C171  1  0.55181661  0.09002632  0.45459106  1.0
  C  C172  1  0.57896977  0.14559538  0.42872705  1.0
  C  C173  1  0.62726939  0.12139470  0.38026493  1.0
  C  C174  1  0.35824164  0.55183323  0.45471990  1.0
  C  C175  1  0.27552688  0.57890429  0.42884263  1.0
  C  C176  1  0.25144681  0.62710423  0.38033051  1.0
  C  C177  1  0.08984628  0.35824197  0.45463649  1.0
  C  C178  1  0.14545484  0.27553064  0.42873925  1.0
  C  C179  1  0.12130006  0.25140319  0.38027051  1.0
  C  C180  1  0.94894162  0.87010629  0.74999664  1.0
  C  C181  1  0.86993195  0.18048504  0.74999896  1.0
  C  C182  1  0.18107766  0.94969726  0.74999033  1.0
  C  C183  1  0.05140560  0.13121604  0.25000239  1.0
  C  C184  1  0.13125733  0.81710370  0.25000757  1.0
  C  C185  1  0.81743708  0.05154879  0.25000245  1.0
  C  C186  1  0.81737856  0.13121372  0.25000196  1.0
  C  C187  1  0.05163178  0.81710313  0.25000761  1.0
  C  C188  1  0.13101148  0.05155231  0.25000158  1.0
  C  C189  1  0.18094377  0.87011853  0.74999707  1.0
  C  C190  1  0.94957750  0.18047570  0.74999891  1.0
  C  C191  1  0.86923207  0.94968197  0.74999119  1.0
  C  C192  1  0.77790836  0.77807074  0.95269540  1.0
  C  C193  1  0.82601321  0.82636807  0.85576028  1.0
  C  C194  1  0.85017297  0.85066620  0.80223115  1.0
  C  C195  1  0.77813332  0.44373492  0.95254865  1.0
  C  C196  1  0.82643799  0.34712692  0.85572696  1.0
  C  C197  1  0.85069290  0.29862261  0.80223414  1.0
  C  C198  1  0.44401668  0.77807527  0.95269226  1.0
  C  C199  1  0.34761126  0.82637828  0.85575972  1.0
  C  C200  1  0.29915342  0.85067646  0.80223104  1.0
  C  C201  1  0.22241095  0.22252790  0.45302946  1.0
  C  C202  1  0.17452812  0.17460109  0.35582122  1.0
  C  C203  1  0.15036456  0.15043644  0.30223009  1.0
  C  C204  1  0.22249059  0.55501926  0.45316163  1.0
  C  C205  1  0.17468066  0.65063706  0.35585246  1.0
  C  C206  1  0.15053733  0.69891949  0.30223377  1.0
  C  C207  1  0.55506251  0.22252770  0.45303094  1.0
  C  C208  1  0.65087072  0.17460205  0.35582220  1.0
  C  C209  1  0.69919972  0.15043178  0.30223020  1.0
  C  C210  1  0.55507183  0.22252701  0.04696353  1.0
  C  C211  1  0.65088732  0.17459180  0.14417183  1.0
  C  C212  1  0.69920752  0.15042819  0.19776549  1.0
  C  C213  1  0.22248393  0.55503655  0.04684012  1.0
  C  C214  1  0.17467550  0.65065100  0.14414876  1.0
  C  C215  1  0.15053225  0.69892769  0.19777072  1.0
  C  C216  1  0.22240263  0.22252596  0.04696496  1.0
  C  C217  1  0.17452031  0.17459455  0.14417210  1.0
  C  C218  1  0.15036339  0.15043038  0.19776496  1.0
  C  C219  1  0.44403703  0.77806218  0.54731007  1.0
  C  C220  1  0.34763097  0.82636181  0.64424514  1.0
  C  C221  1  0.29916294  0.85066729  0.69776757  1.0
  C  C222  1  0.77813142  0.44373732  0.54745265  1.0
  C  C223  1  0.82643193  0.34713836  0.64428028  1.0
  C  C224  1  0.85068822  0.29862895  0.69777150  1.0
  C  C225  1  0.77789824  0.77805950  0.54731072  1.0
  C  C226  1  0.82600759  0.82635285  0.64424529  1.0
  C  C227  1  0.85017066  0.85065705  0.69776643  1.0
  C  C228  1  0.82291006  0.82331436  0.75000091  1.0
  C  C229  1  0.82339121  0.35323786  0.75000425  1.0
  C  C230  1  0.35376804  0.82332084  0.75000201  1.0
  C  C231  1  0.17765895  0.17775989  0.24999561  1.0
  C  C232  1  0.17785410  0.64428824  0.25000020  1.0
  C  C233  1  0.64458162  0.17775590  0.24999535  1.0
  N  N234  1  0.93109877  0.84384274  0.80560771  1.0
  N  N235  1  0.84373048  0.22459651  0.80562456  1.0
  N  N236  1  0.22519746  0.93172384  0.80561011  1.0
  N  N237  1  0.06936022  0.15741804  0.30560423  1.0
  N  N238  1  0.15747691  0.77296977  0.30559781  1.0
  N  N239  1  0.77327916  0.06945322  0.30560392  1.0
  N  N240  1  0.77323168  0.15740909  0.19439633  1.0
  N  N241  1  0.06954314  0.77297741  0.19441326  1.0
  N  N242  1  0.15726055  0.06945373  0.19439801  1.0
  N  N243  1  0.22506069  0.84384580  0.69438519  1.0
  N  N244  1  0.93167212  0.22459288  0.69437659  1.0
  N  N245  1  0.84307972  0.93170440  0.69437935  1.0
  N  N246  1  0.06935628  0.15741323  0.19439673  1.0
  N  N247  1  0.15747251  0.77297985  0.19441280  1.0
  N  N248  1  0.77328781  0.06944902  0.19439808  1.0
  N  N249  1  0.93109562  0.84383421  0.69438521  1.0
  N  N250  1  0.84372696  0.22460161  0.69437706  1.0
  N  N251  1  0.22520827  0.93171532  0.69437928  1.0
  N  N252  1  0.22505110  0.84385618  0.80560811  1.0
  N  N253  1  0.93167573  0.22458653  0.80562492  1.0
  N  N254  1  0.84308233  0.93171294  0.80560935  1.0
  N  N255  1  0.77322326  0.15741390  0.30560426  1.0
  N  N256  1  0.06954553  0.77296920  0.30559786  1.0
  N  N257  1  0.15726480  0.06945792  0.30560426  1.0
  N  N258  1  0.73186928  0.86729197  0.75000218  1.0
  N  N259  1  0.86742094  0.40022955  0.75000376  1.0
  N  N260  1  0.40070371  0.73228209  0.75000581  1.0
  N  N261  1  0.26869457  0.13379904  0.24999435  1.0
  N  N262  1  0.13380935  0.59729222  0.24999860  1.0
  N  N263  1  0.59762704  0.26880023  0.24999238  1.0
  N  N264  1  0.59750561  0.13379760  0.24999458  1.0
  N  N265  1  0.26889462  0.59729710  0.24999852  1.0
  N  N266  1  0.13357211  0.26880360  0.24999264  1.0
  N  N267  1  0.40083437  0.86729526  0.75000153  1.0
  N  N268  1  0.73236714  0.40025195  0.75000425  1.0
  N  N269  1  0.86700793  0.73227437  0.75000555  1.0
  O  O270  1  0.63011842  0.89007659  0.00263515  1.0
  O  O271  1  0.58936402  0.97248158  0.92563003  1.0
  O  O272  1  0.88999811  0.47977081  0.00237336  1.0
  O  O273  1  0.97250395  0.43797693  0.92543535  1.0
  O  O274  1  0.47985929  0.63020606  0.00249425  1.0
  O  O275  1  0.43834291  0.58942688  0.92545009  1.0
  O  O276  1  0.36989207  0.11013811  0.50311699  1.0
  O  O277  1  0.41065454  0.02771648  0.42611627  1.0
  O  O278  1  0.10997890  0.52007798  0.50328548  1.0
  O  O279  1  0.02762658  0.56162017  0.42624515  1.0
  O  O280  1  0.52002326  0.36997021  0.50315792  1.0
  O  O281  1  0.56180130  0.41073149  0.42621499  1.0
  O  O282  1  0.51997400  0.11013674  0.99687725  1.0
  O  O283  1  0.56162634  0.02772432  0.07388237  1.0
  O  O284  1  0.36994255  0.52008647  0.99672326  1.0
  O  O285  1  0.41075420  0.56162848  0.07376035  1.0
  O  O286  1  0.11000084  0.36997846  0.99684518  1.0
  O  O287  1  0.02746444  0.41073353  0.07378902  1.0
  O  O288  1  0.47980783  0.89007478  0.49736574  1.0
  O  O289  1  0.43815183  0.97248214  0.57436938  1.0
  O  O290  1  0.63023281  0.47976658  0.49763136  1.0
  O  O291  1  0.58952159  0.43797266  0.57456846  1.0
  O  O292  1  0.88993943  0.63018902  0.49750445  1.0
  O  O293  1  0.97223071  0.58941339  0.57454978  1.0
  O  O294  1  0.36989039  0.11014055  0.99687900  1.0
  O  O295  1  0.41064793  0.02772068  0.07388120  1.0
  O  O296  1  0.10997443  0.52008600  0.99672049  1.0
  O  O297  1  0.02762419  0.56162560  0.07375848  1.0
  O  O298  1  0.52002685  0.36997822  0.99684453  1.0
  O  O299  1  0.56180482  0.41073693  0.07378914  1.0
  O  O300  1  0.63011716  0.89007282  0.49736649  1.0
  O  O301  1  0.58936244  0.97247895  0.57437137  1.0
  O  O302  1  0.89000377  0.47976394  0.49762789  1.0
  O  O303  1  0.97250801  0.43796624  0.57456658  1.0
  O  O304  1  0.47986621  0.63019237  0.49750676  1.0
  O  O305  1  0.43834827  0.58941681  0.57455092  1.0
  O  O306  1  0.47980565  0.89007792  0.00263440  1.0
  O  O307  1  0.43814872  0.97248663  0.92563137  1.0
  O  O308  1  0.63023190  0.47977469  0.00237017  1.0
  O  O309  1  0.58951738  0.43798149  0.92543389  1.0
  O  O310  1  0.88993751  0.63020023  0.00249652  1.0
  O  O311  1  0.97223179  0.58942347  0.92545187  1.0
  O  O312  1  0.51997121  0.11013679  0.50312066  1.0
  O  O313  1  0.56162605  0.02771887  0.42611744  1.0
  O  O314  1  0.36994258  0.52007659  0.50328367  1.0
  O  O315  1  0.41075277  0.56161994  0.42624410  1.0
  O  O316  1  0.11000737  0.36997169  0.50315731  1.0
  O  O317  1  0.02746913  0.41072994  0.42621445  1.0
  O  O318  1  0.55722080  0.88555896  0.12657932  1.0
  O  O319  1  0.88504723  0.55739390  0.12624493  1.0
  O  O320  1  0.55756371  0.55740525  0.12623845  1.0
  O  O321  1  0.44281645  0.11436331  0.62695443  1.0
  O  O322  1  0.11423031  0.44271691  0.62709803  1.0
  O  O323  1  0.44305065  0.44271299  0.62709535  1.0
  O  O324  1  0.44281669  0.11436236  0.87304481  1.0
  O  O325  1  0.44304519  0.44271700  0.87291289  1.0
  O  O326  1  0.11422915  0.44272092  0.87290682  1.0
  O  O327  1  0.55721780  0.88556235  0.37341783  1.0
  O  O328  1  0.55755985  0.55739748  0.37375720  1.0
  O  O329  1  0.88505779  0.55738736  0.37375077  1.0
