# generated using pymatgen
data_AlH3C27(Cl2O)6
_symmetry_space_group_name_H-M   'P 1'
_cell_length_a   4.25744236
_cell_length_b   28.08035376
_cell_length_c   28.09915155
_cell_angle_alpha   60.06269973
_cell_angle_beta   89.89678944
_cell_angle_gamma   89.77754112
_symmetry_Int_Tables_number   1
_chemical_formula_structural   AlH3C27(Cl2O)6
_chemical_formula_sum   'Al3 H9 C81 Cl36 O18'
_cell_volume   2911.02512362
_cell_formula_units_Z   3
loop_
 _symmetry_equiv_pos_site_id
 _symmetry_equiv_pos_as_xyz
  1  'x, y, z'
loop_
 _atom_site_type_symbol
 _atom_site_label
 _atom_site_symmetry_multiplicity
 _atom_site_fract_x
 _atom_site_fract_y
 _atom_site_fract_z
 _atom_site_occupancy
  Al  Al0  1  0.99789582  0.49972328  0.49994011  1.0
  Al  Al1  1  0.04754358  0.83324924  0.83322272  1.0
  Al  Al2  1  0.95896595  0.16638126  0.16668788  1.0
  H  H3  1  0.50732989  0.07735955  0.92248924  1.0
  H  H4  1  0.42061516  0.25282509  0.83422801  1.0
  H  H5  1  0.58533714  0.16578727  0.74711337  1.0
  H  H6  1  0.50731104  0.50012121  0.07709483  1.0
  H  H7  1  0.58613640  0.58709706  0.16571039  1.0
  H  H8  1  0.42423958  0.41317920  0.25242793  1.0
  H  H9  1  0.49994143  0.92282586  0.49977314  1.0
  H  H10  1  0.41603849  0.83416251  0.41293463  1.0
  H  H11  1  0.58140101  0.74728307  0.58673073  1.0
  C  C12  1  0.49469425  0.57265211  0.49972577  1.0
  C  C13  1  0.49977381  0.42709485  0.57274122  1.0
  C  C14  1  0.49984460  0.49961848  0.42722960  1.0
  C  C15  1  0.54425114  0.90338781  0.83669513  1.0
  C  C16  1  0.54734551  0.75982015  0.90346038  1.0
  C  C17  1  0.54642678  0.83658987  0.75969476  1.0
  C  C18  1  0.46214574  0.16313028  0.09645078  1.0
  C  C19  1  0.45862624  0.23987059  0.16361320  1.0
  C  C20  1  0.46072567  0.09618774  0.24014413  1.0
  C  C21  1  0.47680485  0.16513634  0.88528867  1.0
  C  C22  1  0.50613650  0.11584461  0.88405523  1.0
  C  C23  1  0.53354327  0.11463706  0.83476242  1.0
  C  C24  1  0.54422634  0.16543931  0.78538352  1.0
  C  C25  1  0.50296792  0.21588865  0.78409494  1.0
  C  C26  1  0.46309728  0.21456294  0.83455288  1.0
  C  C27  1  0.68522399  0.96189965  0.87871711  1.0
  C  C28  1  0.70031251  0.01312564  0.87635550  1.0
  C  C29  1  0.54235463  0.06064232  0.83534823  1.0
  C  C30  1  0.38169055  0.05285705  0.79547317  1.0
  C  C31  1  0.39512578  0.00321502  0.79459249  1.0
  C  C32  1  0.54002526  0.95698153  0.83699854  1.0
  C  C33  1  0.31108544  0.12338123  0.98668164  1.0
  C  C34  1  0.32495497  0.12108994  0.03784368  1.0
  C  C35  1  0.46760501  0.16297127  0.04279838  1.0
  C  C36  1  0.61153137  0.20544967  0.99666914  1.0
  C  C37  1  0.62670641  0.20449155  0.94711170  1.0
  C  C38  1  0.46800750  0.16449277  0.93926392  1.0
  C  C39  1  0.66651742  0.31672077  0.72262452  1.0
  C  C40  1  0.65359690  0.36782944  0.67345977  1.0
  C  C41  1  0.50082978  0.37336855  0.62648816  1.0
  C  C42  1  0.34858446  0.32633109  0.63216538  1.0
  C  C43  1  0.33654705  0.27726248  0.68333525  1.0
  C  C44  1  0.50181399  0.26960594  0.73039357  1.0
  C  C45  1  0.53429283  0.55061695  0.11444863  1.0
  C  C46  1  0.50681970  0.50013340  0.11558050  1.0
  C  C47  1  0.47831746  0.44964614  0.16480048  1.0
  C  C48  1  0.46577194  0.45104283  0.21422903  1.0
  C  C49  1  0.50536426  0.50013903  0.21562704  1.0
  C  C50  1  0.54540724  0.54923777  0.16525875  1.0
  C  C51  1  0.32107722  0.34061254  0.12147281  1.0
  C  C52  1  0.30981203  0.38974894  0.12339415  1.0
  C  C53  1  0.46848454  0.39617822  0.16431522  1.0
  C  C54  1  0.62638951  0.34816028  0.20450690  1.0
  C  C55  1  0.60859704  0.29745743  0.20583112  1.0
  C  C56  1  0.46343837  0.29371076  0.16346896  1.0
  C  C57  1  0.70231636  0.61039813  0.01320376  1.0
  C  C58  1  0.68886290  0.65930392  0.96211391  1.0
  C  C59  1  0.54355654  0.70610796  0.95712427  1.0
  C  C60  1  0.39841101  0.70248971  0.00324752  1.0
  C  C61  1  0.38383007  0.65198162  0.05276717  1.0
  C  C62  1  0.54361165  0.60405199  0.06058757  1.0
  C  C63  1  0.33725086  0.53942501  0.27719109  1.0
  C  C64  1  0.34817847  0.54126662  0.32643434  1.0
  C  C65  1  0.50205268  0.49984713  0.37335612  1.0
  C  C66  1  0.65794501  0.45866728  0.36754714  1.0
  C  C67  1  0.67110688  0.46079776  0.31633032  1.0
  C  C68  1  0.50453408  0.50013880  0.26935334  1.0
  C  C69  1  0.47090635  0.88539557  0.44940494  1.0
  C  C70  1  0.49966456  0.88427661  0.49982218  1.0
  C  C71  1  0.52819085  0.83502409  0.55026987  1.0
  C  C72  1  0.53964596  0.78553357  0.54889260  1.0
  C  C73  1  0.49852045  0.78414131  0.49983856  1.0
  C  C74  1  0.45813997  0.83456297  0.45078034  1.0
  C  C75  1  0.68319038  0.87876987  0.65901597  1.0
  C  C76  1  0.69558705  0.87666106  0.61002100  1.0
  C  C77  1  0.53817344  0.83561084  0.60365178  1.0
  C  C78  1  0.38054994  0.79550742  0.65157616  1.0
  C  C79  1  0.39742817  0.79435339  0.70217201  1.0
  C  C80  1  0.54146212  0.83681845  0.70586055  1.0
  C  C81  1  0.30423365  0.98685618  0.38948389  1.0
  C  C82  1  0.31856469  0.03792307  0.34056630  1.0
  C  C83  1  0.46436746  0.04264705  0.29398156  1.0
  C  C84  1  0.61001871  0.99634919  0.29789217  1.0
  C  C85  1  0.62377015  0.94685527  0.34841976  1.0
  C  C86  1  0.46270698  0.93929211  0.39604145  1.0
  C  C87  1  0.66233222  0.72243717  0.46045521  1.0
  C  C88  1  0.64833113  0.67332392  0.45834276  1.0
  C  C89  1  0.49425132  0.62649903  0.49964753  1.0
  C  C90  1  0.34117720  0.63235004  0.54097755  1.0
  C  C91  1  0.33080041  0.68351555  0.53907883  1.0
  C  C92  1  0.49752287  0.73036599  0.49982460  1.0
  Cl  Cl93  1  0.23422421  0.99814382  0.74126076  1.0
  Cl  Cl94  1  0.84740555  0.90394847  0.93267827  1.0
  Cl  Cl95  1  0.15203984  0.10313270  0.74562503  1.0
  Cl  Cl96  1  0.93078385  0.01483000  0.92546071  1.0
  Cl  Cl97  1  0.16393368  0.06702867  0.09567494  1.0
  Cl  Cl98  1  0.08316607  0.07409408  0.98488228  1.0
  Cl  Cl99  1  0.76899960  0.25901971  0.00171442  1.0
  Cl  Cl100  1  0.85508538  0.25443672  0.89694917  1.0
  Cl  Cl101  1  0.89960800  0.31358951  0.77367978  1.0
  Cl  Cl102  1  0.82173673  0.42334484  0.67357394  1.0
  Cl  Cl103  1  0.10360324  0.22618175  0.68660910  1.0
  Cl  Cl104  1  0.18034400  0.32600298  0.57674911  1.0
  Cl  Cl105  1  0.76436799  0.23871942  0.25966738  1.0
  Cl  Cl106  1  0.15690738  0.33660746  0.06771099  1.0
  Cl  Cl107  1  0.85710857  0.34829646  0.25429828  1.0
  Cl  Cl108  1  0.08275501  0.44102741  0.07389858  1.0
  Cl  Cl109  1  0.85337074  0.66309318  0.90439084  1.0
  Cl  Cl110  1  0.93246048  0.55929922  0.01502426  1.0
  Cl  Cl111  1  0.23850391  0.76111625  0.99821835  1.0
  Cl  Cl112  1  0.15373977  0.65188629  0.10286814  1.0
  Cl  Cl113  1  0.10348340  0.58737206  0.22611384  1.0
  Cl  Cl114  1  0.17674089  0.59680408  0.32644161  1.0
  Cl  Cl115  1  0.90642259  0.41306422  0.31287879  1.0
  Cl  Cl116  1  0.82942369  0.40307957  0.42279509  1.0
  Cl  Cl117  1  0.24195994  0.74060609  0.76081188  1.0
  Cl  Cl118  1  0.84469476  0.93278152  0.66288037  1.0
  Cl  Cl119  1  0.15096107  0.74562884  0.65146719  1.0
  Cl  Cl120  1  0.92240863  0.92608769  0.55886355  1.0
  Cl  Cl121  1  0.15491234  0.09593604  0.33646696  1.0
  Cl  Cl122  1  0.07425527  0.98536516  0.44035460  1.0
  Cl  Cl123  1  0.77162903  0.00114379  0.23957176  1.0
  Cl  Cl124  1  0.85400748  0.89646909  0.34896194  1.0
  Cl  Cl125  1  0.89712841  0.77321588  0.41270893  1.0
  Cl  Cl126  1  0.81629784  0.67332474  0.40265644  1.0
  Cl  Cl127  1  0.09823903  0.68704551  0.58695764  1.0
  Cl  Cl128  1  0.16964370  0.57717054  0.59640325  1.0
  O  O129  1  0.73624785  0.47872805  0.45840675  1.0
  O  O130  1  0.73176635  0.56222424  0.47900596  1.0
  O  O131  1  0.73582556  0.45820051  0.56247469  1.0
  O  O132  1  0.26170879  0.52030676  0.43747664  1.0
  O  O133  1  0.26300844  0.43729367  0.54171455  1.0
  O  O134  1  0.25810124  0.54168260  0.52055731  1.0
  O  O135  1  0.78507129  0.81449064  0.78976481  1.0
  O  O136  1  0.78237599  0.89528857  0.81452813  1.0
  O  O137  1  0.78521095  0.78993293  0.89534877  1.0
  O  O138  1  0.31197598  0.85804272  0.76988386  1.0
  O  O139  1  0.31376128  0.76986849  0.87186455  1.0
  O  O140  1  0.31036336  0.87191976  0.85807393  1.0
  O  O141  1  0.69452744  0.12765360  0.23010372  1.0
  O  O142  1  0.69625732  0.14160544  0.12802002  1.0
  O  O143  1  0.69274319  0.22969722  0.14210645  1.0
  O  O144  1  0.22315174  0.10429685  0.20989502  1.0
  O  O145  1  0.22038274  0.20983731  0.18555796  1.0
  O  O146  1  0.22329491  0.18518973  0.10455453  1.0
