# generated using pymatgen
data_NiH15C15N3O2
_symmetry_space_group_name_H-M   'P 1'
_cell_length_a   13.64314265
_cell_length_b   13.64191375
_cell_length_c   24.98424432
_cell_angle_alpha   89.99988787
_cell_angle_beta   89.99997523
_cell_angle_gamma   89.98956656
_symmetry_Int_Tables_number   1
_chemical_formula_structural   NiH15C15N3O2
_chemical_formula_sum   'Ni8 H120 C120 N24 O16'
_cell_volume   4650.03188094
_cell_formula_units_Z   8
loop_
 _symmetry_equiv_pos_site_id
 _symmetry_equiv_pos_as_xyz
  1  'x, y, z'
loop_
 _atom_site_type_symbol
 _atom_site_label
 _atom_site_symmetry_multiplicity
 _atom_site_fract_x
 _atom_site_fract_y
 _atom_site_fract_z
 _atom_site_occupancy
  Ni  Ni0  1  0.73009718  0.09058075  0.01604249  1.0
  Ni  Ni1  1  0.26990356  0.90941906  0.01604452  1.0
  Ni  Ni2  1  0.40943817  0.76988841  0.48395267  1.0
  Ni  Ni3  1  0.59056217  0.23011040  0.48395333  1.0
  Ni  Ni4  1  0.09037007  0.26985472  0.98403733  1.0
  Ni  Ni5  1  0.90963133  0.73014883  0.98403900  1.0
  Ni  Ni6  1  0.76988539  0.59043569  0.51590086  1.0
  Ni  Ni7  1  0.23010540  0.40955640  0.51590261  1.0
  H  H8  1  0.84584764  0.17476338  0.96820011  1.0
  H  H9  1  0.73521451  0.07335895  0.88569538  1.0
  H  H10  1  0.88125565  0.17003448  0.85935872  1.0
  H  H11  1  0.90201109  0.04169798  0.84997967  1.0
  H  H12  1  0.95570495  0.10340207  0.90543658  1.0
  H  H13  1  0.62494263  0.91034110  0.04077927  1.0
  H  H14  1  0.56136335  0.83042540  0.12397255  1.0
  H  H15  1  0.69460606  0.06585688  0.21392442  1.0
  H  H16  1  0.75229694  0.13480252  0.12787095  1.0
  H  H17  1  0.52642709  0.83835985  0.21711685  1.0
  H  H18  1  0.54462792  0.14971245  0.05089165  1.0
  H  H19  1  0.45962296  0.30631841  0.06965580  1.0
  H  H20  1  0.73986047  0.45110180  0.05071136  1.0
  H  H21  1  0.81186834  0.28730301  0.02879962  1.0
  H  H22  1  0.60069568  0.55171543  0.06652849  1.0
  H  H23  1  0.15415010  0.82523803  0.96820266  1.0
  H  H24  1  0.26477670  0.92663911  0.88569379  1.0
  H  H25  1  0.11872973  0.82996880  0.85936326  1.0
  H  H26  1  0.09798015  0.95830608  0.84998289  1.0
  H  H27  1  0.04428624  0.89660691  0.90544228  1.0
  H  H28  1  0.37505882  0.08966375  0.04077972  1.0
  H  H29  1  0.43863583  0.16957841  0.12397251  1.0
  H  H30  1  0.30539598  0.93414806  0.21392522  1.0
  H  H31  1  0.24770371  0.86520200  0.12787383  1.0
  H  H32  1  0.47358228  0.16164508  0.21711521  1.0
  H  H33  1  0.45537206  0.85029017  0.05088969  1.0
  H  H34  1  0.54037993  0.69368413  0.06965239  1.0
  H  H35  1  0.26014904  0.54889715  0.05071136  1.0
  H  H36  1  0.18813239  0.71269309  0.02880348  1.0
  H  H37  1  0.39931528  0.44828493  0.06653016  1.0
  H  H38  1  0.32527308  0.65408305  0.53178048  1.0
  H  H39  1  0.42662598  0.76464613  0.61432723  1.0
  H  H40  1  0.33008015  0.61849576  0.64059588  1.0
  H  H41  1  0.45841976  0.59779708  0.64994937  1.0
  H  H42  1  0.39672921  0.54414757  0.59447644  1.0
  H  H43  1  0.58957697  0.87523264  0.45923021  1.0
  H  H44  1  0.66946410  0.93881850  0.37602733  1.0
  H  H45  1  0.43419765  0.80530457  0.28608194  1.0
  H  H46  1  0.36525761  0.74763036  0.37213942  1.0
  H  H47  1  0.66152437  0.97368548  0.28287941  1.0
  H  H48  1  0.35028316  0.95537370  0.44913544  1.0
  H  H49  1  0.19367458  0.04039760  0.43040332  1.0
  H  H50  1  0.04891803  0.76012575  0.44938933  1.0
  H  H51  1  0.21272995  0.68809011  0.47121711  1.0
  H  H52  1  0.94830152  0.89928756  0.43357839  1.0
  H  H53  1  0.67472137  0.34591558  0.53177740  1.0
  H  H54  1  0.57337132  0.23535439  0.61432669  1.0
  H  H55  1  0.66991713  0.38150320  0.64059556  1.0
  H  H56  1  0.54157678  0.40219965  0.64994906  1.0
  H  H57  1  0.60326738  0.45585156  0.59447606  1.0
  H  H58  1  0.41042120  0.12477213  0.45922982  1.0
  H  H59  1  0.33053561  0.06118877  0.37602663  1.0
  H  H60  1  0.56581605  0.19469351  0.28608345  1.0
  H  H61  1  0.63474869  0.25236446  0.37214164  1.0
  H  H62  1  0.33847981  0.02631775  0.28287954  1.0
  H  H63  1  0.64971868  0.04462377  0.44913707  1.0
  H  H64  1  0.80632727  0.95960141  0.43040478  1.0
  H  H65  1  0.95108308  0.23987539  0.44938670  1.0
  H  H66  1  0.78726894  0.31190949  0.47121443  1.0
  H  H67  1  0.05170106  0.10070851  0.43357691  1.0
  H  H68  1  0.17442105  0.15384165  0.03178284  1.0
  H  H69  1  0.07300103  0.26439241  0.11434723  1.0
  H  H70  1  0.16966508  0.11827869  0.14067709  1.0
  H  H71  1  0.04131677  0.09754253  0.14997097  1.0
  H  H72  1  0.10313441  0.04389717  0.09453285  1.0
  H  H73  1  0.91015841  0.37516491  0.95921394  1.0
  H  H74  1  0.83036239  0.43876678  0.87599427  1.0
  H  H75  1  0.06588575  0.30538459  0.78612979  1.0
  H  H76  1  0.13473361  0.24769491  0.87221886  1.0
  H  H77  1  0.83842703  0.47374811  0.78286195  1.0
  H  H78  1  0.14958513  0.45546778  0.94927772  1.0
  H  H79  1  0.30629643  0.54046215  0.93082363  1.0
  H  H80  1  0.45097557  0.26014736  0.95003066  1.0
  H  H81  1  0.28705581  0.18814229  0.97153147  1.0
  H  H82  1  0.55167357  0.39925507  0.93430147  1.0
  H  H83  1  0.82558041  0.84615664  0.03178441  1.0
  H  H84  1  0.92699962  0.73560484  0.11434969  1.0
  H  H85  1  0.83033043  0.88171626  0.14067742  1.0
  H  H86  1  0.95867653  0.90245678  0.14997366  1.0
  H  H87  1  0.89686259  0.95610088  0.09453430  1.0
  H  H88  1  0.08985399  0.62485046  0.95921350  1.0
  H  H89  1  0.16964496  0.56124231  0.87599468  1.0
  H  H90  1  0.93411654  0.69462116  0.78613189  1.0
  H  H91  1  0.86527300  0.75231273  0.87222172  1.0
  H  H92  1  0.16157086  0.52625179  0.78286440  1.0
  H  H93  1  0.85041995  0.54453444  0.94927319  1.0
  H  H94  1  0.69370648  0.45954014  0.93081922  1.0
  H  H95  1  0.54902879  0.73985412  0.95002960  1.0
  H  H96  1  0.71294706  0.81185911  0.97153030  1.0
  H  H97  1  0.44833226  0.60074794  0.93430057  1.0
  H  H98  1  0.65391546  0.67453278  0.46815113  1.0
  H  H99  1  0.76440441  0.57311042  0.38557233  1.0
  H  H100  1  0.61827606  0.66973485  0.35929013  1.0
  H  H101  1  0.59758138  0.54138526  0.34997593  1.0
  H  H102  1  0.54393780  0.60315337  0.40542685  1.0
  H  H103  1  0.87517739  0.41020281  0.54073379  1.0
  H  H104  1  0.93871837  0.33039868  0.62396668  1.0
  H  H105  1  0.80534564  0.56598978  0.71379879  1.0
  H  H106  1  0.74773171  0.63484110  0.62770290  1.0
  H  H107  1  0.97361498  0.33845212  0.71710337  1.0
  H  H108  1  0.95546259  0.64960838  0.55066071  1.0
  H  H109  1  0.04044139  0.80628991  0.56925565  1.0
  H  H110  1  0.76016342  0.95104135  0.55012744  1.0
  H  H111  1  0.68816415  0.78715818  0.52847189  1.0
  H  H112  1  0.89927633  0.05169002  0.56590463  1.0
  H  H113  1  0.34608416  0.32546242  0.46815415  1.0
  H  H114  1  0.23559382  0.42688363  0.38557366  1.0
  H  H115  1  0.38172732  0.33026662  0.35928873  1.0
  H  H116  1  0.40241394  0.45862065  0.34997840  1.0
  H  H117  1  0.45606408  0.39684720  0.40542777  1.0
  H  H118  1  0.12480752  0.58978479  0.54073418  1.0
  H  H119  1  0.06127307  0.66959301  0.62396500  1.0
  H  H120  1  0.19465085  0.43400745  0.71380012  1.0
  H  H121  1  0.25225972  0.36515279  0.62770509  1.0
  H  H122  1  0.02638444  0.66155022  0.71710411  1.0
  H  H123  1  0.04453916  0.35038432  0.55065817  1.0
  H  H124  1  0.95955962  0.19370639  0.56925306  1.0
  H  H125  1  0.23983467  0.04895062  0.55012716  1.0
  H  H126  1  0.31183689  0.21283534  0.52847262  1.0
  H  H127  1  0.10072175  0.94830409  0.56590106  1.0
  C  C128  1  0.80327804  0.97431863  0.93772170  1.0
  C  C129  1  0.79917455  0.07650146  0.91304901  1.0
  C  C130  1  0.89017277  0.09944823  0.87992211  1.0
  C  C131  1  0.63678445  0.94260962  0.08011324  1.0
  C  C132  1  0.60265261  0.89860415  0.12641445  1.0
  C  C133  1  0.62026342  0.94124383  0.17683780  1.0
  C  C134  1  0.67621490  0.02835802  0.17673540  1.0
  C  C135  1  0.70750682  0.06879680  0.12899129  1.0
  C  C136  1  0.58016309  0.89632921  0.22438660  1.0
  C  C137  1  0.58452226  0.21879956  0.05079395  1.0
  C  C138  1  0.53818842  0.30657370  0.06183326  1.0
  C  C139  1  0.59245162  0.39461140  0.06150821  1.0
  C  C140  1  0.69347386  0.38599492  0.05075182  1.0
  C  C141  1  0.73453934  0.29576340  0.03842609  1.0
  C  C142  1  0.54882243  0.49067373  0.06734904  1.0
  C  C143  1  0.19672559  0.02568437  0.93772185  1.0
  C  C144  1  0.20082104  0.92349943  0.91305024  1.0
  C  C145  1  0.10981772  0.90055645  0.87992619  1.0
  C  C146  1  0.36321330  0.05739582  0.08011413  1.0
  C  C147  1  0.39734657  0.10140185  0.12641448  1.0
  C  C148  1  0.37973719  0.05876198  0.17683909  1.0
  C  C149  1  0.32378423  0.97164560  0.17673776  1.0
  C  C150  1  0.29249236  0.93120773  0.12899329  1.0
  C  C151  1  0.41984040  0.10367423  0.22438743  1.0
  C  C152  1  0.41547992  0.78120012  0.05079167  1.0
  C  C153  1  0.46181448  0.69342594  0.06182987  1.0
  C  C154  1  0.40755494  0.60538898  0.06150532  1.0
  C  C155  1  0.30653051  0.61400256  0.05075054  1.0
  C  C156  1  0.26546285  0.70423413  0.03842634  1.0
  C  C157  1  0.45118706  0.50932809  0.06734864  1.0
  C  C158  1  0.52570760  0.69673251  0.56225924  1.0
  C  C159  1  0.42354015  0.70072875  0.58693440  1.0
  C  C160  1  0.40065708  0.60965264  0.62001850  1.0
  C  C161  1  0.55733770  0.86332236  0.41989143  1.0
  C  C162  1  0.60133327  0.89745295  0.37358863  1.0
  C  C163  1  0.55873181  0.87975706  0.32316326  1.0
  C  C164  1  0.47166313  0.82374425  0.32326857  1.0
  C  C165  1  0.43123246  0.79246411  0.37101668  1.0
  C  C166  1  0.60362986  0.91986767  0.27561087  1.0
  C  C167  1  0.28118835  0.91547723  0.44923713  1.0
  C  C168  1  0.19342209  0.96181085  0.43823298  1.0
  C  C169  1  0.10538793  0.90755082  0.43857964  1.0
  C  C170  1  0.11402417  0.80650334  0.44933086  1.0
  C  C171  1  0.20425785  0.76543415  0.46160981  1.0
  C  C172  1  0.00934011  0.95117149  0.43276316  1.0
  C  C173  1  0.47428974  0.30326674  0.56225865  1.0
  C  C174  1  0.57645718  0.29927042  0.58693339  1.0
  C  C175  1  0.59933949  0.39034714  0.62001820  1.0
  C  C176  1  0.44266197  0.13668182  0.41989102  1.0
  C  C177  1  0.39866864  0.10254920  0.37358706  1.0
  C  C178  1  0.44127526  0.12024748  0.32316287  1.0
  C  C179  1  0.52834761  0.17625515  0.32327050  1.0
  C  C180  1  0.56877384  0.20753439  0.37102097  1.0
  C  C181  1  0.39637872  0.08013558  0.27561092  1.0
  C  C182  1  0.71881203  0.08452171  0.44923711  1.0
  C  C183  1  0.80657829  0.03818813  0.43823219  1.0
  C  C184  1  0.89461392  0.09245036  0.43857717  1.0
  C  C185  1  0.88597547  0.19349706  0.44932789  1.0
  C  C186  1  0.79574105  0.23456475  0.46160642  1.0
  C  C187  1  0.99066175  0.04882384  0.43276231  1.0
  C  C188  1  0.97407896  0.19642630  0.06224993  1.0
  C  C189  1  0.07620334  0.20047225  0.08696241  1.0
  C  C190  1  0.09912276  0.10941543  0.12006531  1.0
  C  C191  1  0.94248637  0.36329860  0.91988676  1.0
  C  C192  1  0.89854399  0.39744306  0.87357316  1.0
  C  C193  1  0.94123447  0.37980098  0.82315338  1.0
  C  C194  1  0.02834286  0.32380471  0.82331121  1.0
  C  C195  1  0.06871835  0.29251282  0.87107012  1.0
  C  C196  1  0.89634821  0.41994248  0.77559219  1.0
  C  C197  1  0.21866963  0.41554700  0.94948146  1.0
  C  C198  1  0.30650954  0.46188956  0.93864660  1.0
  C  C199  1  0.39455285  0.40759811  0.93914453  1.0
  C  C200  1  0.38587783  0.30655587  0.94985093  1.0
  C  C201  1  0.29558346  0.26548772  0.96195619  1.0
  C  C202  1  0.49064112  0.45119102  0.93344611  1.0
  C  C203  1  0.02592100  0.80357407  0.06225253  1.0
  C  C204  1  0.92379807  0.79952730  0.08696480  1.0
  C  C205  1  0.90087422  0.89058253  0.12006682  1.0
  C  C206  1  0.05752460  0.63670959  0.91988952  1.0
  C  C207  1  0.10146262  0.60256604  0.87357274  1.0
  C  C208  1  0.05876853  0.62020391  0.82315456  1.0
  C  C209  1  0.97165794  0.67620164  0.82331293  1.0
  C  C210  1  0.93128754  0.70749556  0.87107542  1.0
  C  C211  1  0.10365116  0.58006111  0.77559380  1.0
  C  C212  1  0.78133473  0.58445521  0.94947891  1.0
  C  C213  1  0.69349189  0.53811343  0.93864452  1.0
  C  C214  1  0.60544858  0.59240635  0.93914401  1.0
  C  C215  1  0.61412579  0.69344708  0.94985031  1.0
  C  C216  1  0.70442308  0.73451299  0.96195590  1.0
  C  C217  1  0.50935959  0.54881272  0.93344565  1.0
  C  C218  1  0.69649137  0.47413845  0.43767963  1.0
  C  C219  1  0.70051854  0.57628216  0.41297480  1.0
  C  C220  1  0.60944654  0.59917880  0.37989075  1.0
  C  C221  1  0.86330399  0.44254826  0.58005695  1.0
  C  C222  1  0.89741009  0.39859595  0.62638377  1.0
  C  C223  1  0.87975335  0.44131288  0.67679472  1.0
  C  C224  1  0.82377884  0.52843919  0.67662417  1.0
  C  C225  1  0.79252945  0.56881402  0.62885365  1.0
  C  C226  1  0.91985156  0.39641515  0.72436392  1.0
  C  C227  1  0.91554248  0.71870862  0.55051099  1.0
  C  C228  1  0.96186178  0.80651978  0.56143462  1.0
  C  C229  1  0.90759573  0.89457541  0.56099350  1.0
  C  C230  1  0.80655895  0.88592969  0.55026796  1.0
  C  C231  1  0.76550992  0.79565652  0.53807312  1.0
  C  C232  1  0.95118251  0.99065839  0.56674827  1.0
  C  C233  1  0.30349582  0.52585906  0.43768124  1.0
  C  C234  1  0.29947894  0.42371252  0.41297733  1.0
  C  C235  1  0.39055389  0.40082260  0.37989168  1.0
  C  C236  1  0.13668308  0.55744214  0.58005698  1.0
  C  C237  1  0.10258281  0.60139647  0.62638455  1.0
  C  C238  1  0.12024317  0.55868522  0.67679474  1.0
  C  C239  1  0.17621475  0.47155378  0.67662588  1.0
  C  C240  1  0.20746344  0.43117912  0.62885459  1.0
  C  C241  1  0.08014565  0.60358351  0.72436430  1.0
  C  C242  1  0.08445635  0.28128555  0.55051010  1.0
  C  C243  1  0.03813704  0.19347362  0.56143224  1.0
  C  C244  1  0.09240455  0.10541725  0.56099320  1.0
  C  C245  1  0.19344060  0.11406228  0.55026642  1.0
  C  C246  1  0.23449184  0.20433622  0.53807229  1.0
  C  C247  1  0.04881483  0.00933791  0.56674648  1.0
  N  N248  1  0.77901269  0.14967551  0.95434420  1.0
  N  N249  1  0.68676384  0.02833231  0.08054638  1.0
  N  N250  1  0.68093758  0.21243759  0.03839332  1.0
  N  N251  1  0.22098287  0.85032523  0.95434510  1.0
  N  N252  1  0.31323758  0.97167312  0.08054954  1.0
  N  N253  1  0.31906314  0.78755921  0.03839427  1.0
  N  N254  1  0.35035431  0.72091961  0.54564678  1.0
  N  N255  1  0.47166624  0.81327413  0.41945839  1.0
  N  N256  1  0.28757395  0.81904001  0.46162659  1.0
  N  N257  1  0.64964305  0.27907898  0.54564578  1.0
  N  N258  1  0.52833489  0.18672565  0.41946151  1.0
  N  N259  1  0.71242495  0.18095742  0.46162567  1.0
  N  N260  1  0.14941852  0.22068276  0.04570318  1.0
  N  N261  1  0.02820891  0.31329209  0.91950905  1.0
  N  N262  1  0.21225613  0.31910728  0.96183170  1.0
  N  N263  1  0.85058586  0.77931767  0.04570482  1.0
  N  N264  1  0.97179987  0.68671317  0.91951195  1.0
  N  N265  1  0.78774748  0.68089196  0.96183104  1.0
  N  N266  1  0.72074253  0.64949651  0.45423677  1.0
  N  N267  1  0.81331283  0.52828418  0.58042355  1.0
  N  N268  1  0.81911367  0.71231803  0.53813920  1.0
  N  N269  1  0.27925638  0.35049581  0.45423777  1.0
  N  N270  1  0.18667717  0.47170621  0.58042565  1.0
  N  N271  1  0.18088443  0.28767399  0.53813949  1.0
  O  O272  1  0.76796165  0.97133170  0.98720689  1.0
  O  O273  1  0.83236024  0.89981475  0.91440984  1.0
  O  O274  1  0.23204268  0.02867111  0.98720704  1.0
  O  O275  1  0.16764707  0.10018907  0.91440913  1.0
  O  O276  1  0.52867806  0.73205363  0.51277644  1.0
  O  O277  1  0.60022606  0.66772316  0.58558035  1.0
  O  O278  1  0.47132153  0.26794654  0.51277549  1.0
  O  O279  1  0.39976980  0.33227528  0.58557774  1.0
  O  O280  1  0.97113948  0.23190555  0.01280115  1.0
  O  O281  1  0.89958045  0.16725092  0.08552583  1.0
  O  O282  1  0.02886199  0.76809720  0.01280338  1.0
  O  O283  1  0.10041877  0.83274644  0.08552837  1.0
  O  O284  1  0.73194972  0.47119640  0.48713079  1.0
  O  O285  1  0.66734945  0.39962888  0.41439940  1.0
  O  O286  1  0.26802790  0.52879727  0.48713161  1.0
  O  O287  1  0.33263702  0.60037239  0.41440333  1.0
