# generated using pymatgen
data_ZnH20C24N3(O3F2)2
_symmetry_space_group_name_H-M   'P 1'
_cell_length_a   14.69288152
_cell_length_b   16.10368447
_cell_length_c   19.31415424
_cell_angle_alpha   90.07147786
_cell_angle_beta   90.08872787
_cell_angle_gamma   89.69686735
_symmetry_Int_Tables_number   1
_chemical_formula_structural   ZnH20C24N3(O3F2)2
_chemical_formula_sum   'Zn2 H40 C48 N6 O12 F8'
_cell_volume   4569.83997003
_cell_formula_units_Z   2
loop_
 _symmetry_equiv_pos_site_id
 _symmetry_equiv_pos_as_xyz
  1  'x, y, z'
loop_
 _atom_site_type_symbol
 _atom_site_label
 _atom_site_symmetry_multiplicity
 _atom_site_fract_x
 _atom_site_fract_y
 _atom_site_fract_z
 _atom_site_occupancy
  Zn  Zn0  1  0.40390384  0.50066394  0.49953842  1.0
  Zn  Zn1  1  0.59724646  0.50038167  0.50007697  1.0
  H  H2  1  0.35620847  0.46744829  0.71576082  1.0
  H  H3  1  0.64352435  0.51563779  0.72188839  1.0
  H  H4  1  0.44731515  0.07397184  0.60039946  1.0
  H  H5  1  0.56692322  0.07362737  0.59548982  1.0
  H  H6  1  0.08296848  0.63534957  0.51553659  1.0
  H  H7  1  0.92536422  0.63372323  0.49944796  1.0
  H  H8  1  0.92295730  0.43583065  0.40413030  1.0
  H  H9  1  0.08132571  0.44397563  0.39989213  1.0
  H  H10  1  0.91727198  0.54509492  0.39712230  1.0
  H  H11  1  0.07575867  0.55347473  0.39873919  1.0
  H  H12  1  0.92695574  0.36815599  0.50968380  1.0
  H  H13  1  0.08066049  0.36760110  0.51149536  1.0
  H  H14  1  0.91672620  0.59546642  0.58436790  1.0
  H  H15  1  0.07532573  0.57793264  0.59318141  1.0
  H  H16  1  0.35428183  0.48612720  0.28161868  1.0
  H  H17  1  0.64748440  0.49809439  0.27800740  1.0
  H  H18  1  0.64578781  0.06993489  0.48424096  1.0
  H  H19  1  0.35285789  0.07049956  0.49644948  1.0
  H  H20  1  0.44744796  0.92816038  0.60100769  1.0
  H  H21  1  0.56737678  0.92779538  0.59621523  1.0
  H  H22  1  0.96820133  0.50759788  0.65467424  1.0
  H  H23  1  0.95143518  0.41931136  0.70668615  1.0
  H  H24  1  0.78174021  0.43808624  0.69915262  1.0
  H  H25  1  0.83604380  0.52528715  0.73748966  1.0
  H  H26  1  0.79600865  0.53039995  0.65039004  1.0
  H  H27  1  0.16787025  0.31165003  0.59840938  1.0
  H  H28  1  0.05488458  0.30234854  0.63243375  1.0
  H  H29  1  0.17611575  0.28837500  0.72522943  1.0
  H  H30  1  0.21267098  0.39126458  0.70676034  1.0
  H  H31  1  0.10208949  0.37388337  0.74126439  1.0
  H  H32  1  0.37818127  0.33579957  0.88920410  1.0
  H  H33  1  0.31948048  0.33352854  0.80833566  1.0
  H  H34  1  0.17606551  0.38274095  0.86853296  1.0
  H  H35  1  0.21621243  0.28696199  0.90372221  1.0
  H  H36  1  0.23488658  0.38178692  0.94919163  1.0
  H  H37  1  0.63737783  0.63107614  0.88505234  1.0
  H  H38  1  0.70360574  0.61332901  0.80911170  1.0
  H  H39  1  0.82947305  0.55239453  0.88194804  1.0
  H  H40  1  0.80218048  0.65487627  0.91066240  1.0
  H  H41  1  0.76255287  0.56711522  0.95772469  1.0
  C  C42  1  0.50068638  0.66225093  0.49875102  1.0
  C  C43  1  0.49529998  0.47754376  0.93259741  1.0
  C  C44  1  0.41794268  0.48306264  0.18111841  1.0
  C  C45  1  0.57972268  0.48848024  0.17912099  1.0
  C  C46  1  0.41770043  0.48744633  0.25265298  1.0
  C  C47  1  0.58291782  0.49340413  0.25065541  1.0
  C  C48  1  0.50102538  0.49277765  0.28748449  1.0
  C  C49  1  0.49807187  0.48342089  0.14168171  1.0
  C  C50  1  0.41160048  0.95290317  0.46410720  1.0
  C  C51  1  0.58339604  0.95248083  0.45713086  1.0
  C  C52  1  0.58402330  0.04923160  0.45710638  1.0
  C  C53  1  0.41035153  0.04964566  0.46427009  1.0
  C  C54  1  0.49895136  0.24829109  0.49917029  1.0
  C  C55  1  0.50022630  0.91748872  0.49722607  1.0
  C  C56  1  0.49966281  0.08298659  0.49599435  1.0
  C  C57  1  0.50150408  0.49825457  0.63413427  1.0
  C  C58  1  0.50523858  0.04863746  0.57123348  1.0
  C  C59  1  0.50547374  0.95254389  0.57204859  1.0
  C  C60  1  0.49938751  0.17298901  0.49688963  1.0
  C  C61  1  0.50041336  0.82760216  0.49691797  1.0
  C  C62  1  0.50045615  0.75234410  0.49809366  1.0
  C  C63  1  0.94774080  0.58326526  0.53383125  1.0
  C  C64  1  0.05250770  0.58010635  0.53911534  1.0
  C  C65  1  0.94710151  0.49401158  0.42726638  1.0
  C  C66  1  0.05218656  0.49821450  0.42648830  1.0
  C  C67  1  0.91269654  0.50037681  0.50309001  1.0
  C  C68  1  0.08834599  0.50137030  0.50174437  1.0
  C  C69  1  0.05643425  0.42238885  0.54074678  1.0
  C  C70  1  0.94875471  0.42088549  0.54188756  1.0
  C  C71  1  0.18694431  0.50167465  0.50129028  1.0
  C  C72  1  0.81427827  0.49948876  0.50277795  1.0
  C  C73  1  0.49764522  0.33838080  0.49994700  1.0
  C  C74  1  0.50219418  0.49720964  0.36525006  1.0
  C  C75  1  0.41839179  0.47548160  0.74568595  1.0
  C  C76  1  0.58048590  0.50298020  0.74931007  1.0
  C  C77  1  0.41716443  0.46866380  0.81743877  1.0
  C  C78  1  0.57916287  0.49677805  0.82126424  1.0
  C  C79  1  0.49741083  0.47985504  0.85627985  1.0
  C  C80  1  0.50011079  0.49261918  0.71162834  1.0
  C  C81  1  0.49602823  0.47978671  0.06546181  1.0
  C  C82  1  0.92024988  0.45744481  0.66571698  1.0
  C  C83  1  0.82817261  0.48984131  0.68913189  1.0
  C  C84  1  0.11699306  0.34052068  0.63311985  1.0
  C  C85  1  0.15403775  0.34934587  0.70583751  1.0
  C  C86  1  0.32099126  0.36340591  0.85984332  1.0
  C  C87  1  0.23171634  0.35322280  0.89762821  1.0
  C  C88  1  0.69067471  0.59101154  0.86219918  1.0
  C  C89  1  0.77634766  0.59125056  0.90567838  1.0
  N  N90  1  0.44289027  0.53540672  0.96437519  1.0
  N  N91  1  0.54415985  0.41809411  0.96533524  1.0
  N  N92  1  0.44302040  0.53637714  0.03280302  1.0
  N  N93  1  0.54492105  0.41950222  0.03394139  1.0
  N  N94  1  0.26569195  0.50187797  0.49967621  1.0
  N  N95  1  0.73550228  0.49881082  0.50117427  1.0
  O  O96  1  0.42312716  0.62766385  0.50017041  1.0
  O  O97  1  0.57852861  0.62738353  0.49785483  1.0
  O  O98  1  0.42459887  0.49704056  0.60366688  1.0
  O  O99  1  0.57907802  0.50318298  0.60519744  1.0
  O  O100  1  0.41938842  0.37239780  0.49880382  1.0
  O  O101  1  0.57482204  0.37370602  0.50154652  1.0
  O  O102  1  0.42504961  0.49945532  0.39506149  1.0
  O  O103  1  0.57976517  0.49797724  0.39448830  1.0
  O  O104  1  0.90948198  0.40299225  0.60631944  1.0
  O  O105  1  0.09594895  0.42251075  0.60722420  1.0
  O  O106  1  0.33666047  0.45132100  0.85102937  1.0
  O  O107  1  0.65744797  0.50671599  0.85973189  1.0
  F  F108  1  0.33705889  0.47538212  0.14746888  1.0
  F  F109  1  0.65915368  0.49141864  0.14310221  1.0
  F  F110  1  0.39619539  0.07975973  0.39775537  1.0
  F  F111  1  0.58791384  0.07914769  0.38978287  1.0
  F  F112  1  0.39901896  0.92263450  0.39883604  1.0
  F  F113  1  0.58670898  0.92212078  0.39122838  1.0
  F  F114  1  0.66220936  0.92505620  0.49020267  1.0
  F  F115  1  0.33814425  0.92578908  0.50332005  1.0
