# generated using pymatgen
data_Cu3H12C18N15O
_symmetry_space_group_name_H-M   'P 1'
_cell_length_a   25.98317776
_cell_length_b   25.98312323
_cell_length_c   25.98326199
_cell_angle_alpha   59.99991489
_cell_angle_beta   59.99986489
_cell_angle_gamma   59.99996416
_symmetry_Int_Tables_number   1
_chemical_formula_structural   Cu3H12C18N15O
_chemical_formula_sum   'Cu24 H96 C144 N120 O8'
_cell_volume   12403.99125957
_cell_formula_units_Z   8
loop_
 _symmetry_equiv_pos_site_id
 _symmetry_equiv_pos_as_xyz
  1  'x, y, z'
loop_
 _atom_site_type_symbol
 _atom_site_label
 _atom_site_symmetry_multiplicity
 _atom_site_fract_x
 _atom_site_fract_y
 _atom_site_fract_z
 _atom_site_occupancy
  Cu  Cu0  1  0.24999793  0.67549362  0.74999223  1.0
  Cu  Cu1  1  0.67548854  0.24999929  0.82450937  1.0
  Cu  Cu2  1  0.82450928  0.74999917  0.67549183  1.0
  Cu  Cu3  1  0.75000061  0.82451042  0.25000144  1.0
  Cu  Cu4  1  0.67549258  0.74999930  0.24999994  1.0
  Cu  Cu5  1  0.24999984  0.82450890  0.67548528  1.0
  Cu  Cu6  1  0.75000021  0.67548853  0.82451000  1.0
  Cu  Cu7  1  0.82450797  0.25000080  0.74999848  1.0
  Cu  Cu8  1  0.74999950  0.25000175  0.67549031  1.0
  Cu  Cu9  1  0.82450727  0.67549091  0.25000261  1.0
  Cu  Cu10  1  0.67549314  0.82450945  0.74999998  1.0
  Cu  Cu11  1  0.24999928  0.75000168  0.82450376  1.0
  Cu  Cu12  1  0.75000024  0.32450688  0.24999749  1.0
  Cu  Cu13  1  0.32450916  0.75000137  0.17549359  1.0
  Cu  Cu14  1  0.17549312  0.24999814  0.32450853  1.0
  Cu  Cu15  1  0.25000039  0.17549091  0.74999992  1.0
  Cu  Cu16  1  0.32450700  0.25000251  0.74999997  1.0
  Cu  Cu17  1  0.75000022  0.17549408  0.32450495  1.0
  Cu  Cu18  1  0.25000078  0.32451058  0.17548978  1.0
  Cu  Cu19  1  0.17549067  0.75000043  0.25000257  1.0
  Cu  Cu20  1  0.25000103  0.75000063  0.32450922  1.0
  Cu  Cu21  1  0.17549278  0.32450985  0.74999797  1.0
  Cu  Cu22  1  0.32450833  0.17548951  0.25000002  1.0
  Cu  Cu23  1  0.75000030  0.24999880  0.17548488  1.0
  H  H24  1  0.26523154  0.83977765  0.45247708  1.0
  H  H25  1  0.26665323  0.83503560  0.35786605  1.0
  H  H26  1  0.83977942  0.26523012  0.94251018  1.0
  H  H27  1  0.83503534  0.26665456  0.04044027  1.0
  H  H28  1  0.94251165  0.45247904  0.83978000  1.0
  H  H29  1  0.04044259  0.35786854  0.83503578  1.0
  H  H30  1  0.45247936  0.94251171  0.26523012  1.0
  H  H31  1  0.35786846  0.04044238  0.26665410  1.0
  H  H32  1  0.83977940  0.45247974  0.26523106  1.0
  H  H33  1  0.83503471  0.35786903  0.26665571  1.0
  H  H34  1  0.26522933  0.94250875  0.83978151  1.0
  H  H35  1  0.26665497  0.04043907  0.83503624  1.0
  H  H36  1  0.45247795  0.83977944  0.94251201  1.0
  H  H37  1  0.35786841  0.83503423  0.04044337  1.0
  H  H38  1  0.94251104  0.26523067  0.45247912  1.0
  H  H39  1  0.04044203  0.26665324  0.35786878  1.0
  H  H40  1  0.45247864  0.26522825  0.83978054  1.0
  H  H41  1  0.35786799  0.26665401  0.83503534  1.0
  H  H42  1  0.94251101  0.83977915  0.26523032  1.0
  H  H43  1  0.04044099  0.83503603  0.26665470  1.0
  H  H44  1  0.83978055  0.94250997  0.45248001  1.0
  H  H45  1  0.83503564  0.04044079  0.35786954  1.0
  H  H46  1  0.26523082  0.45248014  0.94251019  1.0
  H  H47  1  0.26665406  0.35787011  0.04044063  1.0
  H  H48  1  0.23476838  0.66022022  0.55748764  1.0
  H  H49  1  0.23334540  0.66496296  0.45955656  1.0
  H  H50  1  0.66022030  0.23476881  0.04752076  1.0
  H  H51  1  0.66496443  0.23334539  0.14213032  1.0
  H  H52  1  0.55748848  0.04752161  0.23477083  1.0
  H  H53  1  0.45955755  0.14213255  0.23334662  1.0
  H  H54  1  0.04752110  0.55748901  0.66022081  1.0
  H  H55  1  0.14213176  0.45955856  0.66496491  1.0
  H  H56  1  0.66022090  0.04752062  0.55749040  1.0
  H  H57  1  0.66496566  0.14213122  0.45955941  1.0
  H  H58  1  0.23477067  0.55749031  0.04751900  1.0
  H  H59  1  0.23334664  0.45955966  0.14212904  1.0
  H  H60  1  0.04752282  0.66021919  0.23477001  1.0
  H  H61  1  0.14213201  0.66496501  0.23334649  1.0
  H  H62  1  0.55748859  0.23476930  0.66022109  1.0
  H  H63  1  0.45955766  0.23334751  0.66496393  1.0
  H  H64  1  0.04752127  0.23477144  0.55748748  1.0
  H  H65  1  0.14213246  0.23334585  0.45955700  1.0
  H  H66  1  0.55748890  0.66021941  0.04752176  1.0
  H  H67  1  0.45955839  0.66496368  0.14213197  1.0
  H  H68  1  0.66022054  0.55748988  0.23476885  1.0
  H  H69  1  0.66496528  0.45955915  0.23334471  1.0
  H  H70  1  0.23476990  0.04752036  0.66022121  1.0
  H  H71  1  0.23334585  0.14212983  0.66496648  1.0
  H  H72  1  0.73476852  0.16022001  0.54752235  1.0
  H  H73  1  0.73334399  0.16496522  0.64213245  1.0
  H  H74  1  0.16021829  0.73476965  0.05748860  1.0
  H  H75  1  0.16496330  0.73334623  0.95955792  1.0
  H  H76  1  0.05748888  0.54752112  0.16022064  1.0
  H  H77  1  0.95955840  0.64213147  0.16496393  1.0
  H  H78  1  0.54752306  0.05748960  0.73476900  1.0
  H  H79  1  0.64213254  0.95955807  0.73334577  1.0
  H  H80  1  0.16021876  0.54751988  0.73477180  1.0
  H  H81  1  0.16496346  0.64213192  0.73334533  1.0
  H  H82  1  0.73477166  0.05749037  0.16022173  1.0
  H  H83  1  0.73334604  0.95955960  0.16496529  1.0
  H  H84  1  0.54752164  0.16022148  0.05748834  1.0
  H  H85  1  0.64213166  0.16496564  0.95955726  1.0
  H  H86  1  0.05748948  0.73476950  0.54752152  1.0
  H  H87  1  0.95955756  0.73334723  0.64213141  1.0
  H  H88  1  0.54752189  0.73476880  0.16022127  1.0
  H  H89  1  0.64213253  0.73334527  0.16496536  1.0
  H  H90  1  0.05748858  0.16022088  0.73477009  1.0
  H  H91  1  0.95955860  0.16496444  0.73334549  1.0
  H  H92  1  0.16022234  0.05748941  0.54752023  1.0
  H  H93  1  0.16496629  0.95955802  0.64213031  1.0
  H  H94  1  0.73476876  0.54752256  0.05749081  1.0
  H  H95  1  0.73334553  0.64213258  0.95955883  1.0
  H  H96  1  0.76523214  0.33977906  0.44251113  1.0
  H  H97  1  0.76665653  0.33503451  0.54044165  1.0
  H  H98  1  0.33977929  0.76523033  0.95247816  1.0
  H  H99  1  0.33503468  0.76665436  0.85786854  1.0
  H  H100  1  0.44251110  0.95247976  0.76523237  1.0
  H  H101  1  0.54044203  0.85786882  0.76665466  1.0
  H  H102  1  0.95247896  0.44251131  0.33977999  1.0
  H  H103  1  0.85786876  0.54044161  0.33503496  1.0
  H  H104  1  0.33978199  0.95247964  0.44251055  1.0
  H  H105  1  0.33503722  0.85786816  0.54044044  1.0
  H  H106  1  0.76522797  0.44251048  0.95248343  1.0
  H  H107  1  0.76665342  0.54044110  0.85787038  1.0
  H  H108  1  0.95247724  0.33978024  0.76523085  1.0
  H  H109  1  0.85786757  0.33503502  0.76665392  1.0
  H  H110  1  0.44251053  0.76523089  0.33977947  1.0
  H  H111  1  0.54044192  0.76665386  0.33503581  1.0
  H  H112  1  0.95247973  0.76522901  0.44251239  1.0
  H  H113  1  0.85786807  0.76665431  0.54044287  1.0
  H  H114  1  0.44251114  0.33978136  0.95247882  1.0
  H  H115  1  0.54044166  0.33503664  0.85786806  1.0
  H  H116  1  0.33977812  0.44251046  0.76523225  1.0
  H  H117  1  0.33503385  0.54044192  0.76665502  1.0
  H  H118  1  0.76523015  0.95247774  0.33978262  1.0
  H  H119  1  0.76665421  0.85786827  0.33503619  1.0
  C  C120  1  0.25852124  0.79999640  0.45561219  1.0
  C  C121  1  0.25873529  0.79769276  0.40327993  1.0
  C  C122  1  0.79999746  0.25852103  0.98586635  1.0
  C  C123  1  0.79769365  0.25873604  0.04028686  1.0
  C  C124  1  0.98586747  0.45561484  0.79999738  1.0
  C  C125  1  0.04028894  0.40328232  0.79769397  1.0
  C  C126  1  0.45561343  0.98586748  0.25852165  1.0
  C  C127  1  0.40328174  0.04028906  0.25873589  1.0
  C  C128  1  0.79999748  0.45561504  0.25852173  1.0
  C  C129  1  0.79769300  0.40328218  0.25873561  1.0
  C  C130  1  0.25852094  0.98586516  0.79999833  1.0
  C  C131  1  0.25873612  0.04028601  0.79769517  1.0
  C  C132  1  0.45561435  0.79999615  0.98586808  1.0
  C  C133  1  0.40328122  0.79769286  0.04028973  1.0
  C  C134  1  0.98586636  0.25852178  0.45561432  1.0
  C  C135  1  0.04028881  0.25873529  0.40328215  1.0
  C  C136  1  0.45561370  0.25852015  0.79999760  1.0
  C  C137  1  0.40328130  0.25873602  0.79769377  1.0
  C  C138  1  0.98586681  0.79999705  0.25852180  1.0
  C  C139  1  0.04028828  0.79769383  0.25873612  1.0
  C  C140  1  0.79999814  0.98586584  0.45561533  1.0
  C  C141  1  0.79769299  0.04028816  0.40328320  1.0
  C  C142  1  0.25852192  0.45561595  0.98586504  1.0
  C  C143  1  0.25873658  0.40328277  0.04028735  1.0
  C  C144  1  0.24147729  0.70000278  0.51413130  1.0
  C  C145  1  0.24126427  0.70230554  0.45970899  1.0
  C  C146  1  0.70000317  0.24147764  0.04438516  1.0
  C  C147  1  0.70230616  0.24126385  0.09671710  1.0
  C  C148  1  0.51413268  0.04438621  0.24147964  1.0
  C  C149  1  0.45971122  0.09671873  0.24126450  1.0
  C  C150  1  0.04438653  0.51413299  0.70000287  1.0
  C  C151  1  0.09671845  0.45971235  0.70230607  1.0
  C  C152  1  0.70000285  0.04438570  0.51413422  1.0
  C  C153  1  0.70230783  0.09671746  0.45971113  1.0
  C  C154  1  0.24147909  0.51413474  0.04438411  1.0
  C  C155  1  0.24126554  0.45971263  0.09671570  1.0
  C  C156  1  0.04438636  0.70000210  0.24147908  1.0
  C  C157  1  0.09671871  0.70230567  0.24126458  1.0
  C  C158  1  0.51413324  0.24147823  0.70000313  1.0
  C  C159  1  0.45971083  0.24126510  0.70230596  1.0
  C  C160  1  0.04438581  0.24147960  0.51413207  1.0
  C  C161  1  0.09671871  0.24126439  0.45971034  1.0
  C  C162  1  0.51413263  0.70000210  0.04438657  1.0
  C  C163  1  0.45971067  0.70230553  0.09671892  1.0
  C  C164  1  0.70000199  0.51413389  0.24147771  1.0
  C  C165  1  0.70230790  0.45971139  0.24126290  1.0
  C  C166  1  0.24147876  0.04438375  0.70000454  1.0
  C  C167  1  0.24126376  0.09671661  0.70230723  1.0
  C  C168  1  0.74147834  0.20000230  0.54438619  1.0
  C  C169  1  0.74126336  0.20230670  0.59671892  1.0
  C  C170  1  0.20000165  0.74147872  0.01413367  1.0
  C  C171  1  0.20230500  0.74126519  0.95971110  1.0
  C  C172  1  0.01413306  0.54438621  0.20000166  1.0
  C  C173  1  0.95971253  0.59671753  0.20230520  1.0
  C  C174  1  0.54438662  0.01413373  0.74147871  1.0
  C  C175  1  0.59671925  0.95971139  0.74126437  1.0
  C  C176  1  0.20000116  0.54438575  0.74148031  1.0
  C  C177  1  0.20230517  0.59671788  0.74126511  1.0
  C  C178  1  0.74148006  0.01413262  0.20000442  1.0
  C  C179  1  0.74126488  0.95971133  0.20230818  1.0
  C  C180  1  0.54438617  0.20000401  0.01413218  1.0
  C  C181  1  0.59671836  0.20230718  0.95971029  1.0
  C  C182  1  0.01413275  0.74147886  0.54438602  1.0
  C  C183  1  0.95971077  0.74126474  0.59671903  1.0
  C  C184  1  0.54438683  0.74147779  0.20000338  1.0
  C  C185  1  0.59671875  0.74126386  0.20230686  1.0
  C  C186  1  0.01413277  0.20000254  0.74147883  1.0
  C  C187  1  0.95971131  0.20230620  0.74126429  1.0
  C  C188  1  0.20000474  0.01413265  0.54438574  1.0
  C  C189  1  0.20230848  0.95971080  0.59671757  1.0
  C  C190  1  0.74147720  0.54438513  0.01413469  1.0
  C  C191  1  0.74126347  0.59671800  0.95971207  1.0
  C  C192  1  0.75852230  0.29999680  0.48586703  1.0
  C  C193  1  0.75873768  0.29769282  0.54028838  1.0
  C  C194  1  0.29999595  0.75852166  0.95561546  1.0
  C  C195  1  0.29769249  0.75873605  0.90328192  1.0
  C  C196  1  0.48586738  0.95561455  0.75852286  1.0
  C  C197  1  0.54028885  0.90328203  0.75873684  1.0
  C  C198  1  0.95561400  0.48586673  0.29999760  1.0
  C  C199  1  0.90328208  0.54028781  0.29769380  1.0
  C  C200  1  0.29999956  0.95561383  0.48586695  1.0
  C  C201  1  0.29769505  0.90328192  0.54028834  1.0
  C  C202  1  0.75851908  0.48586754  0.95561704  1.0
  C  C203  1  0.75873403  0.54028963  0.90328476  1.0
  C  C204  1  0.95561322  0.29999749  0.75852193  1.0
  C  C205  1  0.90328134  0.29769421  0.75873606  1.0
  C  C206  1  0.48586776  0.75852133  0.29999758  1.0
  C  C207  1  0.54028922  0.75873522  0.29769369  1.0
  C  C208  1  0.95561472  0.75852056  0.48586819  1.0
  C  C209  1  0.90328134  0.75873593  0.54028931  1.0
  C  C210  1  0.48586742  0.29999822  0.95561423  1.0
  C  C211  1  0.54028892  0.29769450  0.90328149  1.0
  C  C212  1  0.29999522  0.48586693  0.75852349  1.0
  C  C213  1  0.29769168  0.54028953  0.75873668  1.0
  C  C214  1  0.75852177  0.95561508  0.29999715  1.0
  C  C215  1  0.75873582  0.90328253  0.29769440  1.0
  C  C216  1  0.24999945  0.74999916  0.56881417  1.0
  C  C217  1  0.24999901  0.74999926  0.51271746  1.0
  C  C218  1  0.74999981  0.24999966  0.93118465  1.0
  C  C219  1  0.75000023  0.24999913  0.98728005  1.0
  C  C220  1  0.93118394  0.56881633  0.75000091  1.0
  C  C221  1  0.98728016  0.51272008  0.75000049  1.0
  C  C222  1  0.56881552  0.93118479  0.25000139  1.0
  C  C223  1  0.51271930  0.98728105  0.25000027  1.0
  C  C224  1  0.75000019  0.56881613  0.24999978  1.0
  C  C225  1  0.75000067  0.51271922  0.24999951  1.0
  C  C226  1  0.24999881  0.93118287  0.75000119  1.0
  C  C227  1  0.24999974  0.98727887  0.75000082  1.0
  C  C228  1  0.56881506  0.74999923  0.93118550  1.0
  C  C229  1  0.51271882  0.74999968  0.98728146  1.0
  C  C230  1  0.93118417  0.24999965  0.56881671  1.0
  C  C231  1  0.98728089  0.24999993  0.51271899  1.0
  C  C232  1  0.56881580  0.24999994  0.75000083  1.0
  C  C233  1  0.51271912  0.24999960  0.75000014  1.0
  C  C234  1  0.93118522  0.74999867  0.25000003  1.0
  C  C235  1  0.98728143  0.74999917  0.24999972  1.0
  C  C236  1  0.75000080  0.93118387  0.56881683  1.0
  C  C237  1  0.74999990  0.98728087  0.51272038  1.0
  C  C238  1  0.24999972  0.56881741  0.93118283  1.0
  C  C239  1  0.25000017  0.51272056  0.98727866  1.0
  C  C240  1  0.75000014  0.24999998  0.43118360  1.0
  C  C241  1  0.75000058  0.24999944  0.48728130  1.0
  C  C242  1  0.24999931  0.75000008  0.06881652  1.0
  C  C243  1  0.24999888  0.75000062  0.01271958  1.0
  C  C244  1  0.06881611  0.43118399  0.24999912  1.0
  C  C245  1  0.01271989  0.48727980  0.25000053  1.0
  C  C246  1  0.43118453  0.06881598  0.75000111  1.0
  C  C247  1  0.48728075  0.01271972  0.75000108  1.0
  C  C248  1  0.24999844  0.43118333  0.75000101  1.0
  C  C249  1  0.24999890  0.48727993  0.75000173  1.0
  C  C250  1  0.75000077  0.06881672  0.24999944  1.0
  C  C251  1  0.75000078  0.01271907  0.25000209  1.0
  C  C252  1  0.43118358  0.25000156  0.06881577  1.0
  C  C253  1  0.48728077  0.25000035  0.01271971  1.0
  C  C254  1  0.06881588  0.75000022  0.43118470  1.0
  C  C255  1  0.01271964  0.74999978  0.48728111  1.0
  C  C256  1  0.43118473  0.74999933  0.25000064  1.0
  C  C257  1  0.48728141  0.74999923  0.25000040  1.0
  C  C258  1  0.06881484  0.25000076  0.75000006  1.0
  C  C259  1  0.01271862  0.25000070  0.75000054  1.0
  C  C260  1  0.25000160  0.06881567  0.43118434  1.0
  C  C261  1  0.25000206  0.01271926  0.48728110  1.0
  C  C262  1  0.74999892  0.43118338  0.06881613  1.0
  C  C263  1  0.74999848  0.48728245  0.01272188  1.0
  N  N264  1  0.24933666  0.72056461  0.66103250  1.0
  N  N265  1  0.24882903  0.70067603  0.62325471  1.0
  N  N266  1  0.72056429  0.24933815  0.86906157  1.0
  N  N267  1  0.70067658  0.24883073  0.92723464  1.0
  N  N268  1  0.86906185  0.66103724  0.72056693  1.0
  N  N269  1  0.92723537  0.62325927  0.70067865  1.0
  N  N270  1  0.66103686  0.86906186  0.24933908  1.0
  N  N271  1  0.62325726  0.92723629  0.24883026  1.0
  N  N272  1  0.72056509  0.66103599  0.24933802  1.0
  N  N273  1  0.70067743  0.62325896  0.24883030  1.0
  N  N274  1  0.24933564  0.86906104  0.72056564  1.0
  N  N275  1  0.24882894  0.92723406  0.70067828  1.0
  N  N276  1  0.66103642  0.72056442  0.86906240  1.0
  N  N277  1  0.62325775  0.70067670  0.92723640  1.0
  N  N278  1  0.86906343  0.24933432  0.66103661  1.0
  N  N279  1  0.92723648  0.24882782  0.62325795  1.0
  N  N280  1  0.66103620  0.24933757  0.72056501  1.0
  N  N281  1  0.62325804  0.24882876  0.70067799  1.0
  N  N282  1  0.86906172  0.72056475  0.24933768  1.0
  N  N283  1  0.92723570  0.70067616  0.24883003  1.0
  N  N284  1  0.72056473  0.86906196  0.66103722  1.0
  N  N285  1  0.70067754  0.92723481  0.62325821  1.0
  N  N286  1  0.24933559  0.66103849  0.86906005  1.0
  N  N287  1  0.24882837  0.62325990  0.92723344  1.0
  N  N288  1  0.25066214  0.77943522  0.63093488  1.0
  N  N289  1  0.25116936  0.79932252  0.57276137  1.0
  N  N290  1  0.77943495  0.25066338  0.83896323  1.0
  N  N291  1  0.79932307  0.25116986  0.87674181  1.0
  N  N292  1  0.63093763  0.83896296  0.25066691  1.0
  N  N293  1  0.57276412  0.87674135  0.25117404  1.0
  N  N294  1  0.83896353  0.63093898  0.77943642  1.0
  N  N295  1  0.87674170  0.57276504  0.79932357  1.0
  N  N296  1  0.77943634  0.83896347  0.63094013  1.0
  N  N297  1  0.79932403  0.87674266  0.57276667  1.0
  N  N298  1  0.25066108  0.63093929  0.83896286  1.0
  N  N299  1  0.25116872  0.57276597  0.87674142  1.0
  N  N300  1  0.83896389  0.77943475  0.25066406  1.0
  N  N301  1  0.87674300  0.79932193  0.25117135  1.0
  N  N302  1  0.63093692  0.25066482  0.77943505  1.0
  N  N303  1  0.57276389  0.25117174  0.79932236  1.0
  N  N304  1  0.83896421  0.25066102  0.63093924  1.0
  N  N305  1  0.87674243  0.25116973  0.57276487  1.0
  N  N306  1  0.63093769  0.77943425  0.83896409  1.0
  N  N307  1  0.57276462  0.79932168  0.87674278  1.0
  N  N308  1  0.77943573  0.63093830  0.25066316  1.0
  N  N309  1  0.79932294  0.57276541  0.25116973  1.0
  N  N310  1  0.25066249  0.83896191  0.77943501  1.0
  N  N311  1  0.25116966  0.87673970  0.79932384  1.0
  N  N312  1  0.75066198  0.27943618  0.33896376  1.0
  N  N313  1  0.75116961  0.29932343  0.37674261  1.0
  N  N314  1  0.27943530  0.75066277  0.13093685  1.0
  N  N315  1  0.29932253  0.75117034  0.07276356  1.0
  N  N316  1  0.13093868  0.33896204  0.27943338  1.0
  N  N317  1  0.07276515  0.37674045  0.29932183  1.0
  N  N318  1  0.33896367  0.13093786  0.75066294  1.0
  N  N319  1  0.37674327  0.07276476  0.75117109  1.0
  N  N320  1  0.27943497  0.33896388  0.75066108  1.0
  N  N321  1  0.29932263  0.37674136  0.75117011  1.0
  N  N322  1  0.75066206  0.13094140  0.27943258  1.0
  N  N323  1  0.75117112  0.07276759  0.29932108  1.0
  N  N324  1  0.33896410  0.27943619  0.13093725  1.0
  N  N325  1  0.37674184  0.29932333  0.07276439  1.0
  N  N326  1  0.13093662  0.75066556  0.33896326  1.0
  N  N327  1  0.07276405  0.75117145  0.37674198  1.0
  N  N328  1  0.33896432  0.75066304  0.27943426  1.0
  N  N329  1  0.37674154  0.75117038  0.29932210  1.0
  N  N330  1  0.13093786  0.27943573  0.75066212  1.0
  N  N331  1  0.07276388  0.29932343  0.75117060  1.0
  N  N332  1  0.27943579  0.13093776  0.33896326  1.0
  N  N333  1  0.29932439  0.07276533  0.37674136  1.0
  N  N334  1  0.75066447  0.33896227  0.13093475  1.0
  N  N335  1  0.75117074  0.37674162  0.07276338  1.0
  N  N336  1  0.74933697  0.22056408  0.36906228  1.0
  N  N337  1  0.74882975  0.20067678  0.42723618  1.0
  N  N338  1  0.22056416  0.74933725  0.16103596  1.0
  N  N339  1  0.20067604  0.74882989  0.12325705  1.0
  N  N340  1  0.36906148  0.16103678  0.74933657  1.0
  N  N341  1  0.42723499  0.12325973  0.74882954  1.0
  N  N342  1  0.16103652  0.36906134  0.22056361  1.0
  N  N343  1  0.12325789  0.42723499  0.20067722  1.0
  N  N344  1  0.22056512  0.16103549  0.36906103  1.0
  N  N345  1  0.20067790  0.12325792  0.42723460  1.0
  N  N346  1  0.74933803  0.36905868  0.16103535  1.0
  N  N347  1  0.74882898  0.42723291  0.12325935  1.0
  N  N348  1  0.16103663  0.22056497  0.74933603  1.0
  N  N349  1  0.12325658  0.20067810  0.74882906  1.0
  N  N350  1  0.36906265  0.74933522  0.22056459  1.0
  N  N351  1  0.42723617  0.74882769  0.20067773  1.0
  N  N352  1  0.16103583  0.74933886  0.36906063  1.0
  N  N353  1  0.12325809  0.74882999  0.42723446  1.0
  N  N354  1  0.36906190  0.22056534  0.16103692  1.0
  N  N355  1  0.42723684  0.20067772  0.12325816  1.0
  N  N356  1  0.22056432  0.36906158  0.74933632  1.0
  N  N357  1  0.20067664  0.42723418  0.74883013  1.0
  N  N358  1  0.74933566  0.16103771  0.22056247  1.0
  N  N359  1  0.74882851  0.12325858  0.20067584  1.0
  N  N360  1  0.24999909  0.74999913  0.40484843  1.0
  N  N361  1  0.74999989  0.24999975  0.09514597  1.0
  N  N362  1  0.09514880  0.40485124  0.75000088  1.0
  N  N363  1  0.40485137  0.09514933  0.25000006  1.0
  N  N364  1  0.74999976  0.40485096  0.24999930  1.0
  N  N365  1  0.25000134  0.09514535  0.75000169  1.0
  N  N366  1  0.40485130  0.74999866  0.09515030  1.0
  N  N367  1  0.09515005  0.24999894  0.40485016  1.0
  N  N368  1  0.40485002  0.25000092  0.74999971  1.0
  N  N369  1  0.09514859  0.75000038  0.25000048  1.0
  N  N370  1  0.75000065  0.09514832  0.40485073  1.0
  N  N371  1  0.25000035  0.40485235  0.09514792  1.0
  N  N372  1  0.75000050  0.24999912  0.59515094  1.0
  N  N373  1  0.24999875  0.75000059  0.90485014  1.0
  N  N374  1  0.90485078  0.59514835  0.24999975  1.0
  N  N375  1  0.59515010  0.90485185  0.74999999  1.0
  N  N376  1  0.24999842  0.59514954  0.75000004  1.0
  N  N377  1  0.75000059  0.90485212  0.25000075  1.0
  N  N378  1  0.59514875  0.25000166  0.90484934  1.0
  N  N379  1  0.90485141  0.75000047  0.59514962  1.0
  N  N380  1  0.59515003  0.74999940  0.25000032  1.0
  N  N381  1  0.90485099  0.25000010  0.74999971  1.0
  N  N382  1  0.25000223  0.90485061  0.59514743  1.0
  N  N383  1  0.74999971  0.59514842  0.90485265  1.0
  O  O384  1  0.24999933  0.74999937  0.74999808  1.0
  O  O385  1  0.74999945  0.25000139  0.74999925  1.0
  O  O386  1  0.74999883  0.75000003  0.75000101  1.0
  O  O387  1  0.75000063  0.75000020  0.25000097  1.0
  O  O388  1  0.74999837  0.25000085  0.24999779  1.0
  O  O389  1  0.25000013  0.75000042  0.24999835  1.0
  O  O390  1  0.25000122  0.24999985  0.24999847  1.0
  O  O391  1  0.24999849  0.24999954  0.74999905  1.0
