# generated using pymatgen
data_Al2H13C26Cl2O10F
_symmetry_space_group_name_H-M   'P 1'
_cell_length_a   6.64000511
_cell_length_b   11.16794158
_cell_length_c   17.74179667
_cell_angle_alpha   83.34661657
_cell_angle_beta   80.82076942
_cell_angle_gamma   72.91263836
_symmetry_Int_Tables_number   1
_chemical_formula_structural   Al2H13C26Cl2O10F
_chemical_formula_sum   'Al2 H13 C26 Cl2 O10 F1'
_cell_volume   1238.14406434
_cell_formula_units_Z   1
loop_
 _symmetry_equiv_pos_site_id
 _symmetry_equiv_pos_as_xyz
  1  'x, y, z'
loop_
 _atom_site_type_symbol
 _atom_site_label
 _atom_site_symmetry_multiplicity
 _atom_site_fract_x
 _atom_site_fract_y
 _atom_site_fract_z
 _atom_site_occupancy
  Al  Al0  1  0.51200705  0.49488507  0.49262491  1.0
  Al  Al1  1  0.01320988  0.49064221  0.49444453  1.0
  H  H2  1  0.26493818  0.41791388  0.58550201  1.0
  H  H3  1  0.72211513  0.63667739  0.43827462  1.0
  H  H4  1  0.68559214  0.40776191  0.27214208  1.0
  H  H5  1  0.77162866  0.40621703  0.13012690  1.0
  H  H6  1  0.10664681  0.57830882  0.11027175  1.0
  H  H7  1  0.80311783  0.60565905  0.87250525  1.0
  H  H8  1  0.40456863  0.42958798  0.72210794  1.0
  H  H9  1  0.31959031  0.42184723  0.86407424  1.0
  H  H10  1  0.69516645  0.11641967  0.42626576  1.0
  H  H11  1  0.24086244  0.09960415  0.62188823  1.0
  H  H12  1  0.40986493  0.11115490  0.53434602  1.0
  H  H13  1  0.52925756  0.87362848  0.53475693  1.0
  H  H14  1  0.35748521  0.86406404  0.62200857  1.0
  C  C15  1  0.86538936  0.26912336  0.49149199  1.0
  C  C16  1  0.70261779  0.50634157  0.63196193  1.0
  C  C17  1  0.15619416  0.72017507  0.48928084  1.0
  C  C18  1  0.31361392  0.48545096  0.35697688  1.0
  C  C19  1  0.35044341  0.48843363  0.27152213  1.0
  C  C20  1  0.55989588  0.44251770  0.23576711  1.0
  C  C21  1  0.60814430  0.44238215  0.15674083  1.0
  C  C22  1  0.44427364  0.49082740  0.11038633  1.0
  C  C23  1  0.23394452  0.53817606  0.14540745  1.0
  C  C24  1  0.18760141  0.53718648  0.22485506  1.0
  C  C25  1  0.48766049  0.49569682  0.02937915  1.0
  C  C26  1  0.52044502  0.50291824  0.95956136  1.0
  C  C27  1  0.55999866  0.51010875  0.87851858  1.0
  C  C28  1  0.71668517  0.56525219  0.83994575  1.0
  C  C29  1  0.76194999  0.56962249  0.76033928  1.0
  C  C30  1  0.65312665  0.51734968  0.71660028  1.0
  C  C31  1  0.49167873  0.46697496  0.75610510  1.0
  C  C32  1  0.44410022  0.46268470  0.83509281  1.0
  C  C33  1  0.94214956  0.13055282  0.48857156  1.0
  C  C34  1  0.08337627  0.85948751  0.48708362  1.0
  C  C35  1  0.12136317  0.05829419  0.52085141  1.0
  C  C36  1  0.90530389  0.93506326  0.45292354  1.0
  C  C37  1  0.18773475  0.92770297  0.52032394  1.0
  C  C38  1  0.83447678  0.06513386  0.45363354  1.0
  C  C39  1  0.29601651  0.06253296  0.56516581  1.0
  C  C40  1  0.37047605  0.91427272  0.56518967  1.0
  Cl  Cl41  1  0.92682048  0.60502548  0.26199460  1.0
  Cl  Cl42  1  0.95047744  0.64576038  0.72008802  1.0
  O  O43  1  0.67499478  0.32383851  0.47947773  1.0
  O  O44  1  0.88354950  0.51448978  0.59952778  1.0
  O  O45  1  0.02292637  0.66285641  0.48039708  1.0
  O  O46  1  0.45749003  0.50663538  0.38875762  1.0
  O  O47  1  0.34884796  0.66896620  0.50057703  1.0
  O  O48  1  0.14526745  0.46196266  0.39146824  1.0
  O  O49  1  0.99734192  0.32214178  0.50749309  1.0
  O  O50  1  0.56070443  0.48448227  0.59905366  1.0
  O  O51  1  0.27500406  0.43897137  0.53075530  1.0
  O  O52  1  0.74988156  0.55040237  0.45978581  1.0
  F  F53  1  0.79485806  0.88028918  0.41552925  1.0
