# generated using pymatgen
data_Al3H34C42O17
_symmetry_space_group_name_H-M   'P 1'
_cell_length_a   12.55602246
_cell_length_b   12.60923459
_cell_length_c   28.48993836
_cell_angle_alpha   89.45557692
_cell_angle_beta   89.61537553
_cell_angle_gamma   60.42799111
_symmetry_Int_Tables_number   1
_chemical_formula_structural   Al3H34C42O17
_chemical_formula_sum   'Al6 H68 C84 O34'
_cell_volume   3922.82604882
_cell_formula_units_Z   2
loop_
 _symmetry_equiv_pos_site_id
 _symmetry_equiv_pos_as_xyz
  1  'x, y, z'
loop_
 _atom_site_type_symbol
 _atom_site_label
 _atom_site_symmetry_multiplicity
 _atom_site_fract_x
 _atom_site_fract_y
 _atom_site_fract_z
 _atom_site_occupancy
  Al  Al0  1  0.40924345  0.40595018  0.50101270  1.0
  Al  Al1  1  0.41760990  0.65701906  0.49963621  1.0
  Al  Al2  1  0.65630762  0.42293768  0.49929174  1.0
  Al  Al3  1  0.93061941  0.92314244  0.99985720  1.0
  Al  Al4  1  0.67680076  0.91874391  0.99994267  1.0
  Al  Al5  1  0.91036651  0.67858523  0.00066864  1.0
  H  H6  1  0.47113537  0.74883560  0.78552729  1.0
  H  H7  1  0.86613990  0.06691024  0.70478112  1.0
  H  H8  1  0.87176753  0.04368653  0.78615773  1.0
  H  H9  1  0.79983837  0.95427055  0.78143955  1.0
  H  H10  1  0.47291296  0.24929630  0.70953290  1.0
  H  H11  1  0.55507500  0.09042875  0.70115286  1.0
  H  H12  1  0.57729448  0.36786651  0.71799607  1.0
  H  H13  1  0.58898793  0.34369806  0.79861749  1.0
  H  H14  1  0.56649573  0.05816488  0.78272876  1.0
  H  H15  1  0.27579631  0.47510552  0.79405134  1.0
  H  H16  1  0.52233588  0.87775828  0.71469630  1.0
  H  H17  1  0.31427372  0.47402642  0.71369710  1.0
  H  H18  1  0.99238905  0.71118224  0.69594862  1.0
  H  H19  1  0.09455472  0.55357667  0.70265615  1.0
  H  H20  1  0.04438542  0.57320592  0.78285781  1.0
  H  H21  1  0.95580756  0.73307491  0.77711265  1.0
  H  H22  1  0.22747336  0.80856381  0.71481909  1.0
  H  H23  1  0.07064955  0.86082468  0.70837201  1.0
  H  H24  1  0.21163332  0.79812554  0.79722915  1.0
  H  H25  1  0.34315978  0.56766110  0.80221093  1.0
  H  H26  1  0.60354109  0.53031167  0.73195736  1.0
  H  H27  1  0.05218581  0.86619899  0.79048724  1.0
  H  H28  1  0.77027412  0.48557202  0.20218928  1.0
  H  H29  1  0.76880143  0.47032494  0.28354956  1.0
  H  H30  1  0.74034889  0.77885994  0.29797639  1.0
  H  H31  1  0.84755799  0.62060205  0.29814956  1.0
  H  H32  1  0.86191768  0.61964020  0.21641961  1.0
  H  H33  1  0.76852511  0.78000173  0.21702621  1.0
  H  H34  1  0.46285516  0.74513319  0.28321189  1.0
  H  H35  1  0.47036522  0.78178922  0.20380089  1.0
  H  H36  1  0.81837419  0.47809419  0.77989852  1.0
  H  H37  1  0.60979063  0.52389439  0.28119550  1.0
  H  H38  1  0.60934982  0.54920594  0.20049141  1.0
  H  H39  1  0.47989809  0.26481137  0.20725097  1.0
  H  H40  1  0.47558911  0.29937580  0.28814764  1.0
  H  H41  1  0.57809283  0.06760930  0.30094981  1.0
  H  H42  1  0.58553946  0.03767864  0.22011452  1.0
  H  H43  1  0.74699111  0.95272393  0.22235623  1.0
  H  H44  1  0.87022559  0.60822680  0.70982607  1.0
  H  H45  1  0.86637079  0.07135501  0.29170997  1.0
  H  H46  1  0.79553823  0.22299212  0.20613666  1.0
  H  H47  1  0.56655671  0.36867156  0.27957565  1.0
  H  H48  1  0.87397280  0.06209789  0.21010049  1.0
  H  H49  1  0.25051640  0.75747414  0.19978944  1.0
  H  H50  1  0.25037198  0.77852022  0.28074566  1.0
  H  H51  1  0.03027478  0.85754187  0.29634865  1.0
  H  H52  1  0.02115833  0.85970541  0.21394084  1.0
  H  H53  1  0.73953746  0.82526895  0.76296209  1.0
  H  H54  1  0.94745490  0.77167779  0.21830932  1.0
  H  H55  1  0.23431202  0.46763549  0.21093507  1.0
  H  H56  1  0.34004394  0.59670855  0.20512495  1.0
  H  H57  1  0.07548209  0.54058994  0.22311735  1.0
  H  H58  1  0.75102428  0.26789599  0.79521016  1.0
  H  H59  1  0.79115368  0.98007669  0.69934923  1.0
  H  H60  1  0.47890806  0.21688683  0.79094364  1.0
  H  H61  1  0.39640913  0.64052840  0.73412577  1.0
  H  H62  1  0.48933834  0.87677638  0.33081553  1.0
  H  H63  1  0.53646319  0.87426985  0.21577965  1.0
  H  H64  1  0.73915180  0.98105650  0.30345260  1.0
  H  H65  1  0.81006036  0.26406665  0.32048223  1.0
  H  H66  1  0.56600425  0.34003582  0.19910507  1.0
  H  H67  1  0.97216878  0.75527032  0.29976648  1.0
  H  H68  1  0.27696757  0.47114817  0.28988300  1.0
  H  H69  1  0.11848980  0.50502568  0.33859809  1.0
  H  H70  1  0.39297631  0.59930892  0.31921300  1.0
  H  H71  1  0.76102337  0.31557167  0.68062719  1.0
  H  H72  1  0.30534564  0.30869266  0.47215617  1.0
  H  H73  1  0.02438437  0.03044034  0.02831866  1.0
  C  C74  1  0.28109733  0.61592807  0.56693016  1.0
  C  C75  1  0.63480248  0.64101481  0.60965139  1.0
  C  C76  1  0.70899176  0.75960201  0.75555611  1.0
  C  C77  1  0.68077830  0.68741971  0.79535645  1.0
  C  C78  1  0.78189774  0.63919442  0.72707352  1.0
  C  C79  1  0.66065050  0.66883535  0.69971757  1.0
  C  C80  1  0.75320238  0.56720899  0.76533023  1.0
  C  C81  1  0.63270456  0.59653712  0.73957524  1.0
  C  C82  1  0.69026947  0.69971330  0.84428599  1.0
  C  C83  1  0.64811759  0.65493449  0.65115794  1.0
  C  C84  1  0.66425979  0.28697266  0.72810744  1.0
  C  C85  1  0.60722247  0.61481886  0.56389458  1.0
  C  C86  1  0.78800119  0.05827159  0.71739040  1.0
  C  C87  1  0.79215824  0.04205246  0.77128196  1.0
  C  C88  1  0.69128030  0.10368674  0.88635335  1.0
  C  C89  1  0.66894282  0.17476003  0.70322586  1.0
  C  C90  1  0.66909481  0.26832817  0.78165892  1.0
  C  C91  1  0.67499009  0.14599201  0.79420343  1.0
  C  C92  1  0.56140230  0.14545315  0.77367598  1.0
  C  C93  1  0.55630720  0.16547206  0.71996642  1.0
  C  C94  1  0.68153698  0.12642603  0.84456839  1.0
  C  C95  1  0.66356944  0.19732456  0.65316437  1.0
  C  C96  1  0.62564055  0.27961121  0.56579445  1.0
  C  C97  1  0.65515906  0.22576713  0.61191146  1.0
  C  C98  1  0.29635527  0.56042050  0.72956428  1.0
  C  C99  1  0.07229161  0.64387698  0.71586924  1.0
  C  C100  1  0.04565370  0.65430154  0.76918200  1.0
  C  C101  1  0.10270474  0.68118033  0.88760915  1.0
  C  C102  1  0.18136081  0.66504885  0.70483971  1.0
  C  C103  1  0.27139804  0.56076241  0.78280325  1.0
  C  C104  1  0.14491060  0.66917919  0.79561219  1.0
  C  C105  1  0.13955890  0.78914233  0.77903551  1.0
  C  C106  1  0.15415758  0.78930295  0.72514051  1.0
  C  C107  1  0.27576384  0.62286347  0.43410913  1.0
  C  C108  1  0.12392063  0.67288662  0.84576752  1.0
  C  C109  1  0.20443300  0.65842156  0.65477740  1.0
  C  C110  1  0.22887684  0.64672589  0.61317026  1.0
  C  C111  1  0.68149591  0.54498923  0.27083805  1.0
  C  C112  1  0.76162998  0.69114560  0.28251246  1.0
  C  C113  1  0.77358198  0.69439167  0.22849631  1.0
  C  C114  1  0.69030463  0.70532493  0.11149550  1.0
  C  C115  1  0.65699065  0.66467440  0.29506490  1.0
  C  C116  1  0.68382634  0.55755159  0.21688383  1.0
  C  C117  1  0.66950836  0.68335615  0.20389602  1.0
  C  C118  1  0.60858305  0.61312039  0.43368087  1.0
  C  C119  1  0.54491646  0.78458722  0.22266350  1.0
  C  C120  1  0.53370825  0.77044070  0.27589477  1.0
  C  C121  1  0.67916433  0.69506835  0.15350303  1.0
  C  C122  1  0.64658554  0.65248132  0.34538219  1.0
  C  C123  1  0.63299544  0.64103876  0.38718740  1.0
  C  C124  1  0.56084452  0.28662410  0.27210304  1.0
  C  C125  1  0.66254085  0.05909233  0.28582079  1.0
  C  C126  1  0.66728834  0.03984294  0.23218209  1.0
  C  C127  1  0.68965282  0.10018879  0.11398971  1.0
  C  C128  1  0.66947315  0.17551695  0.29631416  1.0
  C  C129  1  0.62120265  0.28278142  0.43298027  1.0
  C  C130  1  0.56250764  0.26635708  0.21870259  1.0
  C  C131  1  0.67599231  0.14352826  0.20578865  1.0
  C  C132  1  0.79254499  0.14498364  0.22222350  1.0
  C  C133  1  0.79303014  0.15642049  0.27590248  1.0
  C  C134  1  0.68150171  0.12240039  0.15568236  1.0
  C  C135  1  0.66310563  0.19955196  0.34614949  1.0
  C  C136  1  0.65370331  0.22838232  0.38723539  1.0
  C  C137  1  0.26784104  0.68648170  0.27127563  1.0
  C  C138  1  0.04165501  0.77130851  0.28274061  1.0
  C  C139  1  0.02944326  0.77527837  0.22877554  1.0
  C  C140  1  0.58807365  0.78922877  0.72966402  1.0
  C  C141  1  0.10054181  0.67939440  0.11458179  1.0
  C  C142  1  0.16897041  0.66666667  0.29711108  1.0
  C  C143  1  0.25708197  0.67726595  0.21793399  1.0
  C  C144  1  0.14315340  0.66547166  0.20646642  1.0
  C  C145  1  0.15908181  0.54615370  0.22857584  1.0
  C  C146  1  0.18274567  0.54218000  0.28155277  1.0
  C  C147  1  0.12404840  0.66903882  0.15621641  1.0
  C  C148  1  0.19046904  0.66334404  0.34710763  1.0
  C  C149  1  0.22057260  0.65221014  0.38814623  1.0
  C  C150  1  0.72014555  0.05360085  0.93311597  1.0
  C  C151  1  0.55942928  0.71717608  0.76791094  1.0
  C  C152  1  0.72060278  0.73375487  0.93368260  1.0
  C  C153  1  0.05418672  0.70908763  0.93453614  1.0
  C  C154  1  0.71590277  0.05229571  0.06712775  1.0
  C  C155  1  0.71745606  0.72791116  0.06465672  1.0
  C  C156  1  0.05030305  0.71068696  0.06798599  1.0
  C  C157  1  0.69864667  0.71079758  0.88640046  1.0
  O  O158  1  0.52500096  0.30012664  0.54853505  1.0
  O  O159  1  0.50766599  0.68991340  0.45308495  1.0
  O  O160  1  0.68690912  0.51019627  0.45134334  1.0
  O  O161  1  0.70032233  0.30302591  0.45384468  1.0
  O  O162  1  0.49502832  0.49641566  0.49935300  1.0
  O  O163  1  0.03487672  0.80906355  0.95140802  1.0
  O  O164  1  0.82585655  0.02254996  0.94809548  1.0
  O  O165  1  0.63719744  0.03974391  0.95485722  1.0
  O  O166  1  0.64358863  0.83634337  0.95150239  1.0
  O  O167  1  0.81849221  0.65266704  0.95358579  1.0
  O  O168  1  0.02931577  0.63128771  0.95429188  1.0
  O  O169  1  0.31128481  0.51058206  0.55235121  1.0
  O  O170  1  0.02684167  0.81389123  0.05233735  1.0
  O  O171  1  0.81717486  0.03011716  0.04935930  1.0
  O  O172  1  0.63546197  0.03103259  0.04802593  1.0
  O  O173  1  0.64102651  0.82831521  0.04488459  1.0
  O  O174  1  0.81986163  0.64834445  0.04699822  1.0
  O  O175  1  0.02854090  0.63290757  0.04725871  1.0
  O  O176  1  0.83824877  0.83906621  0.00035981  1.0
  O  O177  1  0.29723469  0.69701809  0.54494187  1.0
  O  O178  1  0.50278317  0.69059771  0.54640794  1.0
  O  O179  1  0.68600210  0.51514248  0.54455956  1.0
  O  O180  1  0.70279531  0.30710381  0.54693111  1.0
  O  O181  1  0.51580187  0.31061310  0.44797784  1.0
  O  O182  1  0.29913618  0.52133667  0.45146756  1.0
  O  O183  1  0.30160833  0.70086707  0.45203366  1.0
  O  O184  1  0.40478153  0.56686130  0.71986435  1.0
  O  O185  1  0.50105926  0.88485768  0.29733401  1.0
  O  O186  1  0.81409469  0.25497624  0.28637771  1.0
  O  O187  1  0.09730698  0.51632899  0.30532805  1.0
  O  O188  1  0.38940877  0.59762693  0.28495865  1.0
  O  O189  1  0.76490592  0.30401951  0.71467338  1.0
  O  O190  1  0.33036570  0.32394776  0.50217085  1.0
  O  O191  1  0.01555045  0.99905656  0.99865781  1.0
