# generated using pymatgen
data_Cu3H16(C12N13)2
_symmetry_space_group_name_H-M   'P 1'
_cell_length_a   12.98752685
_cell_length_b   14.75574711
_cell_length_c   15.60036322
_cell_angle_alpha   89.99989493
_cell_angle_beta   91.00963442
_cell_angle_gamma   89.99959770
_symmetry_Int_Tables_number   1
_chemical_formula_structural   Cu3H16(C12N13)2
_chemical_formula_sum   'Cu6 H32 C48 N52'
_cell_volume   2989.19977524
_cell_formula_units_Z   2
loop_
 _symmetry_equiv_pos_site_id
 _symmetry_equiv_pos_as_xyz
  1  'x, y, z'
loop_
 _atom_site_type_symbol
 _atom_site_label
 _atom_site_symmetry_multiplicity
 _atom_site_fract_x
 _atom_site_fract_y
 _atom_site_fract_z
 _atom_site_occupancy
  Cu  Cu0  1  0.01991319  0.79781344  0.39685836  1.0
  Cu  Cu1  1  0.48007053  0.29782203  0.10314831  1.0
  Cu  Cu2  1  0.98007436  0.20217727  0.60314776  1.0
  Cu  Cu3  1  0.51992318  0.70218019  0.89685020  1.0
  Cu  Cu4  1  0.99999239  0.99999933  0.50000103  1.0
  Cu  Cu5  1  0.49999506  0.50000063  0.99999563  1.0
  H  H6  1  0.28158430  0.65159682  0.64115230  1.0
  H  H7  1  0.41743473  0.87594811  0.84671448  1.0
  H  H8  1  0.24113425  0.01872268  0.12458685  1.0
  H  H9  1  0.41176515  0.61208289  0.75636850  1.0
  H  H10  1  0.28277892  0.92505560  0.73950288  1.0
  H  H11  1  0.25298884  0.19788246  0.34385359  1.0
  H  H12  1  0.37008313  0.29781680  0.26133646  1.0
  H  H13  1  0.35789350  0.12745427  0.04992624  1.0
  H  H14  1  0.21842088  0.15159569  0.85883684  1.0
  H  H15  1  0.08258405  0.37594889  0.65326485  1.0
  H  H16  1  0.25887019  0.51872146  0.37541804  1.0
  H  H17  1  0.08825883  0.11208007  0.74360559  1.0
  H  H18  1  0.21722638  0.42505466  0.76048835  1.0
  H  H19  1  0.24699800  0.69788851  0.15615587  1.0
  H  H20  1  0.12989982  0.79781529  0.23867598  1.0
  H  H21  1  0.14210160  0.62744752  0.45008282  1.0
  H  H22  1  0.71841865  0.34841557  0.35883545  1.0
  H  H23  1  0.58257824  0.12405683  0.15327662  1.0
  H  H24  1  0.75886101  0.98127954  0.87542450  1.0
  H  H25  1  0.58824165  0.38792611  0.24361482  1.0
  H  H26  1  0.71722866  0.07495612  0.26049071  1.0
  H  H27  1  0.74700719  0.80212316  0.65615329  1.0
  H  H28  1  0.62991828  0.70218340  0.73866858  1.0
  H  H29  1  0.64210330  0.87254254  0.95008321  1.0
  H  H30  1  0.78159285  0.84839163  0.14115043  1.0
  H  H31  1  0.91741274  0.62403910  0.34673179  1.0
  H  H32  1  0.74114894  0.48128347  0.62458789  1.0
  H  H33  1  0.91174490  0.88790724  0.25638858  1.0
  H  H34  1  0.78278119  0.57493062  0.23949882  1.0
  H  H35  1  0.75301189  0.30212523  0.84385762  1.0
  H  H36  1  0.87009929  0.20218491  0.76133672  1.0
  H  H37  1  0.85790521  0.37254589  0.54992486  1.0
  C  C38  1  0.19542791  0.81895089  0.61694732  1.0
  C  C39  1  0.27128037  0.79183099  0.68167786  1.0
  C  C40  1  0.30904209  0.70281877  0.68628698  1.0
  C  C41  1  0.38416705  0.82815129  0.80065897  1.0
  C  C42  1  0.16859310  0.04231084  0.28922623  1.0
  C  C43  1  0.23694123  0.10017762  0.24042820  1.0
  C  C44  1  0.26827901  0.07985265  0.15697693  1.0
  C  C45  1  0.38173872  0.68068744  0.74901956  1.0
  C  C46  1  0.31004232  0.85529286  0.74099357  1.0
  C  C47  1  0.27427871  0.18015987  0.27865272  1.0
  C  C48  1  0.34050746  0.23509220  0.23349139  1.0
  C  C49  1  0.33415423  0.13920495  0.11567260  1.0
  C  C50  1  0.30455745  0.31895460  0.88305342  1.0
  C  C51  1  0.22871829  0.29182987  0.81831479  1.0
  C  C52  1  0.19096576  0.20281993  0.81370274  1.0
  C  C53  1  0.11584673  0.32814839  0.69932293  1.0
  C  C54  1  0.33140268  0.54231831  0.21077721  1.0
  C  C55  1  0.26305178  0.60018067  0.25957767  1.0
  C  C56  1  0.23171648  0.57985437  0.34303093  1.0
  C  C57  1  0.11827239  0.18068240  0.75096384  1.0
  C  C58  1  0.18996585  0.35529413  0.75899269  1.0
  C  C59  1  0.22570673  0.68016458  0.22135739  1.0
  C  C60  1  0.15948139  0.73509113  0.26651931  1.0
  C  C61  1  0.16584386  0.63920090  0.38433648  1.0
  C  C62  1  0.80456888  0.18105473  0.38304804  1.0
  C  C63  1  0.72872489  0.20818140  0.31831121  1.0
  C  C64  1  0.69096471  0.29719091  0.31370274  1.0
  C  C65  1  0.61583975  0.17185772  0.19932755  1.0
  C  C66  1  0.83139523  0.95769545  0.71078246  1.0
  C  C67  1  0.76304941  0.89982799  0.75957989  1.0
  C  C68  1  0.73171317  0.92014822  0.84303438  1.0
  C  C69  1  0.61826346  0.31932291  0.25097010  1.0
  C  C70  1  0.68996834  0.14471750  0.25899685  1.0
  C  C71  1  0.72571655  0.81984236  0.72135543  1.0
  C  C72  1  0.65949242  0.76490867  0.76651426  1.0
  C  C73  1  0.66584488  0.86079321  0.88433561  1.0
  C  C74  1  0.69544935  0.68103543  0.11693246  1.0
  C  C75  1  0.77129467  0.70815270  0.18167183  1.0
  C  C76  1  0.80904797  0.79717010  0.18628644  1.0
  C  C77  1  0.88415469  0.67183554  0.30066864  1.0
  C  C78  1  0.66860874  0.45769408  0.78922540  1.0
  C  C79  1  0.73696504  0.39982901  0.74043015  1.0
  C  C80  1  0.76829726  0.42015057  0.65697813  1.0
  C  C81  1  0.88172902  0.81930221  0.24903094  1.0
  C  C82  1  0.81004557  0.64469318  0.24099454  1.0
  C  C83  1  0.77430239  0.31984307  0.77865673  1.0
  C  C84  1  0.84052388  0.26491177  0.73349476  1.0
  C  C85  1  0.83416757  0.36079726  0.61567254  1.0
  N  N86  1  0.09223685  0.90013117  0.54531936  1.0
  N  N87  1  0.09530564  0.81806690  0.50887537  1.0
  N  N88  1  0.15967504  0.76528926  0.55269876  1.0
  N  N89  1  0.15393081  0.90295896  0.61305362  1.0
  N  N90  1  0.41946048  0.74245168  0.80489602  1.0
  N  N91  1  0.08316604  0.93016851  0.33591602  1.0
  N  N92  1  0.07410979  0.00030503  0.38951786  1.0
  N  N93  1  0.12608902  0.07114780  0.36268295  1.0
  N  N94  1  0.14242424  0.95537077  0.27134261  1.0
  N  N95  1  0.90424734  0.87431170  0.44223528  1.0
  N  N96  1  0.82642295  0.83811043  0.46656984  1.0
  N  N97  1  0.37038329  0.21542527  0.15317541  1.0
  N  N98  1  0.74988186  0.80567582  0.48983380  1.0
  N  N99  1  0.40774016  0.40013817  0.95468496  1.0
  N  N100  1  0.40467049  0.31807453  0.99113229  1.0
  N  N101  1  0.34030613  0.26529465  0.94730586  1.0
  N  N102  1  0.34605388  0.40296377  0.88694760  1.0
  N  N103  1  0.08055629  0.24245443  0.69508607  1.0
  N  N104  1  0.41682740  0.43017602  0.16408095  1.0
  N  N105  1  0.42588171  0.50031550  0.11047983  1.0
  N  N106  1  0.37390345  0.57115718  0.13731975  1.0
  N  N107  1  0.35757208  0.45537581  0.22865628  1.0
  N  N108  1  0.59573623  0.37431259  0.05776105  1.0
  N  N109  1  0.67358171  0.33811902  0.03344993  1.0
  N  N110  1  0.12960495  0.71542220  0.34683660  1.0
  N  N111  1  0.75013616  0.30569551  0.01020994  1.0
  N  N112  1  0.90774455  0.09986699  0.45468282  1.0
  N  N113  1  0.90467960  0.18193126  0.49112687  1.0
  N  N114  1  0.84032021  0.23471365  0.44729978  1.0
  N  N115  1  0.84605751  0.09704394  0.38694417  1.0
  N  N116  1  0.58054632  0.25755325  0.19509435  1.0
  N  N117  1  0.91682537  0.06983371  0.66408759  1.0
  N  N118  1  0.92587623  0.99969516  0.61048503  1.0
  N  N119  1  0.87389623  0.92885510  0.63732185  1.0
  N  N120  1  0.85756871  0.04463348  0.72866358  1.0
  N  N121  1  0.09573251  0.12566884  0.55777008  1.0
  N  N122  1  0.17356923  0.16186333  0.53344660  1.0
  N  N123  1  0.62961582  0.78457289  0.84683151  1.0
  N  N124  1  0.25011802  0.19429048  0.51019493  1.0
  N  N125  1  0.59225201  0.59986270  0.04530520  1.0
  N  N126  1  0.59531938  0.68192702  0.00886489  1.0
  N  N127  1  0.65969143  0.73470079  0.05268758  1.0
  N  N128  1  0.65395061  0.59702829  0.11303632  1.0
  N  N129  1  0.91944436  0.75753424  0.30491254  1.0
  N  N130  1  0.58316554  0.56983027  0.83591178  1.0
  N  N131  1  0.57410969  0.49969147  0.88951224  1.0
  N  N132  1  0.62609873  0.42885318  0.86268016  1.0
  N  N133  1  0.64243242  0.54463251  0.77134239  1.0
  N  N134  1  0.40424978  0.62569641  0.94223095  1.0
  N  N135  1  0.32641739  0.66188998  0.96654482  1.0
  N  N136  1  0.87039647  0.28457528  0.65317421  1.0
  N  N137  1  0.24985601  0.69432027  0.98979240  1.0
