# generated using pymatgen
data_ZnH20C25NO4
_symmetry_space_group_name_H-M   'P 1'
_cell_length_a   10.96710424
_cell_length_b   14.75484105
_cell_length_c   16.18750646
_cell_angle_alpha   90.16602171
_cell_angle_beta   90.03906007
_cell_angle_gamma   91.37316999
_symmetry_Int_Tables_number   1
_chemical_formula_structural   ZnH20C25NO4
_chemical_formula_sum   'Zn2 H40 C50 N2 O8'
_cell_volume   2618.66399803
_cell_formula_units_Z   2
loop_
 _symmetry_equiv_pos_site_id
 _symmetry_equiv_pos_as_xyz
  1  'x, y, z'
loop_
 _atom_site_type_symbol
 _atom_site_label
 _atom_site_symmetry_multiplicity
 _atom_site_fract_x
 _atom_site_fract_y
 _atom_site_fract_z
 _atom_site_occupancy
  Zn  Zn0  1  0.50517205  0.59533508  0.50021271  1.0
  Zn  Zn1  1  0.49481833  0.40464850  0.49979128  1.0
  H  H2  1  0.71781311  0.12835249  0.66677792  1.0
  H  H3  1  0.28218827  0.87163729  0.33321803  1.0
  H  H4  1  0.57183367  0.91753209  0.37574218  1.0
  H  H5  1  0.42818046  0.08245712  0.62424635  1.0
  H  H6  1  0.81623535  0.41200873  0.67345306  1.0
  H  H7  1  0.18374609  0.58798764  0.32655093  1.0
  H  H8  1  0.81343266  0.11602433  0.52881884  1.0
  H  H9  1  0.18657797  0.88397503  0.47117773  1.0
  H  H10  1  0.11088743  0.36746239  0.55073296  1.0
  H  H11  1  0.88910312  0.63253408  0.44927289  1.0
  H  H12  1  0.46606522  0.64229871  0.07772415  1.0
  H  H13  1  0.53395381  0.35771499  0.92227674  1.0
  H  H14  1  0.66504507  0.21557381  0.78664951  1.0
  H  H15  1  0.76175839  0.31079635  0.80925262  1.0
  H  H16  1  0.62051888  0.32678953  0.75889483  1.0
  H  H17  1  0.33493714  0.78441373  0.21334460  1.0
  H  H18  1  0.37946522  0.67320211  0.24110485  1.0
  H  H19  1  0.23822744  0.68918921  0.19074581  1.0
  H  H20  1  0.95986966  0.31093786  0.41261949  1.0
  H  H21  1  0.99573103  0.19711071  0.43510185  1.0
  H  H22  1  0.85171849  0.22262069  0.39251112  1.0
  H  H23  1  0.04023928  0.68904098  0.58741655  1.0
  H  H24  1  0.14821441  0.77750522  0.60746389  1.0
  H  H25  1  0.00413807  0.80280913  0.56486575  1.0
  H  H26  1  0.45684076  0.72736786  0.95302152  1.0
  H  H27  1  0.54417239  0.68454965  0.86900271  1.0
  H  H28  1  0.38507672  0.66552407  0.87075897  1.0
  H  H29  1  0.54319198  0.27264869  0.04697380  1.0
  H  H30  1  0.61494779  0.33449102  0.12923388  1.0
  H  H31  1  0.45585745  0.31545399  0.13099570  1.0
  H  H32  1  0.43109026  0.07580418  0.27777907  1.0
  H  H33  1  0.42761734  0.18037444  0.33298945  1.0
  H  H34  1  0.52424802  0.16998221  0.24613395  1.0
  H  H35  1  0.64617488  0.16125432  0.37652162  1.0
  H  H36  1  0.65283098  0.05893798  0.31989259  1.0
  H  H37  1  0.57237667  0.81961383  0.66697994  1.0
  H  H38  1  0.56893094  0.92417016  0.72219648  1.0
  H  H39  1  0.47576873  0.82999954  0.75384532  1.0
  H  H40  1  0.34719064  0.94106556  0.68009841  1.0
  H  H41  1  0.35381757  0.83874891  0.62347310  1.0
  C  C42  1  0.49210315  0.49418761  0.33822208  1.0
  C  C43  1  0.50790256  0.50578257  0.66177943  1.0
  C  C44  1  0.12784271  0.50089652  0.49986709  1.0
  C  C45  1  0.87214153  0.49910464  0.50014184  1.0
  C  C46  1  0.06670234  0.57758913  0.47073245  1.0
  C  C47  1  0.93327645  0.42241334  0.52927834  1.0
  C  C48  1  0.48382801  0.58334294  0.95675292  1.0
  C  C49  1  0.51618740  0.41667208  0.04324859  1.0
  C  C50  1  0.50343605  0.50104501  0.91359281  1.0
  C  C51  1  0.49658025  0.49896799  0.08641117  1.0
  C  C52  1  0.51914388  0.41970154  0.95741187  1.0
  C  C53  1  0.48087149  0.58031077  0.04259026  1.0
  C  C54  1  0.50659980  0.50080164  0.82631209  1.0
  C  C55  1  0.49341640  0.49920391  0.17369189  1.0
  C  C56  1  0.49207778  0.49644947  0.24894572  1.0
  C  C57  1  0.50794800  0.50352160  0.75105639  1.0
  C  C58  1  0.54074461  0.95506507  0.42960439  1.0
  C  C59  1  0.45927782  0.04493101  0.57038476  1.0
  C  C60  1  0.49587611  0.90691433  0.49839192  1.0
  C  C61  1  0.50413634  0.09308570  0.50159538  1.0
  C  C62  1  0.45369978  0.95053974  0.57049658  1.0
  C  C63  1  0.54630985  0.04945484  0.42948825  1.0
  C  C64  1  0.73569752  0.50246584  0.49642302  1.0
  C  C65  1  0.26428772  0.49754210  0.50358345  1.0
  C  C66  1  0.49592194  0.81088202  0.49565391  1.0
  C  C67  1  0.50407771  0.18911718  0.50432537  1.0
  C  C68  1  0.75903264  0.27151329  0.68026984  1.0
  C  C69  1  0.24094962  0.72847832  0.31972427  1.0
  C  C70  1  0.81537035  0.34635835  0.64200336  1.0
  C  C71  1  0.18460836  0.65363934  0.35799570  1.0
  C  C72  1  0.87013335  0.34039125  0.56401902  1.0
  C  C73  1  0.12984446  0.65960845  0.43597633  1.0
  C  C74  1  0.86950154  0.25668583  0.52171672  1.0
  C  C75  1  0.13049737  0.74332225  0.47828727  1.0
  C  C76  1  0.81407110  0.18159319  0.56055160  1.0
  C  C77  1  0.18593406  0.81840545  0.43944682  1.0
  C  C78  1  0.75998229  0.18840025  0.63825645  1.0
  C  C79  1  0.24002093  0.81158956  0.36174445  1.0
  C  C80  1  0.06074211  0.42533403  0.52819493  1.0
  C  C81  1  0.93924119  0.57466509  0.47181401  1.0
  C  C82  1  0.69842452  0.28137582  0.76314340  1.0
  C  C83  1  0.30155500  0.71861442  0.23685689  1.0
  C  C84  1  0.92230579  0.24666717  0.43629442  1.0
  C  C85  1  0.07766574  0.75333992  0.56370279  1.0
  C  C86  1  0.46660655  0.67010791  0.91037491  1.0
  C  C87  1  0.53341704  0.32990582  0.08961980  1.0
  C  C88  1  0.59148185  0.10199078  0.35558921  1.0
  C  C89  1  0.48713674  0.13366801  0.29998618  1.0
  C  C90  1  0.40852598  0.89800581  0.64439316  1.0
  C  C91  1  0.51287904  0.86630900  0.69999555  1.0
  N  N92  1  0.50034247  0.26757363  0.50549130  1.0
  N  N93  1  0.49965354  0.73242554  0.49449292  1.0
  O  O94  1  0.49707297  0.57109536  0.37441243  1.0
  O  O95  1  0.50291986  0.42886521  0.62559341  1.0
  O  O96  1  0.48698861  0.41619878  0.37149298  1.0
  O  O97  1  0.51301784  0.58375853  0.62850853  1.0
  O  O98  1  0.68902904  0.58071190  0.49935207  1.0
  O  O99  1  0.31096250  0.41929000  0.50065377  1.0
  O  O100  1  0.67748912  0.42727949  0.48969512  1.0
  O  O101  1  0.32249236  0.57271960  0.51031259  1.0
