# generated using pymatgen
data_Zn4H34C32N4O13
_symmetry_space_group_name_H-M   'P 1'
_cell_length_a   17.77800094
_cell_length_b   18.59746842
_cell_length_c   19.79751417
_cell_angle_alpha   117.65989314
_cell_angle_beta   115.35152469
_cell_angle_gamma   90.03004976
_symmetry_Int_Tables_number   1
_chemical_formula_structural   Zn4H34C32N4O13
_chemical_formula_sum   'Zn8 H68 C64 N8 O26'
_cell_volume   5074.22580079
_cell_formula_units_Z   2
loop_
 _symmetry_equiv_pos_site_id
 _symmetry_equiv_pos_as_xyz
  1  'x, y, z'
loop_
 _atom_site_type_symbol
 _atom_site_label
 _atom_site_symmetry_multiplicity
 _atom_site_fract_x
 _atom_site_fract_y
 _atom_site_fract_z
 _atom_site_occupancy
  Zn  Zn0  1  0.12653665  0.53410187  0.07458204  1.0
  Zn  Zn1  1  0.96040718  0.38123300  0.93023606  1.0
  Zn  Zn2  1  0.96915802  0.55361386  0.93643394  1.0
  Zn  Zn3  1  0.95236653  0.54362817  0.08828787  1.0
  Zn  Zn4  1  0.37806286  0.96678410  0.93807478  1.0
  Zn  Zn5  1  0.54025463  0.95515567  0.08108236  1.0
  Zn  Zn6  1  0.53489078  0.12564282  0.08506433  1.0
  Zn  Zn7  1  0.55509033  0.96605108  0.93027439  1.0
  H  H8  1  0.22096913  0.85665464  0.69236523  1.0
  H  H9  1  0.29134009  0.67331900  0.32213707  1.0
  H  H10  1  0.66849152  0.04041195  0.32927614  1.0
  H  H11  1  0.85532202  0.46699279  0.68491876  1.0
  H  H12  1  0.21198200  0.79872461  0.11501347  1.0
  H  H13  1  0.12918612  0.78350246  0.01549572  1.0
  H  H14  1  0.22080982  0.87954792  0.02161212  1.0
  H  H15  1  0.30381243  0.89226731  0.11978147  1.0
  H  H16  1  0.20241663  0.76626416  0.87726902  1.0
  H  H17  1  0.27409568  0.70069026  0.87237340  1.0
  H  H18  1  0.11325687  0.66890213  0.87247394  1.0
  H  H19  1  0.18713656  0.60549342  0.87065700  1.0
  H  H20  1  0.31735283  0.70649696  0.11311424  1.0
  H  H21  1  0.30656586  0.62633120  0.01383620  1.0
  H  H22  1  0.39520890  0.71952041  0.01396892  1.0
  H  H23  1  0.40809358  0.79886879  0.11453318  1.0
  H  H24  1  0.90305892  0.30602060  0.12094089  1.0
  H  H25  1  0.88696380  0.22768515  0.01747598  1.0
  H  H26  1  0.79732443  0.13415125  0.01591489  1.0
  H  H27  1  0.81319399  0.21336499  0.11900879  1.0
  H  H28  1  0.67683312  0.11805641  0.87903526  1.0
  H  H29  1  0.60550223  0.18392956  0.88360082  1.0
  H  H30  1  0.76528904  0.21292422  0.88069057  1.0
  H  H31  1  0.69452815  0.27932299  0.88748441  1.0
  H  H32  1  0.80342143  0.40310409  0.13155882  1.0
  H  H33  1  0.71883301  0.39358543  0.03685102  1.0
  H  H34  1  0.62775816  0.29903562  0.03272422  1.0
  H  H35  1  0.71198981  0.30962760  0.12810512  1.0
  H  H36  1  0.17063925  0.27731379  0.07997049  1.0
  H  H37  1  0.26013626  0.36122631  0.13205723  1.0
  H  H38  1  0.35040153  0.27036728  0.13774905  1.0
  H  H39  1  0.26020805  0.18654716  0.08427577  1.0
  H  H40  1  0.39906365  0.30313116  0.05075740  1.0
  H  H41  1  0.34510567  0.24198258  0.93602182  1.0
  H  H42  1  0.30730046  0.39301389  0.04315942  1.0
  H  H43  1  0.25269377  0.33000817  0.92849890  1.0
  H  H44  1  0.09027440  0.18768083  0.91402047  1.0
  H  H45  1  0.12376752  0.20996432  0.85266427  1.0
  H  H46  1  0.21535499  0.12013170  0.85805397  1.0
  H  H47  1  0.18151408  0.09749812  0.91898907  1.0
  H  H48  1  0.91206616  0.81348971  0.09477858  1.0
  H  H49  1  0.87273227  0.78975012  0.15239116  1.0
  H  H50  1  0.78639740  0.88401111  0.14717023  1.0
  H  H51  1  0.82368479  0.90462569  0.08659225  1.0
  H  H52  1  0.65712499  0.76443691  0.06975187  1.0
  H  H53  1  0.60118330  0.70324712  0.95507809  1.0
  H  H54  1  0.74462663  0.67033082  0.07266441  1.0
  H  H55  1  0.68925261  0.61088103  0.95791793  1.0
  H  H56  1  0.83308677  0.72857499  0.92870009  1.0
  H  H57  1  0.74356621  0.64446007  0.87241504  1.0
  H  H58  1  0.65222803  0.73447539  0.86761789  1.0
  H  H59  1  0.74166045  0.81791332  0.92072567  1.0
  H  H60  1  0.44768819  0.81487170  0.51670423  1.0
  H  H61  1  0.42446446  0.72634762  0.42559972  1.0
  H  H62  1  0.48678039  0.83579348  0.70840242  1.0
  H  H63  1  0.46761446  0.77366573  0.59924200  1.0
  H  H64  1  0.06563263  0.80557135  0.49634243  1.0
  H  H65  1  0.08830854  0.80995662  0.58862394  1.0
  H  H66  1  0.02684113  0.63185767  0.30789100  1.0
  H  H67  1  0.04641782  0.68136808  0.41771558  1.0
  H  H68  1  0.80398988  0.41774454  0.48395197  1.0
  H  H69  1  0.80678200  0.48852761  0.57574494  1.0
  H  H70  1  0.62454533  0.27346761  0.30209809  1.0
  H  H71  1  0.67651184  0.36268661  0.41007056  1.0
  H  H72  1  0.82255450  0.08732124  0.52531196  1.0
  H  H73  1  0.73363499  0.01865001  0.43740599  1.0
  H  H74  1  0.83288703  0.23657561  0.71522002  1.0
  H  H75  1  0.77467637  0.14733848  0.60768603  1.0
  C  C76  1  0.13773184  0.35890677  0.99251996  1.0
  C  C77  1  0.87858030  0.38974817  0.77000898  1.0
  C  C78  1  0.14552493  0.63358690  0.99887376  1.0
  C  C79  1  0.86482162  0.64594149  0.01712198  1.0
  C  C80  1  0.12561782  0.62010206  0.24448813  1.0
  C  C81  1  0.86102039  0.36816663  0.01309327  1.0
  C  C82  1  0.36341298  0.86048016  0.00525768  1.0
  C  C83  1  0.60856855  0.11906373  0.24622059  1.0
  C  C84  1  0.35770013  0.14061354  0.00400008  1.0
  C  C85  1  0.64254553  0.14236394  0.00890163  1.0
  C  C86  1  0.38606266  0.88116483  0.77067133  1.0
  C  C87  1  0.64887361  0.86879587  0.00860237  1.0
  C  C88  1  0.36290704  0.80379200  0.61478132  1.0
  C  C89  1  0.24233011  0.82773890  0.64390462  1.0
  C  C90  1  0.18285442  0.78553126  0.55693202  1.0
  C  C91  1  0.21099386  0.74802221  0.49282013  1.0
  C  C92  1  0.15020517  0.69571957  0.40052927  1.0
  C  C93  1  0.27020365  0.69229140  0.37077584  1.0
  C  C94  1  0.32999338  0.73615386  0.45773591  1.0
  C  C95  1  0.30214659  0.76299164  0.52224112  1.0
  C  C96  1  0.33151762  0.83630101  0.67514753  1.0
  C  C97  1  0.18106145  0.66930135  0.33976073  1.0
  C  C98  1  0.69041876  0.24854491  0.39822238  1.0
  C  C99  1  0.68785694  0.10764264  0.37561091  1.0
  C  C100  1  0.73592973  0.13728856  0.46318355  1.0
  C  C101  1  0.76182903  0.22612936  0.52424611  1.0
  C  C102  1  0.80232508  0.26006709  0.61752204  1.0
  C  C103  1  0.82606706  0.40013808  0.63910081  1.0
  C  C104  1  0.78326613  0.37041765  0.55121510  1.0
  C  C105  1  0.74528810  0.28201352  0.49077394  1.0
  C  C106  1  0.66189415  0.16042990  0.34125717  1.0
  C  C107  1  0.83435253  0.34802256  0.67441788  1.0
  C  C108  1  0.19663300  0.78245169  0.04877780  1.0
  C  C109  1  0.25716235  0.84531213  0.05195066  1.0
  C  C110  1  0.30633855  0.79794745  0.00347688  1.0
  C  C111  1  0.23984768  0.73298541  0.90826460  1.0
  C  C112  1  0.18114011  0.66952124  0.90616136  1.0
  C  C113  1  0.20601946  0.69243741  0.99987222  1.0
  C  C114  1  0.30008312  0.69063478  0.04668710  1.0
  C  C115  1  0.35940868  0.75229961  0.04763955  1.0
  C  C116  1  0.85340726  0.26092561  0.05369193  1.0
  C  C117  1  0.79365088  0.19888515  0.05239564  1.0
  C  C118  1  0.69945152  0.20446909  0.00954407  1.0
  C  C119  1  0.67309312  0.18255851  0.91589613  1.0
  C  C120  1  0.73219837  0.24539265  0.91765067  1.0
  C  C121  1  0.80036973  0.30954714  0.01248976  1.0
  C  C122  1  0.75492666  0.35718303  0.06429068  1.0
  C  C123  1  0.69472347  0.29491702  0.06202752  1.0
  C  C124  1  0.22674630  0.29704221  0.07667759  1.0
  C  C125  1  0.28663706  0.23691886  0.08008345  1.0
  C  C126  1  0.29697816  0.19766587  0.99734303  1.0
  C  C127  1  0.33527549  0.26922602  0.99335005  1.0
  C  C128  1  0.27442405  0.32839661  0.98873845  1.0
  C  C129  1  0.19517204  0.29813494  0.99117183  1.0
  C  C130  1  0.14745616  0.20882679  0.91327825  1.0
  C  C131  1  0.20794568  0.14926324  0.91677786  1.0
  C  C132  1  0.85308023  0.79269416  0.09316371  1.0
  C  C133  1  0.79476620  0.85417126  0.08910113  1.0
  C  C134  1  0.70520566  0.80696952  0.00735077  1.0
  C  C135  1  0.66573347  0.73623419  0.01186910  1.0
  C  C136  1  0.72416520  0.67455928  0.01411522  1.0
  C  C137  1  0.80425658  0.70371549  0.01258445  1.0
  C  C138  1  0.77580126  0.70804768  0.92957577  1.0
  C  C139  1  0.71585931  0.76792066  0.92565196  1.0
  N  N140  1  0.41880284  0.75227317  0.48071429  1.0
  N  N141  1  0.44864266  0.81033595  0.64311290  1.0
  N  N142  1  0.09401903  0.77966900  0.53360627  1.0
  N  N143  1  0.06501160  0.67214063  0.37293780  1.0
  N  N144  1  0.77682207  0.42947125  0.52302928  1.0
  N  N145  1  0.66593385  0.30094108  0.36701357  1.0
  N  N146  1  0.75766824  0.07776984  0.49053056  1.0
  N  N147  1  0.80851413  0.20828615  0.64960473  1.0
  O  O148  1  0.00080054  0.50280091  0.00866737  1.0
  O  O149  1  0.17476497  0.43604605  0.05023998  1.0
  O  O150  1  0.88875532  0.34525116  0.80638825  1.0
  O  O151  1  0.06521866  0.62191680  0.95149714  1.0
  O  O152  1  0.05773094  0.32874641  0.93798632  1.0
  O  O153  1  0.17891504  0.60178013  0.04629231  1.0
  O  O154  1  0.90543367  0.46973288  0.81280222  1.0
  O  O155  1  0.89860297  0.62925185  0.96810116  1.0
  O  O156  1  0.04306857  0.59753265  0.21176922  1.0
  O  O157  1  0.87872042  0.62010373  0.07007194  1.0
  O  O158  1  0.16346592  0.60276127  0.19841217  1.0
  O  O159  1  0.89238878  0.33272864  0.96199265  1.0
  O  O160  1  0.87661443  0.44681208  0.06421238  1.0
  O  O161  1  0.50351722  0.00415217  0.00716352  1.0
  O  O162  1  0.32572190  0.89829393  0.96529775  1.0
  O  O163  1  0.58477518  0.03879305  0.20348007  1.0
  O  O164  1  0.43686671  0.17637575  0.06027064  1.0
  O  O165  1  0.44433521  0.87086267  0.04664597  1.0
  O  O166  1  0.32514712  0.06184692  0.95409332  1.0
  O  O167  1  0.58855319  0.16399851  0.20998327  1.0
  O  O168  1  0.61671521  0.17297944  0.06508416  1.0
  O  O169  1  0.46897905  0.89805604  0.80470126  1.0
  O  O170  1  0.62653108  0.06466095  0.95325353  1.0
  O  O171  1  0.34659469  0.90176902  0.81536681  1.0
  O  O172  1  0.62915271  0.89649718  0.06953651  1.0
  O  O173  1  0.62647158  0.88895834  0.95059563  1.0
