# generated using pymatgen
data_AlH4C10SO6F
_symmetry_space_group_name_H-M   'P 1'
_cell_length_a   6.59185589
_cell_length_b   11.00407318
_cell_length_c   12.41463162
_cell_angle_alpha   96.72315116
_cell_angle_beta   101.00006677
_cell_angle_gamma   105.37902781
_symmetry_Int_Tables_number   1
_chemical_formula_structural   AlH4C10SO6F
_chemical_formula_sum   'Al2 H8 C20 S2 O12 F2'
_cell_volume   838.84343163
_cell_formula_units_Z   2
loop_
 _symmetry_equiv_pos_site_id
 _symmetry_equiv_pos_as_xyz
  1  'x, y, z'
loop_
 _atom_site_type_symbol
 _atom_site_label
 _atom_site_symmetry_multiplicity
 _atom_site_fract_x
 _atom_site_fract_y
 _atom_site_fract_z
 _atom_site_occupancy
  Al  Al0  1  0.00294765  0.50274263  0.50192515  1.0
  Al  Al1  1  0.50567989  0.50663025  0.50466800  1.0
  H  H2  1  0.34097510  0.61354701  0.62998199  1.0
  H  H3  1  0.65243252  0.34132793  0.44775764  1.0
  H  H4  1  0.51886874  0.75446391  0.35604188  1.0
  H  H5  1  0.29203043  0.86167130  0.24481508  1.0
  H  H6  1  0.79418024  0.22079523  0.35031805  1.0
  H  H7  1  0.43306272  0.09544942  0.24011891  1.0
  H  H8  1  0.41969912  0.58043845  0.89278557  1.0
  H  H9  1  0.59705529  0.42709710  0.11501522  1.0
  C  C10  1  0.85986540  0.72487485  0.48643372  1.0
  C  C11  1  0.83523126  0.52959334  0.70294751  1.0
  C  C12  1  0.14494865  0.27782437  0.50664268  1.0
  C  C13  1  0.17960560  0.48245186  0.30544021  1.0
  C  C14  1  0.11361132  0.54868722  0.88440649  1.0
  C  C15  1  0.90309311  0.46026905  0.12318793  1.0
  C  C16  1  0.90312099  0.52406389  0.82089818  1.0
  C  C17  1  0.11360742  0.48585210  0.18708078  1.0
  C  C18  1  0.90446400  0.48364195  0.01292498  1.0
  C  C19  1  0.11275890  0.52585516  0.99487676  1.0
  C  C20  1  0.92673850  0.86552794  0.48391823  1.0
  C  C21  1  0.78820457  0.92661239  0.42217545  1.0
  C  C22  1  0.12999606  0.93827332  0.54424567  1.0
  C  C23  1  0.57923274  0.85663737  0.35631059  1.0
  C  C24  1  0.45264971  0.91695179  0.29399074  1.0
  C  C25  1  0.07181645  0.13485176  0.49281238  1.0
  C  C26  1  0.20105379  0.07203403  0.54952488  1.0
  C  C27  1  0.86416891  0.06220981  0.42431079  1.0
  C  C28  1  0.73287140  0.11995680  0.35539288  1.0
  C  C29  1  0.53105893  0.04900149  0.29222183  1.0
  S  S30  1  0.70684178  0.46991127  0.89516216  1.0
  S  S31  1  0.31038370  0.53998735  0.11293323  1.0
  O  O32  1  0.98760269  0.66343984  0.46208451  1.0
  O  O33  1  0.63299429  0.50683271  0.66114814  1.0
  O  O34  1  0.32956369  0.32991746  0.48904333  1.0
  O  O35  1  0.02794285  0.44926840  0.35579379  1.0
  O  O36  1  0.01293011  0.33525063  0.53317914  1.0
  O  O37  1  0.38172530  0.51286002  0.35026130  1.0
  O  O38  1  0.68383074  0.67842972  0.51487660  1.0
  O  O39  1  0.98573644  0.55682258  0.65086221  1.0
  O  O40  1  0.30058898  0.57022527  0.55292491  1.0
  O  O41  1  0.70441508  0.43411459  0.45778630  1.0
  O  O42  1  0.29118947  0.59021575  0.84415027  1.0
  O  O43  1  0.72617920  0.41758416  0.16323511  1.0
  F  F44  1  0.39677991  0.13681709  0.61678198  1.0
  F  F45  1  0.26505533  0.88582501  0.60589961  1.0
