# generated using pymatgen
data_Zn4H8C40Cl12O13
_symmetry_space_group_name_H-M   'P 1'
_cell_length_a   23.87800099
_cell_length_b   23.87807768
_cell_length_c   23.87635789
_cell_angle_alpha   66.89122246
_cell_angle_beta   72.31392186
_cell_angle_gamma   107.68355285
_symmetry_Int_Tables_number   1
_chemical_formula_structural   Zn4H8C40Cl12O13
_chemical_formula_sum   'Zn8 H16 C80 Cl24 O26'
_cell_volume   10447.38344556
_cell_formula_units_Z   2
loop_
 _symmetry_equiv_pos_site_id
 _symmetry_equiv_pos_as_xyz
  1  'x, y, z'
loop_
 _atom_site_type_symbol
 _atom_site_label
 _atom_site_symmetry_multiplicity
 _atom_site_fract_x
 _atom_site_fract_y
 _atom_site_fract_z
 _atom_site_occupancy
  Zn  Zn0  1  0.05741376  0.09971978  0.45768055  1.0
  Zn  Zn1  1  0.05741013  0.95768879  0.48489593  1.0
  Zn  Zn2  1  0.94258186  0.95767629  0.59973313  1.0
  Zn  Zn3  1  0.94260172  0.98491198  0.45767582  1.0
  Zn  Zn4  1  0.94258756  0.40027824  0.04232065  1.0
  Zn  Zn5  1  0.05742156  0.54232434  0.90026430  1.0
  Zn  Zn6  1  0.94258907  0.54230875  0.01509980  1.0
  Zn  Zn7  1  0.05739664  0.51508997  0.04232588  1.0
  H  H8  1  0.92366935  0.27163900  0.96394670  1.0
  H  H9  1  0.07632599  0.46395114  0.77160710  1.0
  H  H10  1  0.92367039  0.03604948  0.72839205  1.0
  H  H11  1  0.07627082  0.22837398  0.53603865  1.0
  H  H12  1  0.07634164  0.61242117  0.15200932  1.0
  H  H13  1  0.92368284  0.65207283  0.11235485  1.0
  H  H14  1  0.07627372  0.84789533  0.38767324  1.0
  H  H15  1  0.92367005  0.88761822  0.34795264  1.0
  H  H16  1  0.73557397  0.27163180  0.15207391  1.0
  H  H17  1  0.73556930  0.46395210  0.11235880  1.0
  H  H18  1  0.26443254  0.03604546  0.38764743  1.0
  H  H19  1  0.26443042  0.22835339  0.34799799  1.0
  H  H20  1  0.26443737  0.65210414  0.77162334  1.0
  H  H21  1  0.26442338  0.61236038  0.96396957  1.0
  H  H22  1  0.73557964  0.88764781  0.53602659  1.0
  H  H23  1  0.73556157  0.84796902  0.72836312  1.0
  C  C24  1  0.18214721  0.09106227  0.40893919  1.0
  C  C25  1  0.99999589  0.86310592  0.63689461  1.0
  C  C26  1  0.99998773  0.09106866  0.59107300  1.0
  C  C27  1  0.81785541  0.90894242  0.59105578  1.0
  C  C28  1  0.00001071  0.13689746  0.36310114  1.0
  C  C29  1  0.99999220  0.90891600  0.40893527  1.0
  C  C30  1  0.99999792  0.40893481  0.90892347  1.0
  C  C31  1  0.00000186  0.63689187  0.86310460  1.0
  C  C32  1  0.81785377  0.40893063  0.09108086  1.0
  C  C33  1  0.99999959  0.59108441  0.09106231  1.0
  C  C34  1  0.99999385  0.36310554  0.13689995  1.0
  C  C35  1  0.18214579  0.59107981  0.90894083  1.0
  C  C36  1  0.00000392  0.19483158  0.30517015  1.0
  C  C37  1  0.99999981  0.30517246  0.19482785  1.0
  C  C38  1  0.95703322  0.18008170  0.27695129  1.0
  C  C39  1  0.04297046  0.31992129  0.22304713  1.0
  C  C40  1  0.95703220  0.23398208  0.22304947  1.0
  C  C41  1  0.04297212  0.26602040  0.27694938  1.0
  C  C42  1  0.99999617  0.80517051  0.69483039  1.0
  C  C43  1  0.00000532  0.69482911  0.80516550  1.0
  C  C44  1  0.95702949  0.77694413  0.76602853  1.0
  C  C45  1  0.04297195  0.72305445  0.73396862  1.0
  C  C46  1  0.95703315  0.72304376  0.81992704  1.0
  C  C47  1  0.04296810  0.77695534  0.68006954  1.0
  C  C48  1  0.99999762  0.37144165  0.87142450  1.0
  C  C49  1  0.95691032  0.29973981  0.90825495  1.0
  C  C50  1  0.95702720  0.26503361  0.87326543  1.0
  C  C51  1  0.99999159  0.30057085  0.80055896  1.0
  C  C52  1  0.04296364  0.37327281  0.76501352  1.0
  C  C53  1  0.04308347  0.40826282  0.79971603  1.0
  C  C54  1  0.99998641  0.26532165  0.76530688  1.0
  C  C55  1  0.99998188  0.23469268  0.73467716  1.0
  C  C56  1  0.99997589  0.19943986  0.69943220  1.0
  C  C57  1  0.95702133  0.12673350  0.73498098  1.0
  C  C58  1  0.95689984  0.09174089  0.70027958  1.0
  C  C59  1  0.99997125  0.12856543  0.62856893  1.0
  C  C60  1  0.04304393  0.20027320  0.59173198  1.0
  C  C61  1  0.04292924  0.23497939  0.62671917  1.0
  C  C62  1  0.00001040  0.62859731  0.12853859  1.0
  C  C63  1  0.04309932  0.63486490  0.15715065  1.0
  C  C64  1  0.04297741  0.66973304  0.19197612  1.0
  C  C65  1  0.00000572  0.69945926  0.19941127  1.0
  C  C66  1  0.95703802  0.69203065  0.16967630  1.0
  C  C67  1  0.95692322  0.65721194  0.13480216  1.0
  C  C68  1  0.99999633  0.73469833  0.23467239  1.0
  C  C69  1  0.99998623  0.76530909  0.26531874  1.0
  C  C70  1  0.99997609  0.80054425  0.30058351  1.0
  C  C71  1  0.04292976  0.80795311  0.33033512  1.0
  C  C72  1  0.04304555  0.84276922  0.36521249  1.0
  C  C73  1  0.99997444  0.87140517  0.37145694  1.0
  C  C74  1  0.95690075  0.86515992  0.34282560  1.0
  C  C75  1  0.95702043  0.83029075  0.30800079  1.0
  C  C76  1  0.74286323  0.37143728  0.12857304  1.0
  C  C77  1  0.70798601  0.29973275  0.15720078  1.0
  C  C78  1  0.63829284  0.26502839  0.19202331  1.0
  C  C79  1  0.60112870  0.30056652  0.19944427  1.0
  C  C80  1  0.63829133  0.37327191  0.16969224  1.0
  C  C81  1  0.70798513  0.40826218  0.13482012  1.0
  C  C82  1  0.53062941  0.26531034  0.23470467  1.0
  C  C83  1  0.46937265  0.23467169  0.26534531  1.0
  C  C84  1  0.39887314  0.19942071  0.30060246  1.0
  C  C85  1  0.36171093  0.12671996  0.33033243  1.0
  C  C86  1  0.29201674  0.09173073  0.36520468  1.0
  C  C87  1  0.25713714  0.12855150  0.37146892  1.0
  C  C88  1  0.29201575  0.20025242  0.34285935  1.0
  C  C89  1  0.36170936  0.23495679  0.30803710  1.0
  C  C90  1  0.25713759  0.62858720  0.87144274  1.0
  C  C91  1  0.29202018  0.65722667  0.79972938  1.0
  C  C92  1  0.36171391  0.69204876  0.76502489  1.0
  C  C93  1  0.39887280  0.69945848  0.80057026  1.0
  C  C94  1  0.36170716  0.66970198  0.87328251  1.0
  C  C95  1  0.29201080  0.63482838  0.90827487  1.0
  C  C96  1  0.46937275  0.73470946  0.76531213  1.0
  C  C97  1  0.53063080  0.76534238  0.73466666  1.0
  C  C98  1  0.60112725  0.80058869  0.69941688  1.0
  C  C99  1  0.63829786  0.83032752  0.62670674  1.0
  C  C100  1  0.70799185  0.86519697  0.59171840  1.0
  C  C101  1  0.74286464  0.87145426  0.62854809  1.0
  C  C102  1  0.70798132  0.84283402  0.70025619  1.0
  C  C103  1  0.63828735  0.80801141  0.73496095  1.0
  Cl  Cl104  1  0.90216226  0.09673651  0.30543336  1.0
  Cl  Cl105  1  0.09784299  0.40326701  0.19456228  1.0
  Cl  Cl106  1  0.90216032  0.20759048  0.19457603  1.0
  Cl  Cl107  1  0.09784336  0.29241252  0.30542239  1.0
  Cl  Cl108  1  0.90216267  0.80541923  0.79243324  1.0
  Cl  Cl109  1  0.09783901  0.69457987  0.70756280  1.0
  Cl  Cl110  1  0.90216839  0.69456110  0.90328312  1.0
  Cl  Cl111  1  0.09783358  0.80543956  0.59671222  1.0
  Cl  Cl112  1  0.09609790  0.41899230  0.67683740  1.0
  Cl  Cl113  1  0.90388626  0.17686634  0.91900095  1.0
  Cl  Cl114  1  0.09604498  0.32315389  0.58097755  1.0
  Cl  Cl115  1  0.90390440  0.08100781  0.82316183  1.0
  Cl  Cl116  1  0.90390085  0.72705867  0.17709452  1.0
  Cl  Cl117  1  0.09611643  0.67714811  0.22700307  1.0
  Cl  Cl118  1  0.90390244  0.82290009  0.27294612  1.0
  Cl  Cl119  1  0.09604760  0.77289962  0.32294410  1.0
  Cl  Cl120  1  0.59584463  0.41899609  0.17708365  1.0
  Cl  Cl121  1  0.59585060  0.17685686  0.22707770  1.0
  Cl  Cl122  1  0.40414933  0.32312160  0.27300992  1.0
  Cl  Cl123  1  0.40415697  0.08100094  0.32291658  1.0
  Cl  Cl124  1  0.40414489  0.67708079  0.91901906  1.0
  Cl  Cl125  1  0.40416157  0.72711156  0.67684295  1.0
  Cl  Cl126  1  0.59583935  0.77297719  0.82313467  1.0
  Cl  Cl127  1  0.59585971  0.82292324  0.58097700  1.0
  O  O128  1  0.00000012  0.99999832  0.50000037  1.0
  O  O129  1  0.15325037  0.12726859  0.41384488  1.0
  O  O130  1  0.03990085  0.88552805  0.57459043  1.0
  O  O131  1  0.95886942  0.02596299  0.62728542  1.0
  O  O132  1  0.15325012  0.02596525  0.43290576  1.0
  O  O133  1  0.04111882  0.12727032  0.52597083  1.0
  O  O134  1  0.96008200  0.88549540  0.65439534  1.0
  O  O135  1  0.84674662  0.91385301  0.62726880  1.0
  O  O136  1  0.96012268  0.07459471  0.38549802  1.0
  O  O137  1  0.84675891  0.93292040  0.52595143  1.0
  O  O138  1  0.03990028  0.15438394  0.38551052  1.0
  O  O139  1  0.04111598  0.91383658  0.43291083  1.0
  O  O140  1  0.95888244  0.93291088  0.41383894  1.0
  O  O141  1  0.00000099  0.50000102  0.99999805  1.0
  O  O142  1  0.95887320  0.37273132  0.97402715  1.0
  O  O143  1  0.03991905  0.61450422  0.84560236  1.0
  O  O144  1  0.84674968  0.47403075  0.06710045  1.0
  O  O145  1  0.04112823  0.47403659  0.87271460  1.0
  O  O146  1  0.84675070  0.37272637  0.08616679  1.0
  O  O147  1  0.96009542  0.61446791  0.92540680  1.0
  O  O148  1  0.95887179  0.58615708  0.06709063  1.0
  O  O149  1  0.03987280  0.42540673  0.11450769  1.0
  O  O150  1  0.04111386  0.56709733  0.08615504  1.0
  O  O151  1  0.96010391  0.34561542  0.11448457  1.0
  O  O152  1  0.15325538  0.58616245  0.87272773  1.0
  O  O153  1  0.15324200  0.56708987  0.97404664  1.0
