# generated using pymatgen
data_AlH7C14O5F
_symmetry_space_group_name_H-M   'P 1'
_cell_length_a   6.65758582
_cell_length_b   12.98740465
_cell_length_c   17.68509997
_cell_angle_alpha   83.61188161
_cell_angle_beta   79.92511708
_cell_angle_gamma   78.83008311
_symmetry_Int_Tables_number   1
_chemical_formula_structural   AlH7C14O5F
_chemical_formula_sum   'Al2 H14 C28 O10 F2'
_cell_volume   1472.29236685
_cell_formula_units_Z   2
loop_
 _symmetry_equiv_pos_site_id
 _symmetry_equiv_pos_as_xyz
  1  'x, y, z'
loop_
 _atom_site_type_symbol
 _atom_site_label
 _atom_site_symmetry_multiplicity
 _atom_site_fract_x
 _atom_site_fract_y
 _atom_site_fract_z
 _atom_site_occupancy
  Al  Al0  1  0.49999949  0.49999029  0.49999836  1.0
  Al  Al1  1  0.99999979  0.49997937  0.49999931  1.0
  H  H2  1  0.24783517  0.59982882  0.42232590  1.0
  H  H3  1  0.75208678  0.40025389  0.57775764  1.0
  H  H4  1  0.45314415  0.49630705  0.73165959  1.0
  H  H5  1  0.38728010  0.48710671  0.87578819  1.0
  H  H6  1  0.79551081  0.56500043  0.72803478  1.0
  H  H7  1  0.20454567  0.43491738  0.27196202  1.0
  H  H8  1  0.54692992  0.50366721  0.26833738  1.0
  H  H9  1  0.61274739  0.51288738  0.12420788  1.0
  H  H10  1  0.32131817  0.81925013  0.53148497  1.0
  H  H11  1  0.96482183  0.81482148  0.43996890  1.0
  H  H12  1  0.91201481  0.01032073  0.43845131  1.0
  H  H13  1  0.67871680  0.18076288  0.46851670  1.0
  H  H14  1  0.03521275  0.18519572  0.56002573  1.0
  H  H15  1  0.08801195  0.98969320  0.56154237  1.0
  C  C16  1  0.67844114  0.68963431  0.48687764  1.0
  C  C17  1  0.83088254  0.47555499  0.36393260  1.0
  C  C18  1  0.32157630  0.31035811  0.51311641  1.0
  C  C19  1  0.16913963  0.52438275  0.63606640  1.0
  C  C20  1  0.12944553  0.52966107  0.72131592  1.0
  C  C21  1  0.29557592  0.50952653  0.76313869  1.0
  C  C22  1  0.25913394  0.50402149  0.84300799  1.0
  C  C23  1  0.05456834  0.51901889  0.88381855  1.0
  C  C24  1  0.89175090  0.54342972  0.83980960  1.0
  C  C25  1  0.92499171  0.54843903  0.76021622  1.0
  C  C26  1  0.01490639  0.50707897  0.96493676  1.0
  C  C27  1  0.98514922  0.49297183  0.03505704  1.0
  C  C28  1  0.94546209  0.48101558  0.11617806  1.0
  C  C29  1  0.10829062  0.45651637  0.16018582  1.0
  C  C30  1  0.07506480  0.45152568  0.23977411  1.0
  C  C31  1  0.87059617  0.47033227  0.27868600  1.0
  C  C32  1  0.70444941  0.49049113  0.23686107  1.0
  C  C33  1  0.74092848  0.49599856  0.15698622  1.0
  C  C34  1  0.44914142  0.86198081  0.51173698  1.0
  C  C35  1  0.81307843  0.86061275  0.45977453  1.0
  C  C36  1  0.78328303  0.96846430  0.45936438  1.0
  C  C37  1  0.58529272  0.02733342  0.48654524  1.0
  C  C38  1  0.55089441  0.13802995  0.48826138  1.0
  C  C39  1  0.18695354  0.13938532  0.54022323  1.0
  C  C40  1  0.21674067  0.03154241  0.54063112  1.0
  C  C41  1  0.41473863  0.97267337  0.51345143  1.0
  C  C42  1  0.64441108  0.80656726  0.48589599  1.0
  C  C43  1  0.35561512  0.19343379  0.51410424  1.0
  O  O44  1  0.51888237  0.64598088  0.49887029  1.0
  O  O45  1  0.98826758  0.46354428  0.39808673  1.0
  O  O46  1  0.13398176  0.35866713  0.52457012  1.0
  O  O47  1  0.35820618  0.50443313  0.60432741  1.0
  O  O48  1  0.48112160  0.35401449  0.50112337  1.0
  O  O49  1  0.01173135  0.53634803  0.60193383  1.0
  O  O50  1  0.86603006  0.64130945  0.47542140  1.0
  O  O51  1  0.64179674  0.49551772  0.39567207  1.0
  O  O52  1  0.25245576  0.54103898  0.46108089  1.0
  O  O53  1  0.74752266  0.45895956  0.53892338  1.0
  F  F54  1  0.69328829  0.56053563  0.87786354  1.0
  F  F55  1  0.30673143  0.43928704  0.12212169  1.0
