# generated using pymatgen
data_CoH18C12O7
_symmetry_space_group_name_H-M   'P 1'
_cell_length_a   7.80948242
_cell_length_b   22.16033083
_cell_length_c   22.16028976
_cell_angle_alpha   89.99999853
_cell_angle_beta   89.99996363
_cell_angle_gamma   89.99980709
_symmetry_Int_Tables_number   1
_chemical_formula_structural   CoH18C12O7
_chemical_formula_sum   'Co8 H144 C96 O56'
_cell_volume   3835.07556914
_cell_formula_units_Z   8
loop_
 _symmetry_equiv_pos_site_id
 _symmetry_equiv_pos_as_xyz
  1  'x, y, z'
loop_
 _atom_site_type_symbol
 _atom_site_label
 _atom_site_symmetry_multiplicity
 _atom_site_fract_x
 _atom_site_fract_y
 _atom_site_fract_z
 _atom_site_occupancy
  Co  Co0  1  0.76337007  0.25590998  0.75518273  1.0
  Co  Co1  1  0.76336436  0.74408952  0.24481665  1.0
  Co  Co2  1  0.23663113  0.75518036  0.74408906  1.0
  Co  Co3  1  0.23663400  0.24481660  0.25591088  1.0
  Co  Co4  1  0.73663257  0.24409023  0.25518205  1.0
  Co  Co5  1  0.73663481  0.75591020  0.74481643  1.0
  Co  Co6  1  0.26336323  0.74481589  0.24408883  1.0
  Co  Co7  1  0.26337279  0.25518059  0.75591201  1.0
  H  H8  1  0.98557514  0.34733041  0.75777653  1.0
  H  H9  1  0.98557031  0.65266882  0.24222280  1.0
  H  H10  1  0.01442569  0.75777477  0.65266745  1.0
  H  H11  1  0.01442842  0.24222291  0.34733119  1.0
  H  H12  1  0.51443390  0.15266934  0.25777680  1.0
  H  H13  1  0.51442887  0.84732909  0.74222263  1.0
  H  H14  1  0.48556755  0.74222419  0.15266897  1.0
  H  H15  1  0.48557436  0.25777654  0.84733408  1.0
  H  H16  1  0.82034005  0.36884463  0.72016783  1.0
  H  H17  1  0.82033535  0.63115660  0.27983288  1.0
  H  H18  1  0.17966347  0.72016603  0.63115372  1.0
  H  H19  1  0.17966325  0.27983235  0.36884488  1.0
  H  H20  1  0.67967162  0.13115738  0.22016762  1.0
  H  H21  1  0.67966503  0.86884221  0.77983132  1.0
  H  H22  1  0.32032981  0.77983338  0.13115754  1.0
  H  H23  1  0.32033950  0.22016348  0.86884420  1.0
  H  H24  1  0.54203575  0.16240293  0.75170807  1.0
  H  H25  1  0.54203042  0.83759638  0.24829452  1.0
  H  H26  1  0.45796711  0.75170736  0.83759549  1.0
  H  H27  1  0.45797012  0.24829295  0.16240351  1.0
  H  H28  1  0.95796434  0.33759592  0.25170734  1.0
  H  H29  1  0.95796490  0.66240199  0.74829154  1.0
  H  H30  1  0.04203092  0.74829295  0.33759620  1.0
  H  H31  1  0.04203684  0.25170650  0.66240514  1.0
  H  H32  1  0.72026917  0.13678678  0.77883089  1.0
  H  H33  1  0.72026493  0.86321367  0.22117120  1.0
  H  H34  1  0.27973235  0.77882845  0.86321430  1.0
  H  H35  1  0.27973567  0.22116982  0.13678518  1.0
  H  H36  1  0.77973087  0.36321433  0.27883155  1.0
  H  H37  1  0.77972916  0.63678605  0.72116827  1.0
  H  H38  1  0.22026691  0.72117051  0.36321453  1.0
  H  H39  1  0.22026877  0.27883234  0.63678813  1.0
  H  H40  1  0.03154598  0.18160105  0.77822944  1.0
  H  H41  1  0.03154600  0.81839796  0.22177687  1.0
  H  H42  1  0.96845538  0.77822290  0.81839848  1.0
  H  H43  1  0.96845476  0.22177499  0.18160221  1.0
  H  H44  1  0.46844541  0.31839704  0.27822826  1.0
  H  H45  1  0.46845608  0.68160371  0.72177750  1.0
  H  H46  1  0.53154494  0.72177230  0.31839559  1.0
  H  H47  1  0.53155313  0.27822341  0.68160294  1.0
  H  H48  1  0.99439949  0.23579687  0.83003326  1.0
  H  H49  1  0.99439501  0.76420821  0.16996923  1.0
  H  H50  1  0.00560136  0.83002866  0.76420389  1.0
  H  H51  1  0.00560242  0.16996812  0.23579339  1.0
  H  H52  1  0.50560045  0.26420288  0.33003263  1.0
  H  H53  1  0.50560046  0.73579466  0.66996816  1.0
  H  H54  1  0.49439553  0.66996533  0.26420316  1.0
  H  H55  1  0.49440569  0.33003042  0.73579763  1.0
  H  H56  1  0.61454733  0.26387340  0.50539404  1.0
  H  H57  1  0.61452460  0.73613079  0.49460311  1.0
  H  H58  1  0.38546677  0.50539204  0.73612751  1.0
  H  H59  1  0.38545957  0.49460385  0.26386834  1.0
  H  H60  1  0.88546600  0.23613674  0.00539468  1.0
  H  H61  1  0.88546387  0.76387434  0.99460376  1.0
  H  H62  1  0.11454041  0.99460286  0.23612414  1.0
  H  H63  1  0.11453440  0.00539109  0.76387493  1.0
  H  H64  1  0.99899463  0.16449243  0.40870889  1.0
  H  H65  1  0.99898486  0.83550452  0.59129088  1.0
  H  H66  1  0.00101145  0.40871004  0.83550757  1.0
  H  H67  1  0.00099966  0.59128855  0.16449243  1.0
  H  H68  1  0.50099493  0.33551002  0.90871143  1.0
  H  H69  1  0.50100562  0.66449655  0.09128800  1.0
  H  H70  1  0.49899776  0.09128940  0.33550187  1.0
  H  H71  1  0.49899356  0.90870770  0.66449531  1.0
  H  H72  1  0.01679231  0.17411471  0.60244474  1.0
  H  H73  1  0.01678299  0.82588341  0.39755661  1.0
  H  H74  1  0.98321391  0.60244393  0.82587988  1.0
  H  H75  1  0.98321291  0.39755395  0.17411358  1.0
  H  H76  1  0.48321988  0.32588970  0.10244671  1.0
  H  H77  1  0.48322134  0.67411734  0.89755454  1.0
  H  H78  1  0.51678512  0.89755578  0.32588421  1.0
  H  H79  1  0.51677963  0.10244175  0.67412064  1.0
  H  H80  1  0.34918813  0.21107154  0.50382776  1.0
  H  H81  1  0.34917770  0.78892438  0.49617216  1.0
  H  H82  1  0.65081978  0.50382511  0.78892733  1.0
  H  H83  1  0.65081010  0.49617181  0.21106981  1.0
  H  H84  1  0.15082295  0.28893197  0.00382710  1.0
  H  H85  1  0.15082645  0.71107412  0.99617197  1.0
  H  H86  1  0.84918443  0.99617189  0.28892797  1.0
  H  H87  1  0.84917853  0.00382208  0.71107499  1.0
  H  H88  1  0.46195005  0.14730167  0.53088786  1.0
  H  H89  1  0.46194162  0.85269412  0.46911249  1.0
  H  H90  1  0.53805540  0.53088615  0.85269636  1.0
  H  H91  1  0.53804737  0.46911361  0.14729990  1.0
  H  H92  1  0.03805331  0.35269868  0.03088767  1.0
  H  H93  1  0.03805746  0.64730573  0.96911141  1.0
  H  H94  1  0.96194741  0.96911266  0.35269789  1.0
  H  H95  1  0.96194394  0.03088344  0.64730776  1.0
  H  H96  1  0.31225105  0.18416583  0.57851947  1.0
  H  H97  1  0.31224049  0.81583239  0.42148181  1.0
  H  H98  1  0.68775143  0.57851802  0.81583176  1.0
  H  H99  1  0.68774251  0.42148111  0.18416312  1.0
  H  H100  1  0.18775222  0.31583633  0.07851971  1.0
  H  H101  1  0.18775867  0.68416836  0.92148115  1.0
  H  H102  1  0.81224761  0.92148079  0.31583557  1.0
  H  H103  1  0.81224874  0.07851458  0.68417147  1.0
  H  H104  1  0.29879244  0.04827391  0.55060829  1.0
  H  H105  1  0.29879591  0.95172207  0.44939480  1.0
  H  H106  1  0.70120688  0.55060778  0.95172438  1.0
  H  H107  1  0.70120049  0.44939495  0.04827230  1.0
  H  H108  1  0.20119807  0.45172960  0.05060581  1.0
  H  H109  1  0.20121217  0.54827643  0.94939414  1.0
  H  H110  1  0.79879192  0.94939464  0.45172639  1.0
  H  H111  1  0.79879740  0.05060481  0.54827839  1.0
  H  H112  1  0.07848723  0.04247585  0.53176695  1.0
  H  H113  1  0.07848933  0.95752356  0.46823348  1.0
  H  H114  1  0.92151477  0.53176903  0.95752437  1.0
  H  H115  1  0.92150822  0.46823479  0.04247271  1.0
  H  H116  1  0.42150716  0.45753037  0.03176668  1.0
  H  H117  1  0.42151743  0.54247630  0.96823368  1.0
  H  H118  1  0.57848529  0.96823474  0.45752553  1.0
  H  H119  1  0.57848968  0.03176587  0.54247750  1.0
  H  H120  1  0.14447982  0.08633797  0.59483517  1.0
  H  H121  1  0.14448501  0.91366091  0.40516615  1.0
  H  H122  1  0.85551910  0.59483582  0.91366033  1.0
  H  H123  1  0.85550923  0.40516718  0.08633361  1.0
  H  H124  1  0.35550678  0.41366960  0.09483310  1.0
  H  H125  1  0.35551803  0.58633669  0.90516682  1.0
  H  H126  1  0.64448232  0.90516660  0.41366418  1.0
  H  H127  1  0.64448987  0.09483258  0.58633973  1.0
  H  H128  1  0.27757303  0.14484243  0.41347425  1.0
  H  H129  1  0.27757461  0.85515719  0.58652658  1.0
  H  H130  1  0.72243822  0.41347443  0.85515705  1.0
  H  H131  1  0.72243163  0.58652646  0.14484008  1.0
  H  H132  1  0.22242835  0.35516288  0.91347539  1.0
  H  H133  1  0.22242772  0.64484358  0.08652456  1.0
  H  H134  1  0.77757064  0.08652622  0.35515727  1.0
  H  H135  1  0.77756260  0.91347145  0.64484030  1.0
  H  H136  1  0.15532580  0.07747122  0.42298136  1.0
  H  H137  1  0.15532932  0.92252810  0.57701860  1.0
  H  H138  1  0.84468437  0.42298234  0.92252890  1.0
  H  H139  1  0.84468312  0.57701886  0.07746820  1.0
  H  H140  1  0.34467300  0.42253454  0.92298292  1.0
  H  H141  1  0.34467559  0.57747087  0.07701925  1.0
  H  H142  1  0.65531925  0.07702057  0.42252960  1.0
  H  H143  1  0.65531507  0.92298221  0.57747070  1.0
  H  H144  1  0.36995330  0.08061906  0.44829283  1.0
  H  H145  1  0.36995177  0.91937865  0.55170438  1.0
  H  H146  1  0.63005671  0.44829256  0.91938005  1.0
  H  H147  1  0.63005442  0.55170890  0.08061755  1.0
  H  H148  1  0.13004673  0.41938444  0.94829444  1.0
  H  H149  1  0.13005190  0.58062122  0.05170372  1.0
  H  H150  1  0.86994563  0.05170764  0.41938025  1.0
  H  H151  1  0.86994377  0.94829127  0.58062001  1.0
  C  C152  1  0.81056944  0.22188113  0.55979899  1.0
  C  C153  1  0.81056049  0.77811921  0.44019811  1.0
  C  C154  1  0.18943812  0.55979928  0.77811660  1.0
  C  C155  1  0.18943151  0.44019864  0.22188065  1.0
  C  C156  1  0.68944252  0.27812585  0.05980148  1.0
  C  C157  1  0.68943704  0.72188411  0.94019791  1.0
  C  C158  1  0.31056898  0.94019922  0.27811590  1.0
  C  C159  1  0.31056382  0.05979855  0.72188764  1.0
  C  C160  1  0.72998405  0.23645948  0.50534620  1.0
  C  C161  1  0.72996490  0.76354186  0.49465229  1.0
  C  C162  1  0.27002632  0.50534608  0.76353962  1.0
  C  C163  1  0.27002044  0.49464904  0.23645671  1.0
  C  C164  1  0.77002800  0.26354841  0.00534777  1.0
  C  C165  1  0.77002357  0.73646236  0.99465161  1.0
  C  C166  1  0.22998081  0.99465153  0.26353668  1.0
  C  C167  1  0.22997358  0.00534364  0.73646327  1.0
  C  C168  1  0.79967640  0.21611272  0.45111585  1.0
  C  C169  1  0.79965952  0.78388989  0.54888262  1.0
  C  C170  1  0.20032924  0.45111543  0.78388954  1.0
  C  C171  1  0.20032288  0.54888248  0.21610816  1.0
  C  C172  1  0.70033229  0.28389651  0.95111654  1.0
  C  C173  1  0.70032977  0.71611389  0.04888195  1.0
  C  C174  1  0.29967622  0.04888221  0.28388389  1.0
  C  C175  1  0.29966641  0.95111422  0.71611333  1.0
  C  C176  1  0.94813071  0.18034060  0.45151926  1.0
  C  C177  1  0.94811989  0.81965777  0.54847917  1.0
  C  C178  1  0.05187762  0.45151984  0.81965849  1.0
  C  C179  1  0.05186622  0.54847824  0.18033878  1.0
  C  C180  1  0.55187286  0.31966501  0.95152179  1.0
  C  C181  1  0.55187580  0.68034285  0.04847764  1.0
  C  C182  1  0.44813289  0.04847825  0.31965552  1.0
  C  C183  1  0.44812698  0.95151936  0.68034258  1.0
  C  C184  1  0.02951288  0.16461620  0.50544736  1.0
  C  C185  1  0.02950201  0.83538326  0.49455263  1.0
  C  C186  1  0.97049137  0.50544855  0.83538291  1.0
  C  C187  1  0.97048690  0.49454935  0.16461371  1.0
  C  C188  1  0.47049308  0.33538867  0.00545068  1.0
  C  C189  1  0.47049446  0.66461614  0.99454966  1.0
  C  C190  1  0.52951532  0.99455162  0.33538273  1.0
  C  C191  1  0.52950693  0.00544635  0.66461896  1.0
  C  C192  1  0.95788539  0.18590188  0.55947904  1.0
  C  C193  1  0.95787482  0.81409603  0.44051984  1.0
  C  C194  1  0.04211975  0.55947807  0.81409539  1.0
  C  C195  1  0.04210936  0.44051867  0.18590099  1.0
  C  C196  1  0.54212016  0.31410284  0.05948381  1.0
  C  C197  1  0.54212272  0.68590323  0.94051877  1.0
  C  C198  1  0.45788345  0.94051953  0.31409691  1.0
  C  C199  1  0.45787963  0.05947807  0.68590795  1.0
  C  C200  1  0.73700998  0.24516196  0.61755998  1.0
  C  C201  1  0.73700264  0.75483621  0.38243895  1.0
  C  C202  1  0.26299972  0.61755966  0.75483576  1.0
  C  C203  1  0.26298978  0.38243998  0.24516644  1.0
  C  C204  1  0.76299803  0.25483735  0.11756020  1.0
  C  C205  1  0.76299884  0.74516666  0.88243873  1.0
  C  C206  1  0.23700487  0.88244020  0.25483327  1.0
  C  C207  1  0.23700551  0.11755586  0.74517028  1.0
  C  C208  1  0.71589745  0.23348931  0.39302140  1.0
  C  C209  1  0.71588319  0.76650888  0.60697934  1.0
  C  C210  1  0.28411485  0.39301968  0.76651295  1.0
  C  C211  1  0.28410151  0.60697678  0.23348833  1.0
  C  C212  1  0.78410110  0.26651450  0.89302117  1.0
  C  C213  1  0.78410855  0.73349490  0.10697729  1.0
  C  C214  1  0.21589576  0.10697842  0.26650506  1.0
  C  C215  1  0.21588775  0.89301722  0.73348857  1.0
  C  C216  1  0.19661247  0.12857783  0.50694732  1.0
  C  C217  1  0.19660510  0.87142053  0.49305399  1.0
  C  C218  1  0.80339703  0.50694727  0.87142127  1.0
  C  C219  1  0.80339008  0.49305308  0.12857765  1.0
  C  C220  1  0.30338965  0.37142523  0.00694707  1.0
  C  C221  1  0.30339777  0.62857932  0.99305286  1.0
  C  C222  1  0.69660576  0.99305245  0.37142240  1.0
  C  C223  1  0.69660638  0.00694532  0.62857925  1.0
  C  C224  1  0.33763568  0.17038398  0.53180257  1.0
  C  C225  1  0.33762747  0.82961512  0.46819825  1.0
  C  C226  1  0.66236839  0.53180122  0.82961588  1.0
  C  C227  1  0.66235777  0.46819794  0.17038217  1.0
  C  C228  1  0.16236511  0.32961818  0.03180371  1.0
  C  C229  1  0.16237417  0.67038429  0.96819715  1.0
  C  C230  1  0.83763574  0.96819714  0.32961652  1.0
  C  C231  1  0.83763222  0.03179776  0.67038554  1.0
  C  C232  1  0.17772540  0.07337199  0.54850273  1.0
  C  C233  1  0.17772526  0.92662504  0.45149767  1.0
  C  C234  1  0.82227767  0.54850395  0.92662677  1.0
  C  C235  1  0.82226866  0.45149818  0.07337124  1.0
  C  C236  1  0.32226768  0.42663017  0.04850474  1.0
  C  C237  1  0.32227769  0.57337391  0.95149474  1.0
  C  C238  1  0.67772373  0.95149802  0.42662836  1.0
  C  C239  1  0.67773174  0.04850473  0.57337735  1.0
  C  C240  1  0.25137938  0.10694951  0.44411149  1.0
  C  C241  1  0.25137553  0.89304879  0.55588890  1.0
  C  C242  1  0.74862927  0.44411205  0.89305051  1.0
  C  C243  1  0.74861921  0.55588837  0.10694887  1.0
  C  C244  1  0.24862066  0.39305444  0.94411352  1.0
  C  C245  1  0.24862557  0.60695153  0.05588687  1.0
  C  C246  1  0.75137696  0.05588815  0.39304983  1.0
  C  C247  1  0.75137253  0.94410955  0.60695181  1.0
  O  O248  1  0.83651717  0.24620295  0.66443752  1.0
  O  O249  1  0.83651249  0.75379465  0.33556004  1.0
  O  O250  1  0.16348842  0.66443853  0.75379291  1.0
  O  O251  1  0.16348276  0.33556077  0.24620479  1.0
  O  O252  1  0.66349204  0.25379590  0.16443730  1.0
  O  O253  1  0.66348908  0.74620822  0.83555939  1.0
  O  O254  1  0.33651105  0.83556088  0.25379356  1.0
  O  O255  1  0.33650612  0.16443551  0.74621222  1.0
  O  O256  1  0.58330445  0.26292352  0.61820891  1.0
  O  O257  1  0.58330240  0.73707258  0.38179096  1.0
  O  O258  1  0.41670518  0.61820893  0.73707740  1.0
  O  O259  1  0.41669009  0.38179414  0.26293469  1.0
  O  O260  1  0.91670612  0.23707128  0.11820503  1.0
  O  O261  1  0.91670036  0.76292984  0.88179341  1.0
  O  O262  1  0.08330072  0.88179454  0.23706998  1.0
  O  O263  1  0.08330260  0.11820485  0.76293406  1.0
  O  O264  1  0.81146848  0.23358583  0.34503736  1.0
  O  O265  1  0.81146566  0.76641361  0.65496020  1.0
  O  O266  1  0.18853384  0.34503715  0.76641459  1.0
  O  O267  1  0.18852260  0.65495897  0.23358536  1.0
  O  O268  1  0.68852631  0.26641483  0.84503896  1.0
  O  O269  1  0.68852471  0.73358927  0.15496134  1.0
  O  O270  1  0.31147549  0.15496140  0.26641254  1.0
  O  O271  1  0.31147306  0.84503548  0.73358422  1.0
  O  O272  1  0.55947344  0.24777936  0.39306700  1.0
  O  O273  1  0.55945804  0.75221767  0.60693152  1.0
  O  O274  1  0.44054265  0.39306516  0.75222612  1.0
  O  O275  1  0.44052544  0.60693020  0.24777874  1.0
  O  O276  1  0.94053279  0.25222445  0.89306854  1.0
  O  O277  1  0.94053242  0.74778566  0.10693170  1.0
  O  O278  1  0.05947055  0.10693068  0.25221465  1.0
  O  O279  1  0.05945995  0.89306334  0.74777676  1.0
  O  O280  1  0.85649618  0.34355031  0.75362362  1.0
  O  O281  1  0.85648619  0.65644862  0.24637483  1.0
  O  O282  1  0.14350596  0.75362268  0.65644626  1.0
  O  O283  1  0.14351123  0.24637394  0.34355370  1.0
  O  O284  1  0.64351414  0.15644944  0.25362432  1.0
  O  O285  1  0.64351170  0.84355109  0.74637373  1.0
  O  O286  1  0.35648599  0.74637447  0.15644736  1.0
  O  O287  1  0.35649156  0.25362415  0.84355526  1.0
  O  O288  1  0.67068573  0.16799257  0.75349368  1.0
  O  O289  1  0.67068430  0.83200658  0.24650752  1.0
  O  O290  1  0.32931453  0.75349306  0.83200667  1.0
  O  O291  1  0.32931499  0.24650560  0.16799280  1.0
  O  O292  1  0.82931051  0.33200673  0.25349523  1.0
  O  O293  1  0.82931230  0.66799178  0.74650548  1.0
  O  O294  1  0.17068479  0.74650500  0.33200646  1.0
  O  O295  1  0.17069068  0.25349430  0.66799440  1.0
  O  O296  1  0.01289791  0.22754307  0.78436203  1.0
  O  O297  1  0.01289454  0.77245867  0.21564022  1.0
  O  O298  1  0.98710195  0.78435728  0.77245639  1.0
  O  O299  1  0.98710388  0.21563969  0.22754159  1.0
  O  O300  1  0.48709987  0.27245683  0.28436130  1.0
  O  O301  1  0.48710371  0.72754435  0.71563995  1.0
  O  O302  1  0.51289461  0.71563657  0.27245576  1.0
  O  O303  1  0.51290266  0.28435961  0.72754367  1.0
