# generated using pymatgen
data_Zn8H40C75(Br3O13)2
_symmetry_space_group_name_H-M   'P 1'
_cell_length_a   18.32437690
_cell_length_b   18.32549078
_cell_length_c   18.36357605
_cell_angle_alpha   90.25455569
_cell_angle_beta   119.62428692
_cell_angle_gamma   119.84811406
_symmetry_Int_Tables_number   1
_chemical_formula_structural   Zn8H40C75(Br3O13)2
_chemical_formula_sum   'Zn8 H40 C75 Br6 O26'
_cell_volume   4385.38093898
_cell_formula_units_Z   1
loop_
 _symmetry_equiv_pos_site_id
 _symmetry_equiv_pos_as_xyz
  1  'x, y, z'
loop_
 _atom_site_type_symbol
 _atom_site_label
 _atom_site_symmetry_multiplicity
 _atom_site_fract_x
 _atom_site_fract_y
 _atom_site_fract_z
 _atom_site_occupancy
  Zn  Zn0  1  0.58909978  0.54124953  0.45687225  1.0
  Zn  Zn1  1  0.41146535  0.54172856  0.45455845  1.0
  Zn  Zn2  1  0.58332951  0.54395645  0.62893527  1.0
  Zn  Zn3  1  0.41446212  0.36769249  0.45346562  1.0
  Zn  Zn4  1  0.41038460  0.95424980  0.04296954  1.0
  Zn  Zn5  1  0.41243070  0.95471370  0.87002944  1.0
  Zn  Zn6  1  0.58683194  0.95680021  0.04616509  1.0
  Zn  Zn7  1  0.58869453  0.13150167  0.04511902  1.0
  H  H8  1  0.66662944  0.27527352  0.32005198  1.0
  H  H9  1  0.09565232  0.11904358  0.48832286  1.0
  H  H10  1  0.80975811  0.05758144  0.26453277  1.0
  H  H11  1  0.90462172  0.28966463  0.13978236  1.0
  H  H12  1  0.51074701  0.63281382  0.78093624  1.0
  H  H13  1  0.49479957  0.76063159  0.55015434  1.0
  H  H14  1  0.36972926  0.09111177  0.21640967  1.0
  H  H15  1  0.51394146  0.72995296  0.88022931  1.0
  H  H16  1  0.24305719  0.45151676  0.03007587  1.0
  H  H17  1  0.25159435  0.55450231  0.94251172  1.0
  H  H18  1  0.36983971  0.71775553  0.01968731  1.0
  H  H19  1  0.19405268  0.96890772  0.91274159  1.0
  H  H20  1  0.32798284  0.22057851  0.17326170  1.0
  H  H21  1  0.45107435  0.27744428  0.10569525  1.0
  H  H22  1  0.62477899  0.40490208  0.27672191  1.0
  H  H23  1  0.89954825  0.60788330  0.63923529  1.0
  H  H24  1  0.81177527  0.78377018  0.72704896  1.0
  H  H25  1  0.91141333  0.93478864  0.83033871  1.0
  H  H26  1  0.93909046  0.98866272  0.45348949  1.0
  H  H27  1  0.85865117  0.02319221  0.43547800  1.0
  H  H28  1  0.82267986  0.94442993  0.34694849  1.0
  H  H29  1  0.49430551  0.84775496  0.46024805  1.0
  H  H30  1  0.33356994  0.31306611  0.62175477  1.0
  H  H31  1  0.45866094  0.91978397  0.47113095  1.0
  H  H32  1  0.58894225  0.96435633  0.51917575  1.0
  H  H33  1  0.55348343  0.02811135  0.80075115  1.0
  H  H34  1  0.63970720  0.00260905  0.87487063  1.0
  H  H35  1  0.67405679  0.07609567  0.81786063  1.0
  H  H36  1  0.28366956  0.41681347  0.15095889  1.0
  H  H37  1  0.41341482  0.48656866  0.24362677  1.0
  H  H38  1  0.31755316  0.48901042  0.24334582  1.0
  H  H39  1  0.57431967  0.96212368  0.30809485  1.0
  H  H40  1  0.67280296  0.96113968  0.40120048  1.0
  H  H41  1  0.19057508  0.23441684  0.63841838  1.0
  H  H42  1  0.67535679  0.97351775  0.30639274  1.0
  H  H43  1  0.32549131  0.11165088  0.80371752  1.0
  H  H44  1  0.64271347  0.23517617  0.83109747  1.0
  H  H45  1  0.09640605  0.38418879  0.23300014  1.0
  H  H46  1  0.54338383  0.21840982  0.38748393  1.0
  H  H47  1  0.19084269  0.24401366  0.45052386  1.0
  C  C48  1  0.22286391  0.35934370  0.36364145  1.0
  C  C49  1  0.11056010  0.92789376  0.87117787  1.0
  C  C50  1  0.05496480  0.84143350  0.81168812  1.0
  C  C51  1  0.77544250  0.64146046  0.63901599  1.0
  C  C52  1  0.94475313  0.78803202  0.75813917  1.0
  C  C53  1  0.89027252  0.70263281  0.69640426  1.0
  C  C54  1  0.94223051  0.67249038  0.68761565  1.0
  C  C55  1  0.05011445  0.72449684  0.74209550  1.0
  C  C56  1  0.10677916  0.80742600  0.80336237  1.0
  C  C57  1  0.33283018  0.26945242  0.66197111  1.0
  C  C58  1  0.25250692  0.22555473  0.67082350  1.0
  C  C59  1  0.42628874  0.16101419  0.23026303  1.0
  C  C60  1  0.25094741  0.16835822  0.72222556  1.0
  C  C61  1  0.32872134  0.15656675  0.76499468  1.0
  C  C62  1  0.41281841  0.20225062  0.75771668  1.0
  C  C63  1  0.50198427  0.63539584  0.35997556  1.0
  C  C64  1  0.41459878  0.25907956  0.70417242  1.0
  C  C65  1  0.49804504  0.30384516  0.69526966  1.0
  C  C66  1  0.57692657  0.29326189  0.73980351  1.0
  C  C67  1  0.57836096  0.24072668  0.79560246  1.0
  C  C68  1  0.49753515  0.19544139  0.80379585  1.0
  C  C69  1  0.10751519  0.20461087  0.41005037  1.0
  C  C70  1  0.40311545  0.23205715  0.20506826  1.0
  C  C71  1  0.05380580  0.13407332  0.43085930  1.0
  C  C72  1  0.94520765  0.08014864  0.37913866  1.0
  C  C73  1  0.89328917  0.09936253  0.30577967  1.0
  C  C74  1  0.94538135  0.17181826  0.28215799  1.0
  C  C75  1  0.49875570  0.36158555  0.63733590  1.0
  C  C76  1  0.05598991  0.22647511  0.33588514  1.0
  C  C77  1  0.10867005  0.30208720  0.31458484  1.0
  C  C78  1  0.05441978  0.32501578  0.24641213  1.0
  C  C79  1  0.94676111  0.27193865  0.19409435  1.0
  C  C80  1  0.89260688  0.19553045  0.20941769  1.0
  C  C81  1  0.47170006  0.26526888  0.16901521  1.0
  C  C82  1  0.51270365  0.80950713  0.60115218  1.0
  C  C83  1  0.52852633  0.88912144  0.58887621  1.0
  C  C84  1  0.55783981  0.95368054  0.65897996  1.0
  C  C85  1  0.56476741  0.93908168  0.73563464  1.0
  C  C86  1  0.53479999  0.85170317  0.74148692  1.0
  C  C87  1  0.49744902  0.64311183  0.63352580  1.0
  C  C88  1  0.51667339  0.78868363  0.67663703  1.0
  C  C89  1  0.50800429  0.70920786  0.69286631  1.0
  C  C90  1  0.51360344  0.69186270  0.76817546  1.0
  C  C91  1  0.51832217  0.74760685  0.82524510  1.0
  C  C92  1  0.56832458  0.33497798  0.26293952  1.0
  C  C93  1  0.52560156  0.82456303  0.81119514  1.0
  C  C94  1  0.35690252  0.55317054  0.15700855  1.0
  C  C95  1  0.29646323  0.52334299  0.06492952  1.0
  C  C96  1  0.30087741  0.58154886  0.01489032  1.0
  C  C97  1  0.36674707  0.67212804  0.05777354  1.0
  C  C98  1  0.43070955  0.70713125  0.15198435  1.0
  C  C99  1  0.50071797  0.35986321  0.35727621  1.0
  C  C100  1  0.42782354  0.64796535  0.20353410  1.0
  C  C101  1  0.49727182  0.68889674  0.29803357  1.0
  C  C102  1  0.56203749  0.78096271  0.33708100  1.0
  C  C103  1  0.50066597  0.30314323  0.29958168  1.0
  C  C104  1  0.56194615  0.84008145  0.28771408  1.0
  C  C105  1  0.49701149  0.80079699  0.19608573  1.0
  C  C106  1  0.50020054  0.13810499  0.86186153  1.0
  C  C107  1  0.49809242  0.86073651  0.14054558  1.0
  C  C108  1  0.22179445  0.86218701  0.86105741  1.0
  C  C109  1  0.77831351  0.13936926  0.14651250  1.0
  C  C110  1  0.51144348  0.86952708  0.86622844  1.0
  C  C111  1  0.52289013  0.23072214  0.32422055  1.0
  C  C112  1  0.49378738  0.13616170  0.13577774  1.0
  C  C113  1  0.59154313  0.26393309  0.28816212  1.0
  C  C114  1  0.89519945  0.82397806  0.76662794  1.0
  C  C115  1  0.49403168  0.19287802  0.19369755  1.0
  C  C116  1  0.88858536  0.00500715  0.40489910  1.0
  C  C117  1  0.51696697  0.90586513  0.50519637  1.0
  C  C118  1  0.60979846  0.01499238  0.81151903  1.0
  C  C119  1  0.34279468  0.48322816  0.20173059  1.0
  C  C120  1  0.62501278  0.93966282  0.32863090  1.0
  C  C121  1  0.95043640  0.90810547  0.82452616  1.0
  C  C122  1  0.05865285  0.95946717  0.87674212  1.0
  Br  Br123  1  0.13438551  0.07553159  0.95681854  1.0
  Br  Br124  1  0.11523063  0.67461838  0.73101160  1.0
  Br  Br125  1  0.68633179  0.34736899  0.72536009  1.0
  Br  Br126  1  0.13839066  0.10637166  0.73218206  1.0
  Br  Br127  1  0.59192827  0.06806807  0.64666445  1.0
  Br  Br128  1  0.65721857  0.83005238  0.46408332  1.0
  O  O129  1  0.49961897  0.49879636  0.49870269  1.0
  O  O130  1  0.73277174  0.05498586  0.12120726  1.0
  O  O131  1  0.44351284  0.88513411  0.82455703  1.0
  O  O132  1  0.26853169  0.32058426  0.38655946  1.0
  O  O133  1  0.55704398  0.17673385  0.11464964  1.0
  O  O134  1  0.56439292  0.88387133  0.94963021  1.0
  O  O135  1  0.43042255  0.05178110  0.11197658  1.0
  O  O136  1  0.26395704  0.87556368  0.94390397  1.0
  O  O137  1  0.73539670  0.18045838  0.12141111  1.0
  O  O138  1  0.43342904  0.05439644  0.82222319  1.0
  O  O139  1  0.56398214  0.88645169  0.12247814  1.0
  O  O140  1  0.56588646  0.61552573  0.38374329  1.0
  O  O141  1  0.73377994  0.60509450  0.55744125  1.0
  O  O142  1  0.44175196  0.61649214  0.38347935  1.0
  O  O143  1  0.55944389  0.44538118  0.67755110  1.0
  O  O144  1  0.43614337  0.62034791  0.54955267  1.0
  O  O145  1  0.44045571  0.31902291  0.38140907  1.0
  O  O146  1  0.55114960  0.61324131  0.67340817  1.0
  O  O147  1  0.56028530  0.44419415  0.37789131  1.0
  O  O148  1  0.43761858  0.32099178  0.55405258  1.0
  O  O149  1  0.26569670  0.44304904  0.37723544  1.0
  O  O150  1  0.72943298  0.62953745  0.67657137  1.0
  O  O151  1  0.49910986  0.99991905  0.00047125  1.0
  O  O152  1  0.56912121  0.17811868  0.94479641  1.0
  O  O153  1  0.43401951  0.88046518  0.11684750  1.0
  O  O154  1  0.26620794  0.89098117  0.82184475  1.0
