# generated using pymatgen
data_Zn2H20C19(NO5)2
_symmetry_space_group_name_H-M   'P 1'
_cell_length_a   9.64924975
_cell_length_b   10.90765503
_cell_length_c   11.16475770
_cell_angle_alpha   91.96263602
_cell_angle_beta   100.09641596
_cell_angle_gamma   91.87670682
_symmetry_Int_Tables_number   1
_chemical_formula_structural   Zn2H20C19(NO5)2
_chemical_formula_sum   'Zn2 H20 C19 N2 O10'
_cell_volume   1155.32523858
_cell_formula_units_Z   1
loop_
 _symmetry_equiv_pos_site_id
 _symmetry_equiv_pos_as_xyz
  1  'x, y, z'
loop_
 _atom_site_type_symbol
 _atom_site_label
 _atom_site_symmetry_multiplicity
 _atom_site_fract_x
 _atom_site_fract_y
 _atom_site_fract_z
 _atom_site_occupancy
  Zn  Zn0  1  0.64498951  0.48504307  0.53077353  1.0
  Zn  Zn1  1  0.35303534  0.47244304  0.48168504  1.0
  H  H2  1  0.73472649  0.10717438  0.56033471  1.0
  H  H3  1  0.32006337  0.85135762  0.37279275  1.0
  H  H4  1  0.36733801  0.09892271  0.63423873  1.0
  H  H5  1  0.33218911  0.88711781  0.59899920  1.0
  H  H6  1  0.59319153  0.43171520  0.92805279  1.0
  H  H7  1  0.27889024  0.45272768  0.08061521  1.0
  H  H8  1  0.59634302  0.52397121  0.11703118  1.0
  H  H9  1  0.88685978  0.66994962  0.52313841  1.0
  H  H10  1  0.91200555  0.40727738  0.56405868  1.0
  H  H11  1  0.16072380  0.64922925  0.56557630  1.0
  H  H12  1  0.68050121  0.07011151  0.40427159  1.0
  H  H13  1  0.06493825  0.41944118  0.42930284  1.0
  H  H14  1  0.71751001  0.86604862  0.45710070  1.0
  H  H15  1  0.72042408  0.90052093  0.61304407  1.0
  H  H16  1  0.54748632  0.08719506  0.69767882  1.0
  H  H17  1  0.49356691  0.87620207  0.70191700  1.0
  H  H18  1  0.42984668  0.07689314  0.30763604  1.0
  H  H19  1  0.47772283  0.87118735  0.31313970  1.0
  H  H20  1  0.25187794  0.60367244  0.79629615  1.0
  H  H21  1  0.26057138  0.14765944  0.42244714  1.0
  C  C22  1  0.49189155  0.48838883  0.27176386  1.0
  C  C23  1  0.51152170  0.85946345  0.50990050  1.0
  C  C24  1  0.44480198  0.91432214  0.61528325  1.0
  C  C25  1  0.42433758  0.89830776  0.38879930  1.0
  C  C26  1  0.38118816  0.48239466  0.92326188  1.0
  C  C27  1  0.49585282  0.46007607  0.87254204  1.0
  C  C28  1  0.37995082  0.47435519  0.05313866  1.0
  C  C29  1  0.49463874  0.49683210  0.13999854  1.0
  C  C30  1  0.93649578  0.58079325  0.53246255  1.0
  C  C31  1  0.08760629  0.57391896  0.52474683  1.0
  C  C32  1  0.50381912  0.23798000  0.49745734  1.0
  C  C33  1  0.49671538  0.46842462  0.74086141  1.0
  C  C34  1  0.51011319  0.71996003  0.51629853  1.0
  C  C35  1  0.65614084  0.05291436  0.49506433  1.0
  C  C36  1  0.66209710  0.91497545  0.52113940  1.0
  C  C37  1  0.46480079  0.05572795  0.62094229  1.0
  C  C38  1  0.40443234  0.03800908  0.39187190  1.0
  C  C39  1  0.50862454  0.09863657  0.50173328  1.0
  C  C40  1  0.24531856  0.51766609  0.84622501  1.0
  N  N41  1  0.85997230  0.48773776  0.55038348  1.0
  N  N42  1  0.13827423  0.48521110  0.47046475  1.0
  O  O43  1  0.61050975  0.50533657  0.34263041  1.0
  O  O44  1  0.37355033  0.46557584  0.30436701  1.0
  O  O45  1  0.61864731  0.29928135  0.50161733  1.0
  O  O46  1  0.38231599  0.28469857  0.49044956  1.0
  O  O47  1  0.61579055  0.46298157  0.70734676  1.0
  O  O48  1  0.37786499  0.47971160  0.67094241  1.0
  O  O49  1  0.62808392  0.67006843  0.54678896  1.0
  O  O50  1  0.39092306  0.66214505  0.49179613  1.0
  O  O51  1  0.13295586  0.46185968  0.84493011  1.0
  O  O52  1  0.26076463  0.05978010  0.39942583  1.0
