# generated using pymatgen
data_Zn4H8C28S2Cl2O13F4
_symmetry_space_group_name_H-M   'P 1'
_cell_length_a   18.56463711
_cell_length_b   19.74595854
_cell_length_c   32.85312287
_cell_angle_alpha   86.01084979
_cell_angle_beta   73.58702782
_cell_angle_gamma   61.95547870
_symmetry_Int_Tables_number   1
_chemical_formula_structural   Zn4H8C28S2Cl2O13F4
_chemical_formula_sum   'Zn16 H32 C112 S8 Cl8 O52 F16'
_cell_volume   10167.44799621
_cell_formula_units_Z   4
loop_
 _symmetry_equiv_pos_site_id
 _symmetry_equiv_pos_as_xyz
  1  'x, y, z'
loop_
 _atom_site_type_symbol
 _atom_site_label
 _atom_site_symmetry_multiplicity
 _atom_site_fract_x
 _atom_site_fract_y
 _atom_site_fract_z
 _atom_site_occupancy
  Zn  Zn0  1  0.87429568  0.55606594  0.51882371  1.0
  Zn  Zn1  1  0.03834382  0.48493941  0.43853071  1.0
  Zn  Zn2  1  0.04190858  0.39797613  0.52354873  1.0
  Zn  Zn3  1  0.04677616  0.56018510  0.51850338  1.0
  Zn  Zn4  1  0.62423498  0.19183108  0.73251281  1.0
  Zn  Zn5  1  0.46460960  0.34999773  0.72574650  1.0
  Zn  Zn6  1  0.45788142  0.26582434  0.81278444  1.0
  Zn  Zn7  1  0.45295190  0.19223421  0.72918299  1.0
  Zn  Zn8  1  0.46285546  0.76212150  0.31275341  1.0
  Zn  Zn9  1  0.45365698  0.69271630  0.23076386  1.0
  Zn  Zn10  1  0.62564179  0.69249519  0.22902978  1.0
  Zn  Zn11  1  0.45832804  0.85213353  0.22653837  1.0
  Zn  Zn12  1  0.03516364  0.90003444  0.02437035  1.0
  Zn  Zn13  1  0.05100203  0.05606070  0.01855495  1.0
  Zn  Zn14  1  0.87591241  0.05967378  0.01984093  1.0
  Zn  Zn15  1  0.03672458  0.98420195  0.93722697  1.0
  H  H16  1  0.54273925  0.48273455  0.62160837  1.0
  H  H17  1  0.54804433  0.52275699  0.66696213  1.0
  H  H18  1  0.64402532  0.57092863  0.61893103  1.0
  H  H19  1  0.63873590  0.53082962  0.57356682  1.0
  H  H20  1  0.35298922  0.67382730  0.43083031  1.0
  H  H21  1  0.26229720  0.76204741  0.42822322  1.0
  H  H22  1  0.16610213  0.71404354  0.47620969  1.0
  H  H23  1  0.25674115  0.62589834  0.47884118  1.0
  H  H24  1  0.54744162  0.76217344  0.42808418  1.0
  H  H25  1  0.54233492  0.67398321  0.43065210  1.0
  H  H26  1  0.63838379  0.62589330  0.47864783  1.0
  H  H27  1  0.64362145  0.71401300  0.47612782  1.0
  H  H28  1  0.33376877  0.17927134  0.63109842  1.0
  H  H29  1  0.24314023  0.21918997  0.67647955  1.0
  H  H30  1  0.14695856  0.26726537  0.62845509  1.0
  H  H31  1  0.23767761  0.22726981  0.58310790  1.0
  H  H32  1  0.95720196  0.07633575  0.81932830  1.0
  H  H33  1  0.95193714  0.98828945  0.82196159  1.0
  H  H34  1  0.85589072  0.03621838  0.77393700  1.0
  H  H35  1  0.86108208  0.12432472  0.77127823  1.0
  H  H36  1  0.16615769  0.21374674  0.97600960  1.0
  H  H37  1  0.25693158  0.12567048  0.97862209  1.0
  H  H38  1  0.35293071  0.17372078  0.93060155  1.0
  H  H39  1  0.26222507  0.26175328  0.92797976  1.0
  H  H40  1  0.25692127  0.03109822  0.07348248  1.0
  H  H41  1  0.16603197  0.07128520  0.11880017  1.0
  H  H42  1  0.26201194  0.02316244  0.16689901  1.0
  H  H43  1  0.35279178  0.98306906  0.12159333  1.0
  H  H44  1  0.95195212  0.72702577  0.08311157  1.0
  H  H45  1  0.95727193  0.76710849  0.12843907  1.0
  H  H46  1  0.86125757  0.71907335  0.17650308  1.0
  H  H47  1  0.85595246  0.67896019  0.13118460  1.0
  C  C48  1  0.86249580  0.56822013  0.43111480  1.0
  C  C49  1  0.12335437  0.31556726  0.43861304  1.0
  C  C50  1  0.86336871  0.43051110  0.56855373  1.0
  C  C51  1  0.13801489  0.43200534  0.56845584  1.0
  C  C52  1  0.87651531  0.68399259  0.56095002  1.0
  C  C53  1  0.13746208  0.56891730  0.43096280  1.0
  C  C54  1  0.63865838  0.31797075  0.68140405  1.0
  C  C55  1  0.37733955  0.43428094  0.81109636  1.0
  C  C56  1  0.63631115  0.18152257  0.81934837  1.0
  C  C57  1  0.36195884  0.18121151  0.81825568  1.0
  C  C58  1  0.62313027  0.06597100  0.68860649  1.0
  C  C59  1  0.36330322  0.31924666  0.68082380  1.0
  C  C60  1  0.36303185  0.68073470  0.31872465  1.0
  C  C61  1  0.62290677  0.56591216  0.18832850  1.0
  C  C62  1  0.63792393  0.68083135  0.31837565  1.0
  C  C63  1  0.63646958  0.81939949  0.18097352  1.0
  C  C64  1  0.37703177  0.93313022  0.31172966  1.0
  C  C65  1  0.36201549  0.81855448  0.18122955  1.0
  C  C66  1  0.13733974  0.93079502  0.06867819  1.0
  C  C67  1  0.87906245  0.18390129  0.06128469  1.0
  C  C68  1  0.86151976  0.93191904  0.06890331  1.0
  C  C69  1  0.86183226  0.06908540  0.93147480  1.0
  C  C70  1  0.12156967  0.81580789  0.93891984  1.0
  C  C71  1  0.13751234  0.06817149  0.93093237  1.0
  C  C72  1  0.73744785  0.80289558  0.60099909  1.0
  C  C73  1  0.76232948  0.94673701  0.64901863  1.0
  C  C74  1  0.82553728  0.75846820  0.58612597  1.0
  C  C75  1  0.67418370  0.99118330  0.66376264  1.0
  C  C76  1  0.78537529  0.87804116  0.62607488  1.0
  C  C77  1  0.71440519  0.87159406  0.62389565  1.0
  C  C78  1  0.20206568  0.22671858  0.36898703  1.0
  C  C79  1  0.29825740  0.02237165  0.38127594  1.0
  C  C80  1  0.17266397  0.24159049  0.41309630  1.0
  C  C81  1  0.32774473  0.00725613  0.33722957  1.0
  C  C82  1  0.25242879  0.10238838  0.39284956  1.0
  C  C83  1  0.24793972  0.14661445  0.35742333  1.0
  C  C84  1  0.69670900  0.34488980  0.65286160  1.0
  C  C85  1  0.80804599  0.40079019  0.59707695  1.0
  C  C86  1  0.66623414  0.41721048  0.63640482  1.0
  C  C87  1  0.83964295  0.32767750  0.61346079  1.0
  C  C88  1  0.71924941  0.44380502  0.60985607  1.0
  C  C89  1  0.78620593  0.30083661  0.64020795  1.0
  C  C90  1  0.58557406  0.49014074  0.63595173  1.0
  C  C91  1  0.64571182  0.52031775  0.60585843  1.0
  C  C92  1  0.30581831  0.65209457  0.34628676  1.0
  C  C93  1  0.19423431  0.59646434  0.40190982  1.0
  C  C94  1  0.28020359  0.66358837  0.39064948  1.0
  C  C95  1  0.21956244  0.58435702  0.35715142  1.0
  C  C96  1  0.22707418  0.63713676  0.41713630  1.0
  C  C97  1  0.27311967  0.61115137  0.33041480  1.0
  C  C98  1  0.28836234  0.69922653  0.42738366  1.0
  C  C99  1  0.22809422  0.66914261  0.45745477  1.0
  C  C100  1  0.69608047  0.65215815  0.34608570  1.0
  C  C101  1  0.80737590  0.59633013  0.40195494  1.0
  C  C102  1  0.66564928  0.66368451  0.39047448  1.0
  C  C103  1  0.83907668  0.58433757  0.35719173  1.0
  C  C104  1  0.71863349  0.63713715  0.41703412  1.0
  C  C105  1  0.78557904  0.61119783  0.33039062  1.0
  C  C106  1  0.58503385  0.69934841  0.42720801  1.0
  C  C107  1  0.64524070  0.66919499  0.45731984  1.0
  C  C108  1  0.30587953  0.34933048  0.65278387  1.0
  C  C109  1  0.19431678  0.40515300  0.59707560  1.0
  C  C110  1  0.27272811  0.30634008  0.64013938  1.0
  C  C111  1  0.22706473  0.44926289  0.60971210  1.0
  C  C112  1  0.21961282  0.33290084  0.61361194  1.0
  C  C113  1  0.28059973  0.42248856  0.63644268  1.0
  C  C114  1  0.27175297  0.22982515  0.64419376  1.0
  C  C115  1  0.21152263  0.25992867  0.61411066  1.0
  C  C116  1  0.29814134  0.58318973  0.82086765  1.0
  C  C117  1  0.20197352  0.66689121  0.92919223  1.0
  C  C118  1  0.32758452  0.50955567  0.83538292  1.0
  C  C119  1  0.17229195  0.74049352  0.91465395  1.0
  C  C120  1  0.24787137  0.60952139  0.89492701  1.0
  C  C121  1  0.25229954  0.64056516  0.85510573  1.0
  C  C122  1  0.80355437  0.09818948  0.90387602  1.0
  C  C123  1  0.69183769  0.15388560  0.84831249  1.0
  C  C124  1  0.83380029  0.08674948  0.85949753  1.0
  C  C125  1  0.66045394  0.16586996  0.89304833  1.0
  C  C126  1  0.78065797  0.11328337  0.83300265  1.0
  C  C127  1  0.71405583  0.13918297  0.91975899  1.0
  C  C128  1  0.91437665  0.05110236  0.82278472  1.0
  C  C129  1  0.85414563  0.08116617  0.79269796  1.0
  C  C130  1  0.19407267  0.09606570  0.90181754  1.0
  C  C131  1  0.30550387  0.15185834  0.84600000  1.0
  C  C132  1  0.22711036  0.13667957  0.91695747  1.0
  C  C133  1  0.27270856  0.11085786  0.83029172  1.0
  C  C134  1  0.28015242  0.16325392  0.89039771  1.0
  C  C135  1  0.21918610  0.08414022  0.85706759  1.0
  C  C136  1  0.22815739  0.16884742  0.95723057  1.0
  C  C137  1  0.28836066  0.19893515  0.92711698  1.0
  C  C138  1  0.64238144  0.44670491  0.14896309  1.0
  C  C139  1  0.85918464  0.30298714  0.10098505  1.0
  C  C140  1  0.67149032  0.49107576  0.16368418  1.0
  C  C141  1  0.83038321  0.25856397  0.08615845  1.0
  C  C142  1  0.79061713  0.37159735  0.12389053  1.0
  C  C143  1  0.71103808  0.37800208  0.12605804  1.0
  C  C144  1  0.19404803  0.90106618  0.09705858  1.0
  C  C145  1  0.30544366  0.84538362  0.15279933  1.0
  C  C146  1  0.22698157  0.94417208  0.10978823  1.0
  C  C147  1  0.27279326  0.80113575  0.14017970  1.0
  C  C148  1  0.27996433  0.91766097  0.13634957  1.0
  C  C149  1  0.21922807  0.82794226  0.11344099  1.0
  C  C150  1  0.22803321  0.02066322  0.10576153  1.0
  C  C151  1  0.28817785  0.99052980  0.13589379  1.0
  C  C152  1  0.80338970  0.90491451  0.09715225  1.0
  C  C153  1  0.69191198  0.84925799  0.15281154  1.0
  C  C154  1  0.83380665  0.83259725  0.11360107  1.0
  C  C155  1  0.66039882  0.92240489  0.13648166  1.0
  C  C156  1  0.78072694  0.80607915  0.14013519  1.0
  C  C157  1  0.71390961  0.94916760  0.10974650  1.0
  C  C158  1  0.91441174  0.75969491  0.11411499  1.0
  C  C159  1  0.85423274  0.72959395  0.14422924  1.0
  S  S160  1  0.87995991  0.80067121  0.60023848  1.0
  S  S161  1  0.61980183  0.94898076  0.64962931  1.0
  S  S162  1  0.20096482  0.15800107  0.44020915  1.0
  S  S163  1  0.29949369  0.09083620  0.31008605  1.0
  S  S164  1  0.29926910  0.51067016  0.89074776  1.0
  S  S165  1  0.20067871  0.73943835  0.85930226  1.0
  S  S166  1  0.78217690  0.44890032  0.14962640  1.0
  S  S167  1  0.71964783  0.30064748  0.10023679  1.0
  Cl  Cl168  1  0.66258123  0.78149415  0.59383155  1.0
  Cl  Cl169  1  0.83702897  0.96832391  0.65611564  1.0
  Cl  Cl170  1  0.18768151  0.29279621  0.33174852  1.0
  Cl  Cl171  1  0.31255492  0.95631764  0.41868076  1.0
  Cl  Cl172  1  0.31234236  0.60614592  0.76915672  1.0
  Cl  Cl173  1  0.18765971  0.64394355  0.98088273  1.0
  Cl  Cl174  1  0.53908422  0.46826601  0.15612781  1.0
  Cl  Cl175  1  0.96263581  0.28154570  0.09382105  1.0
  O  O176  1  0.99937133  0.50021134  0.50091324  1.0
  O  O177  1  0.82372587  0.58408484  0.47091067  1.0
  O  O178  1  0.10247873  0.37618247  0.41846419  1.0
  O  O179  1  0.94339389  0.38724937  0.55863468  1.0
  O  O180  1  0.94242858  0.53116618  0.41434826  1.0
  O  O181  1  0.82414261  0.49796061  0.55652508  1.0
  O  O182  1  0.10593610  0.31206768  0.47912926  1.0
  O  O183  1  0.11551917  0.38404749  0.55957033  1.0
  O  O184  1  0.95741865  0.65724311  0.55134256  1.0
  O  O185  1  0.11742045  0.49896677  0.55540577  1.0
  O  O186  1  0.83646259  0.65316792  0.55100421  1.0
  O  O187  1  0.11225951  0.53096832  0.41421899  1.0
  O  O188  1  0.11902312  0.58622421  0.47069676  1.0
  O  O189  1  0.49933687  0.24968685  0.75026362  1.0
  O  O190  1  0.67188897  0.25124425  0.69472041  1.0
  O  O191  1  0.39930652  0.43408008  0.77069436  1.0
  O  O192  1  0.55623952  0.21861387  0.83587701  1.0
  O  O193  1  0.55924144  0.36562727  0.69000015  1.0
  O  O194  1  0.67551789  0.16487588  0.77963710  1.0
  O  O195  1  0.39407636  0.37544537  0.83319729  1.0
  O  O196  1  0.38448429  0.21853145  0.83776929  1.0
  O  O197  1  0.54218957  0.09423357  0.69698186  1.0
  O  O198  1  0.38269626  0.16716153  0.77824730  1.0
  O  O199  1  0.66329390  0.09569873  0.69948899  1.0
  O  O200  1  0.38983919  0.36273435  0.69084457  1.0
  O  O201  1  0.38091977  0.25128481  0.69225905  1.0
  O  O202  1  0.50072786  0.75086159  0.25026032  1.0
  O  O203  1  0.38695915  0.71699027  0.33811632  1.0
  O  O204  1  0.54212623  0.59593648  0.19868010  1.0
  O  O205  1  0.67126919  0.66754087  0.27838624  1.0
  O  O206  1  0.38328357  0.66688233  0.27876694  1.0
  O  O207  1  0.55842844  0.71663752  0.33799084  1.0
  O  O208  1  0.66686044  0.59420301  0.19712109  1.0
  O  O209  1  0.67554022  0.75135790  0.19229761  1.0
  O  O210  1  0.39411210  0.93720951  0.27128951  1.0
  O  O211  1  0.55641959  0.86297414  0.19122728  1.0
  O  O212  1  0.39794243  0.87236031  0.33177580  1.0
  O  O213  1  0.38325596  0.75123559  0.19379053  1.0
  O  O214  1  0.38429804  0.86643259  0.19049888  1.0
  O  O215  1  0.00072405  0.00019051  0.99964978  1.0
  O  O216  1  0.11011925  0.88760501  0.05904199  1.0
  O  O217  1  0.95993858  0.15307310  0.05100791  1.0
  O  O218  1  0.82840818  0.99921274  0.05626399  1.0
  O  O219  1  0.12113746  0.99813277  0.05647604  1.0
  O  O220  1  0.94091729  0.88393539  0.05989461  1.0
  O  O221  1  0.83437225  0.15675636  0.05224936  1.0
  O  O222  1  0.82853874  0.08402380  0.97141077  1.0
  O  O223  1  0.10276327  0.87458736  0.91674439  1.0
  O  O224  1  0.94120492  0.03122682  0.91201489  1.0
  O  O225  1  0.10081731  0.81602471  0.97930462  1.0
  O  O226  1  0.12126008  0.08389566  0.97066044  1.0
  O  O227  1  0.11063621  0.03168644  0.91425350  1.0
  F  F228  1  0.92387110  0.27886634  0.60432838  1.0
  F  F229  1  0.82600856  0.22972264  0.65328889  1.0
  F  F230  1  0.19357011  0.54612018  0.33728872  1.0
  F  F231  1  0.29154465  0.59519097  0.28836067  1.0
  F  F232  1  0.92319646  0.54604783  0.33737908  1.0
  F  F233  1  0.82536338  0.59521341  0.28832083  1.0
  F  F234  1  0.20889599  0.52034326  0.59654657  1.0
  F  F235  1  0.30689122  0.47135620  0.64552803  1.0
  F  F236  1  0.57624917  0.20393216  0.91291631  1.0
  F  F237  1  0.67445768  0.15505118  0.96183089  1.0
  F  F238  1  0.29093736  0.09495413  0.78818029  1.0
  F  F239  1  0.19294031  0.04601616  0.83720574  1.0
  F  F240  1  0.29104278  0.73010209  0.15325334  1.0
  F  F241  1  0.19307128  0.77906617  0.10428003  1.0
  F  F242  1  0.57616964  0.97129036  0.14563173  1.0
  F  F243  1  0.67431617  0.02020567  0.09662897  1.0
