# generated using pymatgen
data_Al2H16C22N4O11
_symmetry_space_group_name_H-M   'P 1'
_cell_length_a   6.71838018
_cell_length_b   11.14862187
_cell_length_c   16.75892028
_cell_angle_alpha   99.98555696
_cell_angle_beta   94.95441280
_cell_angle_gamma   107.51153328
_symmetry_Int_Tables_number   1
_chemical_formula_structural   Al2H16C22N4O11
_chemical_formula_sum   'Al2 H16 C22 N4 O11'
_cell_volume   1166.05126986
_cell_formula_units_Z   1
loop_
 _symmetry_equiv_pos_site_id
 _symmetry_equiv_pos_as_xyz
  1  'x, y, z'
loop_
 _atom_site_type_symbol
 _atom_site_label
 _atom_site_symmetry_multiplicity
 _atom_site_fract_x
 _atom_site_fract_y
 _atom_site_fract_z
 _atom_site_occupancy
  Al  Al0  1  0.00052365  0.49953705  0.49976376  1.0
  Al  Al1  1  0.49796357  0.49407329  0.49956676  1.0
  H  H2  1  0.15535914  0.34752068  0.43122703  1.0
  H  H3  1  0.83337034  0.63286085  0.58476916  1.0
  H  H4  1  0.57247749  0.43294664  0.72134498  1.0
  H  H5  1  0.64453995  0.42695119  0.87045892  1.0
  H  H6  1  0.09861679  0.54069178  0.91243894  1.0
  H  H7  1  0.94459207  0.54713768  0.09995398  1.0
  H  H8  1  0.27803938  0.43155893  0.11086990  1.0
  H  H9  1  0.35475387  0.43148493  0.26046104  1.0
  H  H10  1  0.24174486  0.11506548  0.50270384  1.0
  H  H11  1  0.88045076  0.11446936  0.49221349  1.0
  H  H12  1  0.13030263  0.88233758  0.50558594  1.0
  H  H13  1  0.94514612  0.53776537  0.69833173  1.0
  H  H14  1  0.88475321  0.56481722  0.79814266  1.0
  H  H15  1  0.09690781  0.54825469  0.31441464  1.0
  H  H16  1  0.18489316  0.57580091  0.22140369  1.0
  H  H17  1  0.72499806  0.78062032  0.49305262  1.0
  C  C18  1  0.63401773  0.26823844  0.49513944  1.0
  C  C19  1  0.71607377  0.48996997  0.35333900  1.0
  C  C20  1  0.36800864  0.72840691  0.50331134  1.0
  C  C21  1  0.28260802  0.50305746  0.64626032  1.0
  C  C22  1  0.30291750  0.49479043  0.73321725  1.0
  C  C23  1  0.47384496  0.45961653  0.76489420  1.0
  C  C24  1  0.51496910  0.45646539  0.84646831  1.0
  C  C25  1  0.37894314  0.48980400  0.89971979  1.0
  C  C26  1  0.20321875  0.51897206  0.86982209  1.0
  C  C27  1  0.15982292  0.52224503  0.78623804  1.0
  C  C28  1  0.81673825  0.52354142  0.13647965  1.0
  C  C29  1  0.61021796  0.49335063  0.09851728  1.0
  C  C30  1  0.43860215  0.45942760  0.14256904  1.0
  C  C31  1  0.48216512  0.45899168  0.22441633  1.0
  C  C32  1  0.68983240  0.49181922  0.26549652  1.0
  C  C33  1  0.86322827  0.52482249  0.22076033  1.0
  C  C34  1  0.44004213  0.86618534  0.50089758  1.0
  C  C35  1  0.56777784  0.12853792  0.49701854  1.0
  C  C36  1  0.65402504  0.93231326  0.49621616  1.0
  C  C37  1  0.35535596  0.06311613  0.50098157  1.0
  C  C38  1  0.71590702  0.06370836  0.49490411  1.0
  C  C39  1  0.29403818  0.93375120  0.50295141  1.0
  N  N40  1  0.40509309  0.49273686  0.98471869  1.0
  N  N41  1  0.58719904  0.49585909  0.01414597  1.0
  N  N42  1  0.98966528  0.55461285  0.75979148  1.0
  N  N43  1  0.06726993  0.55861567  0.25597088  1.0
  O  O44  1  0.82689480  0.32407720  0.48985743  1.0
  O  O45  1  0.55321195  0.47747940  0.38947597  1.0
  O  O46  1  0.50776938  0.66976158  0.49981878  1.0
  O  O47  1  0.10526627  0.50482008  0.61145536  1.0
  O  O48  1  0.17600308  0.67404956  0.50880832  1.0
  O  O49  1  0.44518435  0.51017455  0.61044713  1.0
  O  O50  1  0.49117031  0.32194946  0.49878736  1.0
  O  O51  1  0.89934059  0.50005416  0.38926121  1.0
  O  O52  1  0.20937449  0.43650356  0.46034641  1.0
  O  O53  1  0.78838187  0.55978258  0.53903994  1.0
  O  O54  1  0.80179923  0.87285337  0.49278964  1.0
