# generated using pymatgen
data_Zn4H24C36O13
_symmetry_space_group_name_H-M   'P 1'
_cell_length_a   18.58986979
_cell_length_b   18.58966613
_cell_length_c   18.58984144
_cell_angle_alpha   59.99967831
_cell_angle_beta   60.00002732
_cell_angle_gamma   59.99952498
_symmetry_Int_Tables_number   1
_chemical_formula_structural   Zn4H24C36O13
_chemical_formula_sum   'Zn8 H48 C72 O26'
_cell_volume   4542.61677392
_cell_formula_units_Z   2
loop_
 _symmetry_equiv_pos_site_id
 _symmetry_equiv_pos_as_xyz
  1  'x, y, z'
loop_
 _atom_site_type_symbol
 _atom_site_label
 _atom_site_symmetry_multiplicity
 _atom_site_fract_x
 _atom_site_fract_y
 _atom_site_fract_z
 _atom_site_occupancy
  Zn  Zn0  1  0.29306281  0.29307018  0.29306622  1.0
  Zn  Zn1  1  0.29306271  0.12080500  0.29306635  1.0
  Zn  Zn2  1  0.12083306  0.29305239  0.29305642  1.0
  Zn  Zn3  1  0.29306153  0.29307124  0.12080074  1.0
  Zn  Zn4  1  0.70693731  0.70693100  0.70693429  1.0
  Zn  Zn5  1  0.70693740  0.87919556  0.70693287  1.0
  Zn  Zn6  1  0.70693595  0.70693206  0.87919734  1.0
  Zn  Zn7  1  0.87917100  0.70694498  0.70694134  1.0
  H  H8  1  0.49998223  0.87996820  0.40412055  1.0
  H  H9  1  0.40411881  0.21593158  0.49997999  1.0
  H  H10  1  0.21592699  0.40411963  0.87997115  1.0
  H  H11  1  0.87996955  0.49998383  0.21592754  1.0
  H  H12  1  0.49998038  0.40411904  0.21593110  1.0
  H  H13  1  0.40411936  0.49998190  0.87996921  1.0
  H  H14  1  0.21592897  0.87997129  0.49998068  1.0
  H  H15  1  0.87996823  0.21592936  0.40411992  1.0
  H  H16  1  0.49997892  0.21593221  0.87997095  1.0
  H  H17  1  0.40412142  0.87996778  0.21592867  1.0
  H  H18  1  0.21592839  0.49998188  0.40411958  1.0
  H  H19  1  0.87997017  0.40411968  0.49998182  1.0
  H  H20  1  0.59587809  0.12003238  0.50001698  1.0
  H  H21  1  0.50001977  0.78406815  0.59588305  1.0
  H  H22  1  0.12003054  0.59588189  0.78406904  1.0
  H  H23  1  0.78407249  0.50001847  0.12002914  1.0
  H  H24  1  0.78407304  0.59588092  0.50001790  1.0
  H  H25  1  0.12003060  0.50001736  0.59588092  1.0
  H  H26  1  0.50001718  0.12003195  0.78407125  1.0
  H  H27  1  0.59588008  0.78406942  0.12003036  1.0
  H  H28  1  0.12003191  0.78407120  0.50001725  1.0
  H  H29  1  0.78407244  0.12002821  0.59588098  1.0
  H  H30  1  0.59587929  0.50001908  0.78407062  1.0
  H  H31  1  0.50001923  0.59588175  0.12003031  1.0
  H  H32  1  0.50001722  0.12003196  0.59588027  1.0
  H  H33  1  0.59587998  0.78406942  0.50002074  1.0
  H  H34  1  0.78407247  0.59588115  0.12002828  1.0
  H  H35  1  0.12003122  0.50001837  0.78406945  1.0
  H  H36  1  0.50001907  0.59588174  0.78406941  1.0
  H  H37  1  0.59587945  0.50001847  0.12003183  1.0
  H  H38  1  0.78407246  0.12002821  0.50001894  1.0
  H  H39  1  0.12003188  0.78407119  0.59587984  1.0
  H  H40  1  0.50001988  0.78406816  0.12002955  1.0
  H  H41  1  0.59587804  0.12003237  0.78407269  1.0
  H  H42  1  0.78407369  0.50001740  0.59588090  1.0
  H  H43  1  0.12003126  0.59588044  0.50001803  1.0
  H  H44  1  0.40412135  0.87996778  0.49998277  1.0
  H  H45  1  0.49997837  0.21593244  0.40411821  1.0
  H  H46  1  0.87996957  0.40411991  0.21592848  1.0
  H  H47  1  0.21592763  0.49998271  0.87996976  1.0
  H  H48  1  0.21592773  0.40411880  0.49998248  1.0
  H  H49  1  0.87996951  0.49998320  0.40411829  1.0
  H  H50  1  0.49998228  0.87996820  0.21592957  1.0
  H  H51  1  0.40411874  0.21593157  0.87997036  1.0
  H  H52  1  0.87996821  0.21592936  0.49998250  1.0
  H  H53  1  0.21592899  0.87997129  0.40411918  1.0
  H  H54  1  0.40411951  0.49998192  0.21592957  1.0
  H  H55  1  0.49998023  0.40411902  0.87997020  1.0
  C  C56  1  0.47334867  0.96371885  0.47334874  1.0
  C  C57  1  0.46993651  0.88571257  0.46993656  1.0
  C  C58  1  0.47334960  0.08958305  0.47334904  1.0
  C  C59  1  0.46993563  0.17441595  0.46993574  1.0
  C  C60  1  0.08958118  0.47335153  0.96371794  1.0
  C  C61  1  0.17441337  0.46993778  0.88571199  1.0
  C  C62  1  0.96372408  0.47334782  0.08958207  1.0
  C  C63  1  0.88571406  0.46993690  0.17441342  1.0
  C  C64  1  0.47334894  0.47334829  0.08958343  1.0
  C  C65  1  0.46993624  0.46993592  0.17441516  1.0
  C  C66  1  0.47334874  0.47334827  0.96372009  1.0
  C  C67  1  0.46993607  0.46993653  0.88571256  1.0
  C  C68  1  0.08958244  0.96371918  0.47334954  1.0
  C  C69  1  0.17441381  0.88571382  0.46993653  1.0
  C  C70  1  0.96372012  0.08958350  0.47334845  1.0
  C  C71  1  0.88571280  0.17441466  0.46993654  1.0
  C  C72  1  0.47334949  0.08958304  0.96371853  1.0
  C  C73  1  0.46993554  0.17441594  0.88571341  1.0
  C  C74  1  0.47334942  0.96371864  0.08958350  1.0
  C  C75  1  0.46993658  0.88571257  0.17441437  1.0
  C  C76  1  0.08958196  0.47335008  0.47334992  1.0
  C  C77  1  0.17441346  0.46993717  0.46993732  1.0
  C  C78  1  0.96372465  0.47334759  0.47334472  1.0
  C  C79  1  0.88571400  0.46993689  0.46993561  1.0
  C  C80  1  0.52665013  0.03628090  0.52665153  1.0
  C  C81  1  0.53006229  0.11428843  0.53006363  1.0
  C  C82  1  0.52665053  0.91041564  0.52665218  1.0
  C  C83  1  0.53006384  0.82558420  0.53006507  1.0
  C  C84  1  0.03627605  0.52665335  0.91041737  1.0
  C  C85  1  0.11428671  0.53006530  0.82558357  1.0
  C  C86  1  0.91041761  0.52665009  0.03628248  1.0
  C  C87  1  0.82558872  0.53006274  0.11428679  1.0
  C  C88  1  0.91041815  0.52664986  0.52664853  1.0
  C  C89  1  0.82558929  0.53006251  0.53006155  1.0
  C  C90  1  0.03627679  0.52665314  0.52665213  1.0
  C  C91  1  0.11428678  0.53006406  0.53006415  1.0
  C  C92  1  0.52665005  0.03628089  0.91041763  1.0
  C  C93  1  0.53006222  0.11428842  0.82558582  1.0
  C  C94  1  0.52665064  0.91041565  0.03628161  1.0
  C  C95  1  0.53006392  0.82558359  0.11428772  1.0
  C  C96  1  0.03628065  0.91041684  0.52665162  1.0
  C  C97  1  0.11428798  0.82558505  0.53006384  1.0
  C  C98  1  0.91041834  0.03627991  0.52665115  1.0
  C  C99  1  0.82558697  0.11428590  0.53006385  1.0
  C  C100  1  0.52665052  0.52665186  0.91041686  1.0
  C  C101  1  0.53006322  0.53006423  0.82558566  1.0
  C  C102  1  0.52665072  0.52665188  0.03628073  1.0
  C  C103  1  0.53006338  0.53006425  0.11428741  1.0
  C  C104  1  0.38749922  0.11250454  0.38750190  1.0
  C  C105  1  0.44382313  0.05617831  0.44382145  1.0
  C  C106  1  0.11251084  0.38750077  0.11248974  1.0
  C  C107  1  0.05618100  0.44382089  0.05617944  1.0
  C  C108  1  0.38750261  0.38750438  0.11249667  1.0
  C  C109  1  0.44382245  0.44382142  0.05617822  1.0
  C  C110  1  0.11250284  0.11249252  0.38750309  1.0
  C  C111  1  0.05617576  0.05617914  0.44382280  1.0
  C  C112  1  0.38749929  0.11250454  0.11249468  1.0
  C  C113  1  0.44382321  0.05617770  0.05617774  1.0
  C  C114  1  0.11251012  0.38749974  0.38749834  1.0
  C  C115  1  0.05618158  0.44381942  0.44381794  1.0
  C  C116  1  0.61249891  0.88749854  0.61249812  1.0
  C  C117  1  0.55617567  0.94382144  0.55618044  1.0
  C  C118  1  0.88749192  0.61249829  0.88750836  1.0
  C  C119  1  0.94382043  0.55617922  0.94382149  1.0
  C  C120  1  0.88749198  0.61249829  0.61250007  1.0
  C  C121  1  0.94382183  0.55617817  0.55617788  1.0
  C  C122  1  0.61249885  0.88749916  0.88750395  1.0
  C  C123  1  0.55617625  0.94382183  0.94382285  1.0
  C  C124  1  0.88749727  0.88750804  0.61249720  1.0
  C  C125  1  0.94382436  0.94382142  0.55617749  1.0
  C  C126  1  0.61249883  0.61249449  0.88750326  1.0
  C  C127  1  0.55617702  0.55617811  0.94382291  1.0
  O  O128  1  0.25001162  0.24999766  0.24999556  1.0
  O  O129  1  0.74998850  0.75000352  0.75000388  1.0
  O  O130  1  0.36568301  0.19577740  0.36568489  1.0
  O  O131  1  0.36567795  0.07286268  0.36568488  1.0
  O  O132  1  0.07286625  0.36567472  0.19578711  1.0
  O  O133  1  0.19577251  0.36569142  0.07284633  1.0
  O  O134  1  0.36567923  0.36568600  0.07285926  1.0
  O  O135  1  0.36568118  0.36568410  0.19577583  1.0
  O  O136  1  0.07286609  0.19577738  0.36567796  1.0
  O  O137  1  0.19577583  0.07284918  0.36568879  1.0
  O  O138  1  0.36567733  0.07286229  0.19577592  1.0
  O  O139  1  0.36568241  0.19577763  0.07285525  1.0
  O  O140  1  0.07286686  0.36567388  0.36567087  1.0
  O  O141  1  0.19577376  0.36569036  0.36568897  1.0
  O  O142  1  0.63431777  0.80422107  0.63431557  1.0
  O  O143  1  0.63431953  0.92713751  0.63431745  1.0
  O  O144  1  0.80422366  0.63430734  0.92715414  1.0
  O  O145  1  0.92712927  0.63432178  0.80422665  1.0
  O  O146  1  0.92712931  0.63432116  0.63432178  1.0
  O  O147  1  0.80422373  0.63430735  0.63431352  1.0
  O  O148  1  0.63431836  0.80422209  0.92714459  1.0
  O  O149  1  0.63432016  0.92713790  0.80422533  1.0
  O  O150  1  0.80422494  0.92714619  0.63431430  1.0
  O  O151  1  0.92713534  0.80422336  0.63432050  1.0
  O  O152  1  0.63432023  0.63431415  0.92714210  1.0
  O  O153  1  0.63432091  0.63431394  0.80422366  1.0
