# generated using pymatgen
data_AlH9C27N7(ClO2)3
_symmetry_space_group_name_H-M   'P 1'
_cell_length_a   3.94410498
_cell_length_b   17.47885053
_cell_length_c   18.16394656
_cell_angle_alpha   118.32355532
_cell_angle_beta   95.98681743
_cell_angle_gamma   90.87649258
_symmetry_Int_Tables_number   1
_chemical_formula_structural   AlH9C27N7(ClO2)3
_chemical_formula_sum   'Al1 H9 C27 N7 Cl3 O6'
_cell_volume   1093.26680092
_cell_formula_units_Z   1
loop_
 _symmetry_equiv_pos_site_id
 _symmetry_equiv_pos_as_xyz
  1  'x, y, z'
loop_
 _atom_site_type_symbol
 _atom_site_label
 _atom_site_symmetry_multiplicity
 _atom_site_fract_x
 _atom_site_fract_y
 _atom_site_fract_z
 _atom_site_occupancy
  Al  Al0  1  0.99849258  0.00027042  0.50574475  1.0
  H  H1  1  0.84761621  0.31119280  0.89500296  1.0
  H  H2  1  0.39668620  0.08578932  0.19215304  1.0
  H  H3  1  0.04839610  0.60557410  0.41246220  1.0
  H  H4  1  0.77220501  0.32067905  0.41864070  1.0
  H  H5  1  0.30478749  0.01213003  0.27909089  1.0
  H  H6  1  0.21115441  0.76625418  0.48959316  1.0
  H  H7  1  0.27442609  0.59721294  0.18227057  1.0
  H  H8  1  0.54400406  0.07666969  0.90035046  1.0
  H  H9  1  0.75849980  0.23016682  0.73686517  1.0
  C  C10  1  0.56482488  0.06150314  0.63571614  1.0
  C  C11  1  0.48145295  0.07297839  0.44328749  1.0
  C  C12  1  0.44169502  0.86678900  0.43364354  1.0
  C  C13  1  0.76438188  0.24211696  0.86081837  1.0
  C  C14  1  0.70149670  0.19865901  0.90676802  1.0
  C  C15  1  0.45855288  0.12023757  0.26047490  1.0
  C  C16  1  0.59320793  0.20732719  0.30037355  1.0
  C  C17  1  0.15547489  0.59182228  0.29299282  1.0
  C  C18  1  0.13941793  0.63922126  0.38014026  1.0
  C  C19  1  0.67400736  0.25275872  0.38830113  1.0
  C  C20  1  0.63197705  0.21114001  0.43600274  1.0
  C  C21  1  0.50059604  0.12340180  0.39658326  1.0
  C  C22  1  0.40865730  0.07970670  0.30874688  1.0
  C  C23  1  0.23186661  0.72778655  0.42256522  1.0
  C  C24  1  0.35455576  0.77110848  0.38109697  1.0
  C  C25  1  0.37406424  0.72274915  0.29392780  1.0
  C  C26  1  0.27003095  0.63404046  0.25010476  1.0
  C  C27  1  0.59444566  0.10962274  0.86421527  1.0
  C  C28  1  0.55414937  0.06448268  0.77654099  1.0
  C  C29  1  0.61261074  0.10769554  0.73015294  1.0
  C  C30  1  0.71570014  0.19693197  0.77329446  1.0
  C  C31  1  0.91343547  0.37370881  0.12047544  1.0
  C  C32  1  0.67889218  0.24471527  0.12269007  1.0
  C  C33  1  0.74371117  0.24619039  0.99949448  1.0
  C  C34  1  0.04237212  0.49823389  0.24691256  1.0
  C  C35  1  0.84667253  0.37847792  0.25450246  1.0
  C  C36  1  0.65663569  0.25244964  0.25156618  1.0
  N  N37  1  0.81289101  0.33230710  0.16586358  1.0
  N  N38  1  0.63819444  0.20296265  0.03879272  1.0
  N  N39  1  0.88389308  0.32876605  0.03672754  1.0
  N  N40  1  0.03687028  0.45701262  0.16254112  1.0
  N  N41  1  0.95357801  0.46264943  0.29423910  1.0
  N  N42  1  0.59611085  0.20570087  0.16694915  1.0
  N  N43  1  0.77234696  0.33694456  0.29675084  1.0
  Cl  Cl44  1  0.41929710  0.95503819  0.72532819  1.0
  Cl  Cl45  1  0.50535925  0.77089194  0.23680306  1.0
  Cl  Cl46  1  0.73392603  0.27192268  0.54397913  1.0
  O  O47  1  0.69006666  0.90367998  0.42037831  1.0
  O  O48  1  0.78061452  0.00747247  0.59835890  1.0
  O  O49  1  0.73570575  0.08534599  0.49806589  1.0
  O  O50  1  0.25478457  0.90616598  0.49239346  1.0
  O  O51  1  0.22441396  0.01931966  0.42446247  1.0
  O  O52  1  0.31390012  0.08181515  0.60005512  1.0
