# generated using pymatgen
data_ZnH10C17Br2N3O4
_symmetry_space_group_name_H-M   'P 1'
_cell_length_a   11.00349696
_cell_length_b   15.97760066
_cell_length_c   17.34392699
_cell_angle_alpha   95.95355349
_cell_angle_beta   90.39610644
_cell_angle_gamma   94.18257930
_symmetry_Int_Tables_number   1
_chemical_formula_structural   ZnH10C17Br2N3O4
_chemical_formula_sum   'Zn2 H20 C34 Br4 N6 O8'
_cell_volume   3024.38078294
_cell_formula_units_Z   2
loop_
 _symmetry_equiv_pos_site_id
 _symmetry_equiv_pos_as_xyz
  1  'x, y, z'
loop_
 _atom_site_type_symbol
 _atom_site_label
 _atom_site_symmetry_multiplicity
 _atom_site_fract_x
 _atom_site_fract_y
 _atom_site_fract_z
 _atom_site_occupancy
  Zn  Zn0  1  0.48594309  0.41138537  0.49751705  1.0
  Zn  Zn1  1  0.51414901  0.58861313  0.50246682  1.0
  H  H2  1  0.38924421  0.71007180  0.43557399  1.0
  H  H3  1  0.38046006  0.86729365  0.43237927  1.0
  H  H4  1  0.67933411  0.90162302  0.59792228  1.0
  H  H5  1  0.32063051  0.09839543  0.40203654  1.0
  H  H6  1  0.61924951  0.13266644  0.56778033  1.0
  H  H7  1  0.61063265  0.28988171  0.56449613  1.0
  H  H8  1  0.44490959  0.61013697  0.25779447  1.0
  H  H9  1  0.44301680  0.60405683  0.11240342  1.0
  H  H10  1  0.58293600  0.35892250  0.10073715  1.0
  H  H11  1  0.41725086  0.64121713  0.89931496  1.0
  H  H12  1  0.55678047  0.39596040  0.88755422  1.0
  H  H13  1  0.55487033  0.38993364  0.74216406  1.0
  H  H14  1  0.88033151  0.62425933  0.51279754  1.0
  H  H15  1  0.11974955  0.37555305  0.48691926  1.0
  H  H16  1  0.16666385  0.68866664  0.46932521  1.0
  H  H17  1  0.18408234  0.68138986  0.56925648  1.0
  H  H18  1  0.04541701  0.71559132  0.53282558  1.0
  H  H19  1  0.95457417  0.28424396  0.46663594  1.0
  H  H20  1  0.81551126  0.31848050  0.43081770  1.0
  H  H21  1  0.83395766  0.31104342  0.53065926  1.0
  C  C22  1  0.50408249  0.49868594  0.34864349  1.0
  C  C23  1  0.26488138  0.51217516  0.50242744  1.0
  C  C24  1  0.49598253  0.50147680  0.65136313  1.0
  C  C25  1  0.73517782  0.48769538  0.49744578  1.0
  C  C26  1  0.45131004  0.75565494  0.47015900  1.0
  C  C27  1  0.44662550  0.84173636  0.46862166  1.0
  C  C28  1  0.53048357  0.89552584  0.51533721  1.0
  C  C29  1  0.61394562  0.86083846  0.56146512  1.0
  C  C30  1  0.61082967  0.77303240  0.55951992  1.0
  C  C31  1  0.38601141  0.13917496  0.43852665  1.0
  C  C32  1  0.46934741  0.10446621  0.48472541  1.0
  C  C33  1  0.55319226  0.15823797  0.53146579  1.0
  C  C34  1  0.54860005  0.24432723  0.52989026  1.0
  C  C35  1  0.38924808  0.22697083  0.44040669  1.0
  C  C36  1  0.51113301  0.48823540  0.26152890  1.0
  C  C37  1  0.47357591  0.55512946  0.22206707  1.0
  C  C38  1  0.47280722  0.55222890  0.14211942  1.0
  C  C39  1  0.51215730  0.48040358  0.09830354  1.0
  C  C40  1  0.55151630  0.41347446  0.13585559  1.0
  C  C41  1  0.55086536  0.41722652  0.21652427  1.0
  C  C42  1  0.44862432  0.58666715  0.86418273  1.0
  C  C43  1  0.48786580  0.51968181  0.90170208  1.0
  C  C44  1  0.52710462  0.44783127  0.85786621  1.0
  C  C45  1  0.52632060  0.44497530  0.77792613  1.0
  C  C46  1  0.48893990  0.51193439  0.73848705  1.0
  C  C47  1  0.44926852  0.58295408  0.78351249  1.0
  C  C48  1  0.12827032  0.50996684  0.50192389  1.0
  C  C49  1  0.87179997  0.48987652  0.49787303  1.0
  C  C50  1  0.06175880  0.58269274  0.50981876  1.0
  C  C51  1  0.93831666  0.41713620  0.48998317  1.0
  C  C52  1  0.93488621  0.56978873  0.50728090  1.0
  C  C53  1  0.06521283  0.43004160  0.49247280  1.0
  C  C54  1  0.11744213  0.67203526  0.52117198  1.0
  C  C55  1  0.88260936  0.32778904  0.47864271  1.0
  Br  Br56  1  0.72252747  0.72695426  0.62315326  1.0
  Br  Br57  1  0.27781568  0.27305585  0.37660297  1.0
  Br  Br58  1  0.61284322  0.32306402  0.25915047  1.0
  Br  Br59  1  0.38758431  0.67725492  0.74097561  1.0
  N  N60  1  0.53221507  0.72133282  0.51476235  1.0
  N  N61  1  0.53938110  0.98505483  0.52023289  1.0
  N  N62  1  0.46040354  0.01493675  0.47984800  1.0
  N  N63  1  0.46781894  0.27866751  0.48520018  1.0
  N  N64  1  0.51676326  0.46912758  0.01652314  1.0
  N  N65  1  0.48325058  0.53093438  0.98347680  1.0
  O  O66  1  0.49393148  0.43186670  0.38257093  1.0
  O  O67  1  0.50646561  0.57400469  0.38106143  1.0
  O  O68  1  0.32611090  0.58231545  0.49764202  1.0
  O  O69  1  0.31101358  0.44186357  0.50718075  1.0
  O  O70  1  0.50626523  0.56829497  0.61743253  1.0
  O  O71  1  0.49344788  0.42616140  0.61893987  1.0
  O  O72  1  0.67393982  0.41758821  0.50239283  1.0
  O  O73  1  0.68905420  0.55799300  0.49262085  1.0
