# generated using pymatgen
data_Zn4H35C56I4N16F7
_symmetry_space_group_name_H-M   'P 1'
_cell_length_a   14.58760114
_cell_length_b   15.13887469
_cell_length_c   15.37646376
_cell_angle_alpha   104.96362245
_cell_angle_beta   112.53679140
_cell_angle_gamma   109.55879849
_symmetry_Int_Tables_number   1
_chemical_formula_structural   Zn4H35C56I4N16F7
_chemical_formula_sum   'Zn4 H35 C56 I4 N16 F7'
_cell_volume   2648.00781583
_cell_formula_units_Z   1
loop_
 _symmetry_equiv_pos_site_id
 _symmetry_equiv_pos_as_xyz
  1  'x, y, z'
loop_
 _atom_site_type_symbol
 _atom_site_label
 _atom_site_symmetry_multiplicity
 _atom_site_fract_x
 _atom_site_fract_y
 _atom_site_fract_z
 _atom_site_occupancy
  Zn  Zn0  1  0.64127258  0.56397230  0.62891523  1.0
  Zn  Zn1  1  0.36856222  0.48193252  0.36546691  1.0
  Zn  Zn2  1  0.64980132  0.66944234  0.49257695  1.0
  Zn  Zn3  1  0.36616029  0.33084539  0.49062738  1.0
  H  H4  1  0.89194392  0.71458221  0.84088084  1.0
  H  H5  1  0.32259821  0.42011599  0.98401977  1.0
  H  H6  1  0.47905389  0.39469827  0.91535974  1.0
  H  H7  1  0.62487606  0.68236501  0.99029453  1.0
  H  H8  1  0.49801002  0.68518916  0.92173065  1.0
  H  H9  1  0.46699749  0.70257003  0.06273999  1.0
  H  H10  1  0.60819315  0.72933930  0.13764644  1.0
  H  H11  1  0.92078443  0.24016771  0.42412745  1.0
  H  H12  1  0.67963232  0.81052445  0.69951307  1.0
  H  H13  1  0.77896732  0.27424289  0.44875085  1.0
  H  H14  1  0.78154535  0.48848636  0.21821155  1.0
  H  H15  1  0.30519509  0.47352787  0.13726988  1.0
  H  H16  1  0.94154714  0.46887742  0.20771195  1.0
  H  H17  1  0.03667574  0.56738016  0.34165035  1.0
  H  H18  1  0.31897906  0.97774007  0.60039378  1.0
  H  H19  1  0.32001293  0.81586460  0.59228914  1.0
  H  H20  1  0.77814335  0.01583400  0.78570784  1.0
  H  H21  1  0.73379642  0.97005112  0.64961659  1.0
  H  H22  1  0.77718593  0.18242530  0.79119276  1.0
  H  H23  1  0.30616383  0.40264789  0.65500281  1.0
  H  H24  1  0.73274828  0.13583497  0.65541409  1.0
  H  H25  1  0.13540843  0.02166282  0.83386957  1.0
  H  H26  1  0.71221241  0.53839485  0.34779549  1.0
  H  H27  1  0.28753909  0.16768942  0.00299527  1.0
  H  H28  1  0.18221072  0.92895916  0.19232488  1.0
  H  H29  1  0.00690084  0.78653415  0.02141778  1.0
  H  H30  1  0.66536414  0.62464543  0.85692978  1.0
  H  H31  1  0.10875146  0.25625774  0.45186023  1.0
  H  H32  1  0.92084477  0.89898955  0.66950542  1.0
  H  H33  1  0.34189621  0.14017941  0.32702768  1.0
  H  H34  1  0.33448591  0.32909152  0.15824949  1.0
  H  H35  1  0.68630170  0.36386133  0.52927777  1.0
  H  H36  1  0.65475444  0.71795323  0.30632097  1.0
  H  H37  1  0.30171422  0.52888005  0.98410963  1.0
  H  H38  1  0.11087789  0.44840197  0.28654507  1.0
  C  C39  1  0.88194527  0.74696044  0.78479061  1.0
  C  C40  1  0.68505224  0.41449397  0.49055128  1.0
  C  C41  1  0.39464312  0.16145667  0.56738644  1.0
  C  C42  1  0.12681265  0.40240663  0.32830192  1.0
  C  C43  1  0.56961653  0.66040929  0.28059400  1.0
  C  C44  1  0.48924778  0.15552018  0.63250271  1.0
  C  C45  1  0.47817970  0.58953460  0.17842268  1.0
  C  C46  1  0.72182580  0.42689405  0.41974431  1.0
  C  C47  1  0.31651260  0.19437695  0.19961183  1.0
  C  C48  1  0.35579254  0.47965481  0.87809644  1.0
  C  C49  1  0.35724666  0.49521570  0.98161002  1.0
  C  C50  1  0.06116300  0.34658529  0.36243989  1.0
  C  C51  1  0.53591895  0.47937014  0.95877112  1.0
  C  C52  1  0.53522669  0.64933048  0.96821680  1.0
  C  C53  1  0.47758723  0.53025552  0.89592171  1.0
  C  C54  1  0.59149966  0.75656286  0.63855678  1.0
  C  C55  1  0.47764853  0.56898946  0.07731693  1.0
  C  C56  1  0.55270678  0.51781039  0.06955904  1.0
  C  C57  1  0.52561355  0.67115660  0.06687402  1.0
  C  C58  1  0.92545198  0.41590503  0.32771558  1.0
  C  C59  1  0.96079342  0.34846969  0.35892199  1.0
  C  C60  1  0.90017080  0.29567023  0.39909841  1.0
  C  C61  1  0.49771109  0.77315111  0.61195564  1.0
  C  C62  1  0.81855822  0.31531850  0.41336578  1.0
  C  C63  1  0.78918097  0.38922874  0.38822246  1.0
  C  C64  1  0.84328600  0.43451099  0.34058039  1.0
  C  C65  1  0.85526998  0.51174888  0.29382994  1.0
  C  C66  1  0.39646530  0.45284590  0.69079865  1.0
  C  C67  1  0.95353974  0.49655212  0.28683468  1.0
  C  C68  1  0.59535448  0.05915928  0.68406767  1.0
  C  C69  1  0.49594629  0.06750795  0.65017721  1.0
  C  C70  1  0.39898805  0.97662857  0.62324435  1.0
  C  C71  1  0.39959194  0.88348976  0.61871554  1.0
  C  C72  1  0.48130967  0.51611462  0.79710145  1.0
  C  C73  1  0.49813935  0.87308974  0.64240366  1.0
  C  C74  1  0.59598043  0.96636989  0.68053078  1.0
  C  C75  1  0.71943048  0.00925893  0.71027135  1.0
  C  C76  1  0.71893921  0.11411201  0.71399759  1.0
  C  C77  1  0.07467376  0.92598305  0.99070072  1.0
  C  C78  1  0.40890802  0.67446857  0.52876258  1.0
  C  C79  1  0.05680968  0.92560494  0.89421186  1.0
  C  C80  1  0.14057457  0.01568784  0.90470846  1.0
  C  C81  1  0.22864825  0.09963147  0.00223745  1.0
  C  C82  1  0.24261244  0.10115750  0.09911265  1.0
  C  C83  1  0.57669205  0.25453222  0.66118149  1.0
  C  C84  1  0.16412046  0.00857955  0.08774542  1.0
  C  C85  1  0.12719926  0.95626676  0.14894179  1.0
  C  C86  1  0.02181425  0.86672286  0.03889911  1.0
  C  C87  1  0.57974265  0.56542766  0.79387045  1.0
  C  C88  1  0.12570731  0.30481500  0.41287616  1.0
  C  C89  1  0.89700229  0.84063461  0.69697051  1.0
  C  C90  1  0.95478523  0.84317234  0.79588573  1.0
  C  C91  1  0.39206930  0.53517433  0.19449402  1.0
  C  C92  1  0.69673216  0.50311796  0.39719360  1.0
  C  C93  1  0.34974567  0.20112624  0.30104361  1.0
  C  C94  1  0.34682707  0.29808458  0.21547754  1.0
  I  I95  1  0.25159015  0.30632085  0.77419939  1.0
  I  I96  1  0.51734407  0.38257605  0.10551202  1.0
  I  I97  1  0.68993764  0.48544467  0.96738083  1.0
  I  I98  1  0.85955722  0.85634392  0.01280611  1.0
  N  N99  1  0.78908941  0.69278045  0.68885278  1.0
  N  N100  1  0.56057749  0.65769215  0.57311221  1.0
  N  N101  1  0.44145654  0.46044151  0.62936520  1.0
  N  N102  1  0.44475770  0.60659957  0.50498954  1.0
  N  N103  1  0.55465452  0.52933021  0.69379465  1.0
  N  N104  1  0.22172959  0.33436766  0.40952184  1.0
  N  N105  1  0.79759085  0.75025169  0.63343477  1.0
  N  N106  1  0.54162795  0.31122899  0.61956317  1.0
  N  N107  1  0.42949340  0.56903476  0.29793550  1.0
  N  N108  1  0.65061101  0.53395272  0.45077399  1.0
  N  N109  1  0.39458851  0.30059908  0.37057019  1.0
  N  N110  1  0.39277105  0.36049186  0.31765703  1.0
  N  N111  1  0.64331319  0.47991244  0.50879544  1.0
  N  N112  1  0.42391972  0.25080439  0.55877820  1.0
  N  N113  1  0.54045197  0.64786974  0.35183334  1.0
  N  N114  1  0.22230074  0.39519073  0.35685443  1.0
  F  F115  1  0.28366296  0.08830018  0.51398752  1.0
  F  F116  1  0.29624537  0.52374518  0.82773657  1.0
  F  F117  1  0.66493100  0.59262437  0.14686605  1.0
  F  F118  1  0.88976680  0.61570158  0.35977011  1.0
  F  F119  1  0.10330392  0.01047420  0.21829395  1.0
  F  F120  1  0.29895012  0.64684146  0.47103647  1.0
  F  F121  1  0.68969746  0.29499230  0.72682556  1.0
