# generated using pymatgen
data_Zn4H40C40N20O13
_symmetry_space_group_name_H-M   'P 1'
_cell_length_a   23.89112285
_cell_length_b   23.89124497
_cell_length_c   23.88900581
_cell_angle_alpha   66.56481583
_cell_angle_beta   72.47065843
_cell_angle_gamma   107.52683580
_symmetry_Int_Tables_number   1
_chemical_formula_structural   Zn4H40C40N20O13
_chemical_formula_sum   'Zn8 H80 C80 N40 O26'
_cell_volume   10458.27895760
_cell_formula_units_Z   2
loop_
 _symmetry_equiv_pos_site_id
 _symmetry_equiv_pos_as_xyz
  1  'x, y, z'
loop_
 _atom_site_type_symbol
 _atom_site_label
 _atom_site_symmetry_multiplicity
 _atom_site_fract_x
 _atom_site_fract_y
 _atom_site_fract_z
 _atom_site_occupancy
  Zn  Zn0  1  0.05652328  0.09876020  0.45727887  1.0
  Zn  Zn1  1  0.05652228  0.95777225  0.48617997  1.0
  Zn  Zn2  1  0.94347868  0.95728358  0.59876535  1.0
  Zn  Zn3  1  0.94349574  0.98620386  0.45775070  1.0
  Zn  Zn4  1  0.94395487  0.40125004  0.04224072  1.0
  Zn  Zn5  1  0.05605867  0.54225016  0.90122381  1.0
  Zn  Zn6  1  0.94395732  0.54270774  0.01380610  1.0
  Zn  Zn7  1  0.05603701  0.51379850  0.04271860  1.0
  H  H8  1  0.91946204  0.07508409  0.33162961  1.0
  H  H9  1  0.91108147  0.10760789  0.25815882  1.0
  H  H10  1  0.09324835  0.42491477  0.15564013  1.0
  H  H11  1  0.13421986  0.39240120  0.19650724  1.0
  H  H12  1  0.90671698  0.25110355  0.16836106  1.0
  H  H13  1  0.86577122  0.16925233  0.24183198  1.0
  H  H14  1  0.08057114  0.24888672  0.34434254  1.0
  H  H15  1  0.08893342  0.33072772  0.30346844  1.0
  H  H16  1  0.91944330  0.84435514  0.74892326  1.0
  H  H17  1  0.91106700  0.80345604  0.83077661  1.0
  H  H18  1  0.09327677  0.66836915  0.75106766  1.0
  H  H19  1  0.13422866  0.74184316  0.66921265  1.0
  H  H20  1  0.90673666  0.65561527  0.92492967  1.0
  H  H21  1  0.86578224  0.69650503  0.89241786  1.0
  H  H22  1  0.08055220  0.83167939  0.57506064  1.0
  H  H23  1  0.08891792  0.75820538  0.60756920  1.0
  H  H24  1  0.92070696  0.28113885  0.00523239  1.0
  H  H25  1  0.91491833  0.20916559  0.00291531  1.0
  H  H26  1  0.07931560  0.50521759  0.78111468  1.0
  H  H27  1  0.08509614  0.50291468  0.70912887  1.0
  H  H28  1  0.09760465  0.37828413  0.67580645  1.0
  H  H29  1  0.13267558  0.44919417  0.67792702  1.0
  H  H30  1  0.90235430  0.17583876  0.87830205  1.0
  H  H31  1  0.86729576  0.17796302  0.94922164  1.0
  H  H32  1  0.93128834  0.11367716  0.83143023  1.0
  H  H33  1  0.90912959  0.03944349  0.83257874  1.0
  H  H34  1  0.06858733  0.33139231  0.61368978  1.0
  H  H35  1  0.09077272  0.33254433  0.53945243  1.0
  H  H36  1  0.09462949  0.21446478  0.49840393  1.0
  H  H37  1  0.13675426  0.27701433  0.51006035  1.0
  H  H38  1  0.90531050  0.99839800  0.71448434  1.0
  H  H39  1  0.86316959  0.01004412  0.77704111  1.0
  H  H40  1  0.07933468  0.57413940  0.13952905  1.0
  H  H41  1  0.08511692  0.58223666  0.20572303  1.0
  H  H42  1  0.92071116  0.63956732  0.07405770  1.0
  H  H43  1  0.91492798  0.70576656  0.08213992  1.0
  H  H44  1  0.90237275  0.72656212  0.21930091  1.0
  H  H45  1  0.86731407  0.68935746  0.18345865  1.0
  H  H46  1  0.09763164  0.71939437  0.22650769  1.0
  H  H47  1  0.13269827  0.68354230  0.18932468  1.0
  H  H48  1  0.06858032  0.73719490  0.31769983  1.0
  H  H49  1  0.09076944  0.75822302  0.36974807  1.0
  H  H50  1  0.93127340  0.81760951  0.23730505  1.0
  H  H51  1  0.90912102  0.86968328  0.25832602  1.0
  H  H52  1  0.90531777  0.90690584  0.38023679  1.0
  H  H53  1  0.86317101  0.85311353  0.35983392  1.0
  H  H54  1  0.09464712  0.88016961  0.40693494  1.0
  H  H55  1  0.13675749  0.85973038  0.35315574  1.0
  H  H56  1  0.78712575  0.28554697  0.11978984  1.0
  H  H57  1  0.71292109  0.22300023  0.14021099  1.0
  H  H58  1  0.78712636  0.50159509  0.09306626  1.0
  H  H59  1  0.71292018  0.48993898  0.14685665  1.0
  H  H60  1  0.55490432  0.38630768  0.18235947  1.0
  H  H61  1  0.62799085  0.46054496  0.13029210  1.0
  H  H62  1  0.55490591  0.16860341  0.26276070  1.0
  H  H63  1  0.62799117  0.16745750  0.24173141  1.0
  H  H64  1  0.44587898  0.12169095  0.28070992  1.0
  H  H65  1  0.37283446  0.05079148  0.31654824  1.0
  H  H66  1  0.44589811  0.32413992  0.27351779  1.0
  H  H67  1  0.37286256  0.32202658  0.31069302  1.0
  H  H68  1  0.21366854  0.21886739  0.36046002  1.0
  H  H69  1  0.28796539  0.29084340  0.29427349  1.0
  H  H70  1  0.21363640  0.99478212  0.42592643  1.0
  H  H71  1  0.28791354  0.99707487  0.41785995  1.0
  H  H72  1  0.21290797  0.61983023  0.78550464  1.0
  H  H73  1  0.28712762  0.64027521  0.72294632  1.0
  H  H74  1  0.21285147  0.59304874  0.00161072  1.0
  H  H75  1  0.28704262  0.64684189  0.98996808  1.0
  H  H76  1  0.44508090  0.68237573  0.88633518  1.0
  H  H77  1  0.37198623  0.63029374  0.96057373  1.0
  H  H78  1  0.44511979  0.76282302  0.66858726  1.0
  H  H79  1  0.37204219  0.74179181  0.66742697  1.0
  H  H80  1  0.55413441  0.78071808  0.62168297  1.0
  H  H81  1  0.62717943  0.81655922  0.55077005  1.0
  H  H82  1  0.55410480  0.77348538  0.82416695  1.0
  H  H83  1  0.62713860  0.81066383  0.82205397  1.0
  H  H84  1  0.78633597  0.86042436  0.71888396  1.0
  H  H85  1  0.71203437  0.79424309  0.79086162  1.0
  H  H86  1  0.78637795  0.92593501  0.49475984  1.0
  H  H87  1  0.71209874  0.91785738  0.49705719  1.0
  C  C88  1  0.18352257  0.09176453  0.40824297  1.0
  C  C89  1  0.00000611  0.86098238  0.63903722  1.0
  C  C90  1  0.99997629  0.09142177  0.59142752  1.0
  C  C91  1  0.81648768  0.90824775  0.59175634  1.0
  C  C92  1  0.00001624  0.13902950  0.36094388  1.0
  C  C93  1  0.99999873  0.90856660  0.40858269  1.0
  C  C94  1  0.00000784  0.40825022  0.90823257  1.0
  C  C95  1  0.00001802  0.63904202  0.86095298  1.0
  C  C96  1  0.81715155  0.40858347  0.09142405  1.0
  C  C97  1  0.00000662  0.59176166  0.09175551  1.0
  C  C98  1  0.99998407  0.36096403  0.13904498  1.0
  C  C99  1  0.18285175  0.59142518  0.90856874  1.0
  C  C100  1  0.00001397  0.19525500  0.30472004  1.0
  C  C101  1  0.99999360  0.30473905  0.19525847  1.0
  C  C102  1  0.95734989  0.17958133  0.27612997  1.0
  C  C103  1  0.04427166  0.32041326  0.22223350  1.0
  C  C104  1  0.95572462  0.23348608  0.22385224  1.0
  C  C105  1  0.04266697  0.26650691  0.27774504  1.0
  C  C106  1  0.00001270  0.80476052  0.69525663  1.0
  C  C107  1  0.00001656  0.69527115  0.80473248  1.0
  C  C108  1  0.95735296  0.77776604  0.76652235  1.0
  C  C109  1  0.04428794  0.72387893  0.73346709  1.0
  C  C110  1  0.95573854  0.72224267  0.82042351  1.0
  C  C111  1  0.04266929  0.77616976  0.67956654  1.0
  C  C112  1  0.00000071  0.37147922  0.87146517  1.0
  C  C113  1  0.95764329  0.29768016  0.90875424  1.0
  C  C114  1  0.95544243  0.26372963  0.87244708  1.0
  C  C115  1  0.99997835  0.30042868  0.80042214  1.0
  C  C116  1  0.04452545  0.37244652  0.76370524  1.0
  C  C117  1  0.04234753  0.40875400  0.79765733  1.0
  C  C118  1  0.99996955  0.26517547  0.76518148  1.0
  C  C119  1  0.99996369  0.23444082  0.73446632  1.0
  C  C120  1  0.99996553  0.19919541  0.69921810  1.0
  C  C121  1  0.95787963  0.12653029  0.73658786  1.0
  C  C122  1  0.95493229  0.09157413  0.70127905  1.0
  C  C123  1  0.99996110  0.12816837  0.62817450  1.0
  C  C124  1  0.04499137  0.20126245  0.59158318  1.0
  C  C125  1  0.04204536  0.23656691  0.62654370  1.0
  C  C126  1  0.00001624  0.62855037  0.12850467  1.0
  C  C127  1  0.04236746  0.63363642  0.15994733  1.0
  C  C128  1  0.04455237  0.67213882  0.19170469  1.0
  C  C129  1  0.00000004  0.69959824  0.19954833  1.0
  C  C130  1  0.95546879  0.69176019  0.17206573  1.0
  C  C131  1  0.95765940  0.65999153  0.13357377  1.0
  C  C132  1  0.99997851  0.73483054  0.23481152  1.0
  C  C133  1  0.99996885  0.76554022  0.26555216  1.0
  C  C134  1  0.99996657  0.80077520  0.30081134  1.0
  C  C135  1  0.04204659  0.80547943  0.33139758  1.0
  C  C136  1  0.04500203  0.84373172  0.36340754  1.0
  C  C137  1  0.99997657  0.87179911  0.37185576  1.0
  C  C138  1  0.95494088  0.86335907  0.34379836  1.0
  C  C139  1  0.95787943  0.83135126  0.30554263  1.0
  C  C140  1  0.74365651  0.37183462  0.12817079  1.0
  C  C141  1  0.70715320  0.29874385  0.15623055  1.0
  C  C142  1  0.63688925  0.26343554  0.19448831  1.0
  C  C143  1  0.60159184  0.30079940  0.19920953  1.0
  C  C144  1  0.63688743  0.37346133  0.16862853  1.0
  C  C145  1  0.70715297  0.40842284  0.13661273  1.0
  C  C146  1  0.53109593  0.26554600  0.23447144  1.0
  C  C147  1  0.46964660  0.23480656  0.26521080  1.0
  C  C148  1  0.39915120  0.19955994  0.30046735  1.0
  C  C149  1  0.36383702  0.12754543  0.32794568  1.0
  C  C150  1  0.29357783  0.09124402  0.36642883  1.0
  C  C151  1  0.25706152  0.12852476  0.37149856  1.0
  C  C152  1  0.29358682  0.20232051  0.34006077  1.0
  C  C153  1  0.36384349  0.23626234  0.30831265  1.0
  C  C154  1  0.25634845  0.62818235  0.87182533  1.0
  C  C155  1  0.29286722  0.65626054  0.79872192  1.0
  C  C156  1  0.36312991  0.69452389  0.76342002  1.0
  C  C157  1  0.39841796  0.69922326  0.80080086  1.0
  C  C158  1  0.36310619  0.66863447  0.87347117  1.0
  C  C159  1  0.29284170  0.63661502  0.90842761  1.0
  C  C160  1  0.46891183  0.73447508  0.76555275  1.0
  C  C161  1  0.53036274  0.76521036  0.73481457  1.0
  C  C162  1  0.60085676  0.80046062  0.69956327  1.0
  C  C163  1  0.63617776  0.82794475  0.62753917  1.0
  C  C164  1  0.70643656  0.86643011  0.59123283  1.0
  C  C165  1  0.74294895  0.87149269  0.62852165  1.0
  C  C166  1  0.70642141  0.84004389  0.70232651  1.0
  C  C167  1  0.63616475  0.80829535  0.73627147  1.0
  N  N168  1  0.91342869  0.11229309  0.29807258  1.0
  N  N169  1  0.08961224  0.38770152  0.19887252  1.0
  N  N170  1  0.91037084  0.21151106  0.20191503  1.0
  N  N171  1  0.08659392  0.28848192  0.30110830  1.0
  N  N172  1  0.91341963  0.80111798  0.78851317  1.0
  N  N173  1  0.08962810  0.70193256  0.71147755  1.0
  N  N174  1  0.91038490  0.69885708  0.88772504  1.0
  N  N175  1  0.08658443  0.79811653  0.61226430  1.0
  N  N176  1  0.91481527  0.25536169  0.98050523  1.0
  N  N177  1  0.08519674  0.48049350  0.75533157  1.0
  N  N178  1  0.08877465  0.40967764  0.69213558  1.0
  N  N179  1  0.91118946  0.19216710  0.90969536  1.0
  N  N180  1  0.91556169  0.08875522  0.80866192  1.0
  N  N181  1  0.08434671  0.30863808  0.58876680  1.0
  N  N182  1  0.09158591  0.24259936  0.52080183  1.0
  N  N183  1  0.90834403  0.02080162  0.74261507  1.0
  N  N184  1  0.08521742  0.60474980  0.15942192  1.0
  N  N185  1  0.91482595  0.65946645  0.10466598  1.0
  N  N186  1  0.91121079  0.71906218  0.17907549  1.0
  N  N187  1  0.08879973  0.67916463  0.21901749  1.0
  N  N188  1  0.08434374  0.77570776  0.32686157  1.0
  N  N189  1  0.91555448  0.82680398  0.27580395  1.0
  N  N190  1  0.90834785  0.88753738  0.34907004  1.0
  N  N191  1  0.09159376  0.84898744  0.38758659  1.0
  N  N192  1  0.73659341  0.25741291  0.15096822  1.0
  N  N193  1  0.73659327  0.47919309  0.11243037  1.0
  N  N194  1  0.60259166  0.41122992  0.17317453  1.0
  N  N195  1  0.60259229  0.19136864  0.22424562  1.0
  N  N196  1  0.39815388  0.09030261  0.32093481  1.0
  N  N197  1  0.39818090  0.30782162  0.28100239  1.0
  N  N198  1  0.26417065  0.24464189  0.34057879  1.0
  N  N199  1  0.26414483  0.01950362  0.39532880  1.0
  N  N200  1  0.26343863  0.65101332  0.75737462  1.0
  N  N201  1  0.26338583  0.61242295  0.97920739  1.0
  N  N202  1  0.39738807  0.67317544  0.91125491  1.0
  N  N203  1  0.39744294  0.72430673  0.69133812  1.0
  N  N204  1  0.60186051  0.82093934  0.59029181  1.0
  N  N205  1  0.60182558  0.78097493  0.80784391  1.0
  N  N206  1  0.73583486  0.84054750  0.74465629  1.0
  N  N207  1  0.73587064  0.89533251  0.51948527  1.0
  O  O208  1  0.00000416  0.00000463  0.49999769  1.0
  O  O209  1  0.15207861  0.12581273  0.41641602  1.0
  O  O210  1  0.04276015  0.88772684  0.57534364  1.0
  O  O211  1  0.96244533  0.02471624  0.62672638  1.0
  O  O212  1  0.15207734  0.02627703  0.43149669  1.0
  O  O213  1  0.03752252  0.12671620  0.52471589  1.0
  O  O214  1  0.95724583  0.88190201  0.65506622  1.0
  O  O215  1  0.84792582  0.91640933  0.62581453  1.0
  O  O216  1  0.95725503  0.07534768  0.38768538  1.0
  O  O217  1  0.84793822  0.93151873  0.52625788  1.0
  O  O218  1  0.04277411  0.15504648  0.38186860  1.0
  O  O219  1  0.03755609  0.91082918  0.43772858  1.0
  O  O220  1  0.96246790  0.93773903  0.41082414  1.0
  O  O221  1  0.00000633  0.50000572  0.99999112  1.0
  O  O222  1  0.95778400  0.37419962  0.97373277  1.0
  O  O223  1  0.03697547  0.61231864  0.84492372  1.0
  O  O224  1  0.84856377  0.47528735  0.06226150  1.0
  O  O225  1  0.04223115  0.47374462  0.87417629  1.0
  O  O226  1  0.84856331  0.37329191  0.08917599  1.0
  O  O227  1  0.96305973  0.61809744  0.92464644  1.0
  O  O228  1  0.95777925  0.58357488  0.06849300  1.0
  O  O229  1  0.03692890  0.42464528  0.11811829  1.0
  O  O230  1  0.04222951  0.56849296  0.08358081  1.0
  O  O231  1  0.96303629  0.34494919  0.11230881  1.0
  O  O232  1  0.15145019  0.58917984  0.87326458  1.0
  O  O233  1  0.15143206  0.56224520  0.97528158  1.0
