# generated using pymatgen
data_ZnH14C21S2(NO2)2
_symmetry_space_group_name_H-M   'P 1'
_cell_length_a   14.64143951
_cell_length_b   14.66766956
_cell_length_c   29.13776371
_cell_angle_alpha   100.80291287
_cell_angle_beta   100.72567000
_cell_angle_gamma   90.38861546
_symmetry_Int_Tables_number   1
_chemical_formula_structural   ZnH14C21S2(NO2)2
_chemical_formula_sum   'Zn8 H112 C168 S16 N16 O32'
_cell_volume   6033.59193469
_cell_formula_units_Z   8
loop_
 _symmetry_equiv_pos_site_id
 _symmetry_equiv_pos_as_xyz
  1  'x, y, z'
loop_
 _atom_site_type_symbol
 _atom_site_label
 _atom_site_symmetry_multiplicity
 _atom_site_fract_x
 _atom_site_fract_y
 _atom_site_fract_z
 _atom_site_occupancy
  Zn  Zn0  1  0.68793818  0.40357589  0.24278572  1.0
  Zn  Zn1  1  0.31206158  0.59642389  0.75721365  1.0
  Zn  Zn2  1  0.23048798  0.94312483  0.34260957  1.0
  Zn  Zn3  1  0.76951387  0.05687503  0.65739103  1.0
  Zn  Zn4  1  0.72715146  0.37707907  0.34038838  1.0
  Zn  Zn5  1  0.27284899  0.62291866  0.65961086  1.0
  Zn  Zn6  1  0.18686561  0.84129291  0.24635639  1.0
  Zn  Zn7  1  0.81313554  0.15870554  0.75364435  1.0
  H  H8  1  0.99151067  0.60564508  0.65383015  1.0
  H  H9  1  0.00849188  0.39435481  0.34617189  1.0
  H  H10  1  0.71246443  0.52476653  0.41722234  1.0
  H  H11  1  0.28753811  0.47523128  0.58277676  1.0
  H  H12  1  0.67733442  0.26043299  0.15819804  1.0
  H  H13  1  0.32266325  0.73956600  0.84180140  1.0
  H  H14  1  0.18740741  0.65587051  0.17752164  1.0
  H  H15  1  0.81258818  0.34412493  0.82247933  1.0
  H  H16  1  0.92126045  0.62420789  0.40120810  1.0
  H  H17  1  0.07873583  0.37579174  0.59879093  1.0
  H  H18  1  0.04556395  0.76164632  0.40458797  1.0
  H  H19  1  0.95443442  0.23835270  0.59541188  1.0
  H  H20  1  0.81461305  0.26245239  0.41532714  1.0
  H  H21  1  0.18538811  0.73754606  0.58467463  1.0
  H  H22  1  0.76190409  0.56889756  0.50607896  1.0
  H  H23  1  0.23810124  0.43110385  0.49391971  1.0
  H  H24  1  0.50033139  0.08006786  0.66079257  1.0
  H  H25  1  0.49966698  0.91993603  0.33920809  1.0
  H  H26  1  0.63055774  0.24216868  0.06932602  1.0
  H  H27  1  0.36943994  0.75782893  0.93067295  1.0
  H  H28  1  0.85416261  0.16298626  0.18583322  1.0
  H  H29  1  0.14584412  0.83702215  0.81416692  1.0
  H  H30  1  0.86809726  0.29480885  0.50390705  1.0
  H  H31  1  0.13190041  0.70519153  0.49609458  1.0
  H  H32  1  0.56905993  0.61923851  0.39706745  1.0
  H  H33  1  0.43094471  0.38075800  0.60293481  1.0
  H  H34  1  0.44493854  0.75231014  0.39826905  1.0
  H  H35  1  0.55507237  0.24769288  0.60173441  1.0
  H  H36  1  0.15555938  0.73738291  0.92251986  1.0
  H  H37  1  0.84444317  0.26261699  0.07748012  1.0
  H  H38  1  0.14681612  0.60025489  0.08930852  1.0
  H  H39  1  0.85318225  0.39973927  0.91069190  1.0
  H  H40  1  0.27428041  0.93211749  0.51845268  1.0
  H  H41  1  0.72571658  0.06788356  0.48154724  1.0
  H  H42  1  0.79606647  0.39367048  0.66467047  1.0
  H  H43  1  0.20392843  0.60633534  0.33532970  1.0
  H  H44  1  0.22951446  0.87608575  0.42997684  1.0
  H  H45  1  0.77047974  0.12391518  0.57002315  1.0
  H  H46  1  0.98279661  0.03443517  0.18682373  1.0
  H  H47  1  0.01720663  0.96556962  0.81317403  1.0
  H  H48  1  0.66109313  0.38896960  0.92003719  1.0
  H  H49  1  0.33890524  0.61102665  0.07996034  1.0
  H  H50  1  0.25865337  0.24661158  0.65336806  1.0
  H  H51  1  0.74134570  0.75339303  0.34663101  1.0
  H  H52  1  0.30185931  0.13096112  0.40294282  1.0
  H  H53  1  0.69814184  0.86904010  0.59705784  1.0
  H  H54  1  0.39598891  0.27698636  0.93148454  1.0
  H  H55  1  0.60401015  0.72301270  0.06851470  1.0
  H  H56  1  0.11309355  0.92317772  0.16581400  1.0
  H  H57  1  0.88690830  0.07681868  0.83418593  1.0
  H  H58  1  0.35099392  0.28663106  0.00512563  1.0
  H  H59  1  0.64900584  0.71336942  0.99487312  1.0
  H  H60  1  0.44211196  0.26580306  0.05106078  1.0
  H  H61  1  0.55788501  0.73419522  0.94893785  1.0
  H  H62  1  0.40307390  0.37928162  0.05160143  1.0
  H  H63  1  0.59692377  0.62071668  0.94839726  1.0
  H  H64  1  0.95327642  0.55441193  0.52150530  1.0
  H  H65  1  0.04672543  0.44559001  0.47849619  1.0
  H  H66  1  0.93918604  0.65684687  0.56248565  1.0
  H  H67  1  0.06081512  0.34315435  0.43751570  1.0
  H  H68  1  0.03784220  0.59063628  0.57441395  1.0
  H  H69  1  0.96216035  0.40936709  0.42558704  1.0
  H  H70  1  0.34672876  0.19905663  0.49021077  1.0
  H  H71  1  0.65326892  0.80094375  0.50978949  1.0
  H  H72  1  0.07057623  0.87965443  0.07661961  1.0
  H  H73  1  0.92942631  0.12034199  0.92338072  1.0
  H  H74  1  0.38594629  0.99778779  0.18363175  1.0
  H  H75  1  0.61405139  0.00220912  0.81636818  1.0
  H  H76  1  0.77003457  0.45803726  0.98734001  1.0
  H  H77  1  0.22996659  0.54196466  0.01266072  1.0
  H  H78  1  0.71371690  0.52565013  0.03027707  1.0
  H  H79  1  0.28627869  0.47434669  0.96972300  1.0
  H  H80  1  0.76803154  0.42332114  0.04227222  1.0
  H  H81  1  0.23196544  0.57667644  0.95772702  1.0
  H  H82  1  0.72026510  0.31033068  0.53446691  1.0
  H  H83  1  0.27973328  0.68967390  0.46553312  1.0
  H  H84  1  0.74712387  0.27057207  0.58951616  1.0
  H  H85  1  0.25287381  0.72943248  0.41048347  1.0
  H  H86  1  0.66315421  0.35424008  0.58201923  1.0
  H  H87  1  0.33684556  0.64576595  0.41798176  1.0
  H  H88  1  0.50843096  0.13371319  0.18228983  1.0
  H  H89  1  0.49156185  0.86629115  0.81770933  1.0
  H  H90  1  0.95760723  0.64295875  0.06900805  1.0
  H  H91  1  0.04239323  0.35704452  0.93099206  1.0
  H  H92  1  0.86670843  0.63224109  0.01844012  1.0
  H  H93  1  0.13329273  0.36776083  0.98155992  1.0
  H  H94  1  0.93758229  0.53742012  0.02700581  1.0
  H  H95  1  0.06241817  0.46258176  0.97299554  1.0
  H  H96  1  0.46265196  0.98503991  0.52999523  1.0
  H  H97  1  0.53734920  0.01496270  0.47000557  1.0
  H  H98  1  0.55374365  0.04136274  0.57601739  1.0
  H  H99  1  0.44625750  0.95863779  0.42398355  1.0
  H  H100  1  0.49150141  0.94489404  0.58461304  1.0
  H  H101  1  0.50849766  0.05510779  0.41538783  1.0
  H  H102  1  0.25482797  0.82073624  0.98699817  1.0
  H  H103  1  0.74517249  0.17926496  0.01300174  1.0
  H  H104  1  0.19933398  0.87442239  0.03360566  1.0
  H  H105  1  0.80066439  0.12557733  0.96639357  1.0
  H  H106  1  0.26887304  0.77850463  0.04105033  1.0
  H  H107  1  0.73112951  0.22149804  0.95895095  1.0
  H  H108  1  0.92160820  0.57224421  0.93572670  1.0
  H  H109  1  0.07839156  0.42776043  0.06427313  1.0
  H  H110  1  0.63580093  0.54287649  0.17757868  1.0
  H  H111  1  0.36419535  0.45712314  0.82241967  1.0
  H  H112  1  0.58890429  0.53733148  0.09052496  1.0
  H  H113  1  0.41109477  0.46266688  0.90947352  1.0
  H  H114  1  0.17846033  0.17060643  0.52202378  1.0
  H  H115  1  0.82153804  0.82939329  0.47797613  1.0
  H  H116  1  0.13579455  0.19801341  0.57599920  1.0
  H  H117  1  0.86420660  0.80198643  0.42400099  1.0
  H  H118  1  0.20552981  0.28071787  0.56006641  1.0
  H  H119  1  0.79446717  0.71928249  0.43993275  1.0
  C  C120  1  0.31426209  0.07077871  0.51173790  1.0
  C  C121  1  0.68573768  0.92922107  0.48826250  1.0
  C  C122  1  0.38147828  0.16537633  0.66288394  1.0
  C  C123  1  0.61851870  0.83462611  0.33711474  1.0
  C  C124  1  0.91348641  0.53061359  0.58719426  1.0
  C  C125  1  0.08651475  0.46938694  0.41280668  1.0
  C  C126  1  0.93774603  0.55184992  0.63666786  1.0
  C  C127  1  0.06225513  0.44815061  0.36333308  1.0
  C  C128  1  0.74720670  0.47649885  0.43828583  1.0
  C  C129  1  0.25279724  0.52349972  0.56171347  1.0
  C  C130  1  0.89525093  0.50396792  0.66507067  1.0
  C  C131  1  0.10474883  0.49603532  0.33493006  1.0
  C  C132  1  0.32054647  0.75972606  0.31167142  1.0
  C  C133  1  0.67946026  0.24027817  0.68833279  1.0
  C  C134  1  0.40732526  0.19642175  0.71430430  1.0
  C  C135  1  0.59267102  0.80357858  0.28569376  1.0
  C  C136  1  0.09603117  0.02302045  0.27647155  1.0
  C  C137  1  0.90397138  0.97697805  0.72352865  1.0
  C  C138  1  0.65713604  0.31940891  0.14122365  1.0
  C  C139  1  0.34286233  0.68059011  0.85877517  1.0
  C  C140  1  0.90210878  0.20279597  0.26215825  1.0
  C  C141  1  0.09789446  0.79720674  0.73784172  1.0
  C  C142  1  0.16108753  0.70288186  0.15366597  1.0
  C  C143  1  0.83891084  0.29711300  0.84633452  1.0
  C  C144  1  0.93629525  0.65062751  0.37083204  1.0
  C  C145  1  0.06370312  0.34937359  0.62916732  1.0
  C  C146  1  0.59490698  0.24438619  0.27201630  1.0
  C  C147  1  0.40508792  0.75561616  0.72798354  1.0
  C  C148  1  0.07517173  0.80026327  0.31566804  1.0
  C  C149  1  0.92483291  0.19973671  0.68433214  1.0
  C  C150  1  0.00776389  0.73759586  0.32763066  1.0
  C  C151  1  0.99223726  0.26240258  0.67236905  1.0
  C  C152  1  0.89200902  0.61320076  0.32466785  1.0
  C  C153  1  0.10798936  0.38680034  0.67533186  1.0
  C  C154  1  0.33914751  0.10576306  0.56386200  1.0
  C  C155  1  0.66085226  0.89424019  0.43613804  1.0
  C  C156  1  0.83904773  0.27736553  0.27496126  1.0
  C  C157  1  0.16095413  0.72263572  0.72503844  1.0
  C  C158  1  0.00165989  0.72253285  0.37256873  1.0
  C  C159  1  0.99833987  0.27746623  0.62743160  1.0
  C  C160  1  0.34448752  0.98244662  0.27422082  1.0
  C  C161  1  0.65551085  0.01755032  0.72577918  1.0
  C  C162  1  0.57521914  0.37611140  0.01976872  1.0
  C  C163  1  0.42478271  0.62388708  0.98022900  1.0
  C  C164  1  0.41812161  0.07242373  0.59067817  1.0
  C  C165  1  0.58188025  0.92757892  0.40932166  1.0
  C  C166  1  0.80337027  0.32902586  0.43706595  1.0
  C  C167  1  0.19663158  0.67097262  0.56293486  1.0
  C  C168  1  0.77494632  0.50005536  0.48736086  1.0
  C  C169  1  0.22505692  0.49994804  0.51263814  1.0
  C  C170  1  0.82179536  0.53533792  0.31039659  1.0
  C  C171  1  0.17820301  0.46466041  0.68960217  1.0
  C  C172  1  0.51073693  0.57523677  0.32191437  1.0
  C  C173  1  0.48926561  0.42475896  0.67808761  1.0
  C  C174  1  0.81851058  0.43487561  0.51280727  1.0
  C  C175  1  0.18149197  0.56512636  0.48719428  1.0
  C  C176  1  0.43852211  0.10348822  0.63983510  1.0
  C  C177  1  0.56147557  0.89651563  0.36016480  1.0
  C  C178  1  0.52741681  0.32608953  0.92027621  1.0
  C  C179  1  0.47258156  0.67390533  0.07972290  1.0
  C  C180  1  0.50165123  0.29439947  0.86872090  1.0
  C  C181  1  0.49834296  0.70559244  0.13127652  1.0
  C  C182  1  0.02106763  0.08503124  0.26296641  1.0
  C  C183  1  0.97893561  0.91497147  0.73703219  1.0
  C  C184  1  0.92282710  0.52864678  0.71664626  1.0
  C  C185  1  0.07717266  0.47135300  0.28335379  1.0
  C  C186  1  0.49509872  0.22540366  0.78503695  1.0
  C  C187  1  0.50489755  0.77459042  0.21496121  1.0
  C  C188  1  0.39424043  0.69546984  0.32361968  1.0
  C  C189  1  0.60576699  0.30453165  0.67638434  1.0
  C  C190  1  0.63124770  0.31022350  0.09222607  1.0
  C  C191  1  0.36875137  0.68977764  0.90777302  1.0
  C  C192  1  0.90260535  0.15143173  0.21713975  1.0
  C  C193  1  0.09740067  0.84857179  0.78285953  1.0
  C  C194  1  0.57477841  0.50182976  0.30831256  1.0
  C  C195  1  0.42522066  0.49816790  0.69168997  1.0
  C  C196  1  0.83291306  0.34766726  0.48622123  1.0
  C  C197  1  0.16708879  0.65233122  0.51377993  1.0
  C  C198  1  0.51682195  0.62958244  0.36688204  1.0
  C  C199  1  0.48318269  0.37041615  0.63312110  1.0
  C  C200  1  0.41253051  0.04147107  0.26037831  1.0
  C  C201  1  0.58746786  0.95852796  0.73962120  1.0
  C  C202  1  0.10613162  0.73606783  0.07528944  1.0
  C  C203  1  0.89387162  0.26392862  0.92471062  1.0
  C  C204  1  0.84635977  0.45779698  0.56536853  1.0
  C  C205  1  0.15364347  0.54220572  0.43463144  1.0
  C  C206  1  0.41278669  0.26072780  0.79819418  1.0
  C  C207  1  0.58720611  0.73926127  0.20180558  1.0
  C  C208  1  0.45121175  0.69916893  0.36766057  1.0
  C  C209  1  0.54879498  0.30083253  0.63234269  1.0
  C  C210  1  0.11253395  0.71176768  0.94467760  1.0
  C  C211  1  0.88746859  0.28823360  0.05532286  1.0
  C  C212  1  0.13535523  0.74169989  0.99384603  1.0
  C  C213  1  0.86464801  0.25829934  0.00615361  1.0
  C  C214  1  0.80395210  0.40805579  0.59360541  1.0
  C  C215  1  0.19604767  0.59194746  0.40639532  1.0
  C  C216  1  0.13903430  0.67285157  0.10456729  1.0
  C  C217  1  0.86096546  0.32714612  0.89543326  1.0
  C  C218  1  0.28133171  0.97847875  0.49401411  1.0
  C  C219  1  0.71866596  0.02152164  0.50598581  1.0
  C  C220  1  0.60519912  0.38851410  0.07233065  1.0
  C  C221  1  0.39480134  0.61148363  0.92766859  1.0
  C  C222  1  0.82863571  0.43266047  0.64306480  1.0
  C  C223  1  0.17136197  0.56734269  0.35693538  1.0
  C  C224  1  0.52697190  0.16453184  0.25925488  1.0
  C  C225  1  0.47302438  0.83546780  0.74074449  1.0
  C  C226  1  0.25682630  0.94675037  0.44524255  1.0
  C  C227  1  0.74317208  0.05325421  0.55475817  1.0
  C  C228  1  0.97034569  0.08382030  0.21764480  1.0
  C  C229  1  0.02965894  0.91618524  0.78235454  1.0
  C  C230  1  0.48655913  0.33411971  0.99832473  1.0
  C  C231  1  0.51344133  0.66587870  0.00167526  1.0
  C  C232  1  0.08085919  0.70731658  0.02280700  1.0
  C  C233  1  0.91914266  0.29268051  0.97719368  1.0
  C  C234  1  0.61290074  0.37264054  0.94210865  1.0
  C  C235  1  0.38709901  0.62735577  0.05788936  1.0
  C  C236  1  0.63698534  0.39991117  0.99162357  1.0
  C  C237  1  0.36301302  0.60008508  0.00837430  1.0
  C  C238  1  0.30316878  0.19747866  0.63591510  1.0
  C  C239  1  0.69683098  0.80252390  0.36408419  1.0
  C  C240  1  0.29621161  0.08993023  0.42998624  1.0
  C  C241  1  0.70378746  0.91006951  0.57001409  1.0
  C  C242  1  0.28142238  0.16919355  0.58649068  1.0
  C  C243  1  0.71857877  0.83080768  0.41350793  1.0
  C  C244  1  0.46359576  0.31050810  0.94878136  1.0
  C  C245  1  0.53640470  0.68948963  0.05121651  1.0
  C  C246  1  0.12012585  0.85288913  0.14678143  1.0
  C  C247  1  0.87987530  0.14710793  0.85321918  1.0
  C  C248  1  0.00262238  0.64673167  0.00199578  1.0
  C  C249  1  0.99737877  0.35326886  0.99800345  1.0
  C  C250  1  0.00391517  0.59291760  0.78597323  1.0
  C  C251  1  0.99608668  0.40708088  0.21402690  1.0
  C  C252  1  0.41702570  0.31526011  0.02795500  1.0
  C  C253  1  0.58297407  0.68474105  0.97204484  1.0
  C  C254  1  0.96303587  0.58527203  0.55945406  1.0
  C  C255  1  0.03696807  0.41473001  0.44054728  1.0
  C  C256  1  0.32119746  0.12690946  0.47838526  1.0
  C  C257  1  0.67880231  0.87309448  0.52161519  1.0
  C  C258  1  0.09708141  0.82798341  0.09758507  1.0
  C  C259  1  0.90292044  0.17201229  0.90241445  1.0
  C  C260  1  0.42468108  0.04484223  0.21464872  1.0
  C  C261  1  0.57531660  0.95515954  0.78535133  1.0
  C  C262  1  0.72694274  0.45419013  0.01398497  1.0
  C  C263  1  0.27305563  0.54580820  0.98601413  1.0
  C  C264  1  0.03673023  0.64922212  0.92326811  1.0
  C  C265  1  0.96327162  0.35078052  0.07673104  1.0
  C  C266  1  0.73025676  0.33161646  0.57318997  1.0
  C  C267  1  0.26974231  0.66838814  0.42680979  1.0
  C  C268  1  0.93492369  0.54817180  0.80260876  1.0
  C  C269  1  0.06507746  0.45182804  0.19739143  1.0
  C  C270  1  0.48921543  0.11603523  0.21397846  1.0
  C  C271  1  0.51077946  0.88396573  0.78602125  1.0
  C  C272  1  0.93841690  0.61345635  0.03094406  1.0
  C  C273  1  0.06158496  0.38654560  0.96905674  1.0
  C  C274  1  0.48407941  0.00725257  0.56858619  1.0
  C  C275  1  0.51592105  0.99275001  0.43141420  1.0
  C  C276  1  0.21874485  0.80717838  0.01498660  1.0
  C  C277  1  0.78125630  0.19282215  0.98501434  1.0
  C  C278  1  0.98196657  0.61862321  0.95254908  1.0
  C  C279  1  0.01803320  0.38137934  0.04745158  1.0
  C  C280  1  0.01320816  0.61719164  0.87187871  1.0
  C  C281  1  0.98679300  0.38281097  0.12812174  1.0
  C  C282  1  0.63429184  0.47759132  0.15237329  1.0
  C  C283  1  0.36570584  0.52240629  0.84762533  1.0
  C  C284  1  0.60802447  0.47389183  0.10355362  1.0
  C  C285  1  0.39197529  0.52610587  0.89644521  1.0
  C  C286  1  0.19603418  0.20588241  0.55935137  1.0
  C  C287  1  0.80396559  0.79411806  0.44064772  1.0
  S  S288  1  0.42317427  0.60830416  0.28112149  1.0
  S  S289  1  0.57682758  0.39169570  0.71888220  1.0
  S  S290  1  0.98419553  0.16775755  0.30485467  1.0
  S  S291  1  0.01580702  0.83224304  0.69514435  1.0
  S  S292  1  0.48215379  0.12360121  0.30233945  1.0
  S  S293  1  0.51784458  0.87639782  0.69766006  1.0
  S  S294  1  0.93201735  0.66492884  0.28357467  1.0
  S  S295  1  0.06798311  0.33507097  0.71642476  1.0
  S  S296  1  0.32630499  0.24838933  0.74816540  1.0
  S  S297  1  0.67368850  0.75160046  0.25183347  1.0
  S  S298  1  0.58268587  0.24289607  0.83493300  1.0
  S  S299  1  0.41731110  0.75710151  0.16506453  1.0
  S  S300  1  0.85696404  0.48793240  0.75449643  1.0
  S  S301  1  0.14303434  0.51207009  0.24550376  1.0
  S  S302  1  0.08106068  0.65383753  0.83406681  1.0
  S  S303  1  0.91894187  0.34616167  0.16593276  1.0
  N  N304  1  0.26448430  0.00129525  0.41368247  1.0
  N  N305  1  0.73551338  0.99870444  0.58631807  1.0
  N  N306  1  0.76071732  0.39215963  0.41338474  1.0
  N  N307  1  0.23928662  0.60783825  0.58661587  1.0
  N  N308  1  0.65799150  0.40182417  0.17090064  1.0
  N  N309  1  0.34200618  0.59817622  0.82909825  1.0
  N  N310  1  0.15152236  0.79133928  0.17440826  1.0
  N  N311  1  0.84847741  0.20865703  0.82559250  1.0
  N  N312  1  0.49174289  0.18862701  0.73870447  1.0
  N  N313  1  0.50825479  0.81137268  0.26129435  1.0
  N  N314  1  0.41588630  0.29774099  0.84470955  1.0
  N  N315  1  0.58410998  0.70224754  0.15528979  1.0
  N  N316  1  0.99687091  0.58266789  0.73850090  1.0
  N  N317  1  0.00313024  0.41733056  0.26149915  1.0
  N  N318  1  0.93976015  0.56146797  0.85019487  1.0
  N  N319  1  0.06024101  0.43853464  0.14980524  1.0
  O  O320  1  0.79536029  0.31225031  0.24081175  1.0
  O  O321  1  0.20464017  0.68775089  0.75918816  1.0
  O  O322  1  0.13365291  0.03369588  0.32041174  1.0
  O  O323  1  0.86634477  0.96630103  0.67958648  1.0
  O  O324  1  0.27068677  0.74151188  0.26980873  1.0
  O  O325  1  0.72931856  0.25849090  0.73019487  1.0
  O  O326  1  0.78159171  0.51489691  0.26676385  1.0
  O  O327  1  0.21840667  0.48510489  0.73323627  1.0
  O  O328  1  0.12533172  0.85516444  0.35040722  1.0
  O  O329  1  0.87467082  0.14483198  0.64959312  1.0
  O  O330  1  0.63471227  0.26687609  0.31574088  1.0
  O  O331  1  0.36527845  0.73312817  0.68425841  1.0
  O  O332  1  0.30321920  0.91660791  0.24212154  1.0
  O  O333  1  0.69678056  0.08339048  0.75787770  1.0
  O  O334  1  0.83289575  0.29923018  0.31879690  1.0
  O  O335  1  0.16710610  0.70076899  0.68120260  1.0
  O  O336  1  0.58271493  0.48251586  0.26473758  1.0
  O  O337  1  0.41728344  0.51747830  0.73526421  1.0
  O  O338  1  0.31334288  0.82837240  0.34457718  1.0
  O  O339  1  0.68666593  0.17163053  0.65542607  1.0
  O  O340  1  0.60697672  0.28396556  0.23821794  1.0
  O  O341  1  0.39302026  0.71603549  0.76178094  1.0
  O  O342  1  0.07863169  0.79236217  0.27167643  1.0
  O  O343  1  0.92137017  0.20763838  0.72832561  1.0
  O  O344  1  0.33181784  0.00398900  0.31716708  1.0
  O  O345  1  0.66818400  0.99600600  0.68283203  1.0
  O  O346  1  0.11627317  0.96295947  0.24268498  1.0
  O  O347  1  0.88372659  0.03704031  0.75731404  1.0
  O  O348  1  0.61814763  0.46613646  0.34221568  1.0
  O  O349  1  0.38185631  0.53386280  0.65778746  1.0
  O  O350  1  0.80804274  0.49548106  0.34383417  1.0
  O  O351  1  0.19195841  0.50451809  0.65616424  1.0
