# generated using pymatgen
data_Al6H41C70(ClO6)5
_symmetry_space_group_name_H-M   'P 1'
_cell_length_a   12.53295556
_cell_length_b   12.58439755
_cell_length_c   26.73539535
_cell_angle_alpha   81.73322890
_cell_angle_beta   82.62652904
_cell_angle_gamma   64.81324118
_symmetry_Int_Tables_number   1
_chemical_formula_structural   Al6H41C70(ClO6)5
_chemical_formula_sum   'Al6 H41 C70 Cl5 O30'
_cell_volume   3765.51902951
_cell_formula_units_Z   1
loop_
 _symmetry_equiv_pos_site_id
 _symmetry_equiv_pos_as_xyz
  1  'x, y, z'
loop_
 _atom_site_type_symbol
 _atom_site_label
 _atom_site_symmetry_multiplicity
 _atom_site_fract_x
 _atom_site_fract_y
 _atom_site_fract_z
 _atom_site_occupancy
  Al  Al0  1  0.59740132  0.58965876  0.49343841  1.0
  Al  Al1  1  0.57003871  0.34492575  0.50525888  1.0
  Al  Al2  1  0.34859789  0.57062849  0.50536250  1.0
  Al  Al3  1  0.06287849  0.07237757  0.02266275  1.0
  Al  Al4  1  0.31315679  0.08944317  0.00541193  1.0
  Al  Al5  1  0.09217777  0.31681532  0.00532265  1.0
  H  H6  1  0.15981370  0.83075127  0.80133066  1.0
  H  H7  1  0.36328410  0.66832402  0.73701751  1.0
  H  H8  1  0.29523811  0.71664208  0.81998832  1.0
  H  H9  1  0.47229817  0.89936454  0.78202968  1.0
  H  H10  1  0.79198915  0.51001906  0.78641394  1.0
  H  H11  1  0.76081130  0.51180735  0.70250649  1.0
  H  H12  1  0.02415269  0.23814412  0.69106648  1.0
  H  H13  1  0.96464096  0.39334509  0.68878387  1.0
  H  H14  1  0.01040250  0.37077364  0.77306123  1.0
  H  H15  1  0.05151211  0.21749083  0.77755266  1.0
  H  H16  1  0.21366677  0.74565543  0.72352617  1.0
  H  H17  1  0.90712193  0.13516711  0.72572117  1.0
  H  H18  1  0.73712915  0.24549228  0.81203377  1.0
  H  H19  1  0.68499313  0.45194878  0.80547920  1.0
  H  H20  1  0.47114163  0.37481255  0.19048024  1.0
  H  H21  1  0.15855243  0.48443352  0.29836794  1.0
  H  H22  1  0.27077617  0.53408448  0.27743582  1.0
  H  H23  1  0.25014796  0.51366250  0.19406464  1.0
  H  H24  1  0.23180070  0.03658391  0.68069877  1.0
  H  H25  1  0.14475680  0.45548853  0.21535347  1.0
  H  H26  1  0.37251845  0.16122645  0.31440376  1.0
  H  H27  1  0.52271423  0.23317762  0.28888138  1.0
  H  H28  1  0.51563910  0.22058231  0.20378655  1.0
  H  H29  1  0.20285953  0.24484316  0.23681329  1.0
  H  H30  1  0.13434985  0.96992469  0.70626217  1.0
  H  H31  1  0.13846095  0.03963778  0.78266466  1.0
  H  H32  1  0.26739467  0.06389120  0.76066290  1.0
  H  H33  1  0.50978147  0.76163910  0.70318145  1.0
  H  H34  1  0.48314032  0.75279351  0.79164325  1.0
  H  H35  1  0.63373583  0.51894458  0.64819110  1.0
  H  H36  1  0.51877144  0.61852633  0.68602203  1.0
  H  H37  1  0.42274652  0.47453386  0.70248574  1.0
  H  H38  1  0.43145983  0.52717583  0.63758651  1.0
  H  H39  1  0.53352375  0.38252883  0.66001942  1.0
  H  H40  1  0.61985039  0.85146775  0.65588701  1.0
  H  H41  1  0.61518547  0.89610995  0.71699214  1.0
  H  H42  1  0.53417311  0.10768482  0.68156763  1.0
  H  H43  1  0.67065662  0.02587883  0.64801459  1.0
  H  H44  1  0.53476296  0.06648783  0.62054448  1.0
  H  H45  1  0.70963466  0.68980444  0.45262820  1.0
  H  H46  1  0.95002448  0.97663970  0.00513060  1.0
  C  C47  1  0.71969811  0.37100025  0.56508908  1.0
  C  C48  1  0.30945403  0.31021379  0.72737778  1.0
  C  C49  1  0.32060044  0.32354794  0.67660593  1.0
  C  C50  1  0.33773143  0.34002021  0.63048769  1.0
  C  C51  1  0.28747464  0.75452060  0.73782314  1.0
  C  C52  1  0.22026556  0.97106087  0.71001749  1.0
  C  C53  1  0.22708056  0.00075640  0.76334176  1.0
  C  C54  1  0.28184390  0.92750430  0.89277080  1.0
  C  C55  1  0.31840532  0.84712663  0.70125416  1.0
  C  C56  1  0.25586492  0.79258732  0.79197786  1.0
  C  C57  1  0.30247235  0.88682418  0.79613841  1.0
  C  C58  1  0.37546271  0.37668565  0.58053857  1.0
  C  C59  1  0.43219220  0.84196239  0.77374261  1.0
  C  C60  1  0.43652514  0.84258781  0.71569151  1.0
  C  C61  1  0.29203470  0.90970127  0.84852532  1.0
  C  C62  1  0.33195488  0.81674180  0.64975902  1.0
  C  C63  1  0.35041848  0.77842413  0.60873643  1.0
  C  C64  1  0.74337362  0.44084436  0.72641783  1.0
  C  C65  1  0.95845023  0.31419614  0.70978877  1.0
  C  C66  1  0.98149190  0.30349951  0.76615522  1.0
  C  C67  1  0.90213228  0.31231807  0.89710562  1.0
  C  C68  1  0.83276200  0.32216428  0.70486725  1.0
  C  C69  1  0.38690642  0.71254541  0.56525689  1.0
  C  C70  1  0.76734461  0.43820518  0.78184475  1.0
  C  C71  1  0.86713799  0.31960472  0.80027240  1.0
  C  C72  1  0.82659002  0.22178730  0.79378824  1.0
  C  C73  1  0.82734872  0.21127616  0.73725801  1.0
  C  C74  1  0.88505039  0.31788068  0.85291805  1.0
  C  C75  1  0.81232651  0.32441028  0.65258452  1.0
  C  C76  1  0.78497445  0.33314812  0.60967231  1.0
  C  C77  1  0.45904650  0.31623251  0.27097999  1.0
  C  C78  1  0.24344830  0.46261990  0.27593513  1.0
  C  C79  1  0.23375172  0.44644444  0.22078593  1.0
  C  C80  1  0.71310390  0.39138201  0.42458464  1.0
  C  C81  1  0.30686796  0.30072510  0.11042579  1.0
  C  C82  1  0.33592073  0.34789194  0.30116975  1.0
  C  C83  1  0.45104603  0.30678794  0.21486269  1.0
  C  C84  1  0.32514148  0.32315597  0.20625995  1.0
  C  C85  1  0.29345456  0.23035598  0.24208064  1.0
  C  C86  1  0.30384250  0.24244486  0.29783214  1.0
  C  C87  1  0.31683565  0.31060214  0.15393944  1.0
  C  C88  1  0.34584940  0.35728613  0.35373933  1.0
  C  C89  1  0.35728169  0.36553990  0.39725429  1.0
  C  C90  1  0.30415655  0.88755970  0.13617223  1.0
  C  C91  1  0.38397847  0.38803296  0.44407593  1.0
  C  C92  1  0.31921424  0.85551507  0.18124481  1.0
  C  C93  1  0.33431320  0.82503529  0.23079470  1.0
  C  C94  1  0.34636608  0.80275869  0.27672641  1.0
  C  C95  1  0.35962197  0.77893459  0.32657053  1.0
  C  C96  1  0.37194121  0.75630247  0.37220767  1.0
  C  C97  1  0.91009227  0.29812402  0.14035102  1.0
  C  C98  1  0.88335485  0.31224937  0.18545151  1.0
  C  C99  1  0.85573906  0.32614858  0.23488020  1.0
  C  C100  1  0.83118634  0.33742052  0.28055100  1.0
  C  C101  1  0.79995506  0.35119298  0.32982069  1.0
  C  C102  1  0.39621091  0.70931368  0.42374496  1.0
  C  C103  1  0.76810204  0.36466354  0.37468298  1.0
  C  C104  1  0.25833528  0.96513018  0.94274962  1.0
  C  C105  1  0.27773747  0.27156297  0.92506382  1.0
  C  C106  1  0.94658402  0.28637334  0.94644723  1.0
  C  C107  1  0.27447931  0.94547795  0.08629836  1.0
  C  C108  1  0.28030114  0.27652264  0.06386070  1.0
  C  C109  1  0.95816877  0.26987380  0.08976766  1.0
  C  C110  1  0.29758737  0.29152242  0.87105077  1.0
  C  C111  1  0.30178325  0.29718745  0.82466592  1.0
  C  C112  1  0.30570786  0.30348259  0.77405576  1.0
  C  C113  1  0.56742929  0.52466270  0.68000197  1.0
  C  C114  1  0.48420444  0.47392962  0.66919340  1.0
  C  C115  1  0.57314592  0.92370999  0.68055599  1.0
  C  C116  1  0.57843279  0.03761987  0.65617441  1.0
  Cl  Cl117  1  0.70766493  0.17789045  0.72603588  1.0
  Cl  Cl118  1  0.91567557  0.08109136  0.82520424  1.0
  Cl  Cl119  1  0.51491705  0.42364933  0.27681555  1.0
  Cl  Cl120  1  0.16939353  0.25855532  0.33518978  1.0
  Cl  Cl121  1  0.38502343  0.08263747  0.22722102  1.0
  O  O122  1  0.49226243  0.68368641  0.54663779  1.0
  O  O123  1  0.48028945  0.31334088  0.46267896  1.0
  O  O124  1  0.31297877  0.48378535  0.46260386  1.0
  O  O125  1  0.31429382  0.68601028  0.45075141  1.0
  O  O126  1  0.50446599  0.50039821  0.50141028  1.0
  O  O127  1  0.95917213  0.18878757  0.97081186  1.0
  O  O128  1  0.15662039  0.98671957  0.96450581  1.0
  O  O129  1  0.34231066  0.97800600  0.96107661  1.0
  O  O130  1  0.35187824  0.17631641  0.94690204  1.0
  O  O131  1  0.18427047  0.34701809  0.94595970  1.0
  O  O132  1  0.97589698  0.36380842  0.96066832  1.0
  O  O133  1  0.69501308  0.47570313  0.54591594  1.0
  O  O134  1  0.97773870  0.16854233  0.07902364  1.0
  O  O135  1  0.17351683  0.96678597  0.07341951  1.0
  O  O136  1  0.35354651  0.97464289  0.05994121  1.0
  O  O137  1  0.35012419  0.17954843  0.04608399  1.0
  O  O138  1  0.18438318  0.35147381  0.04493441  1.0
  O  O139  1  0.98058884  0.35009138  0.06061422  1.0
  O  O140  1  0.15724557  0.16114668  0.01081967  1.0
  O  O141  1  0.68617815  0.29730853  0.55033736  1.0
  O  O142  1  0.47583317  0.30778718  0.56149301  1.0
  O  O143  1  0.30797689  0.47872180  0.56108816  1.0
  O  O144  1  0.30997284  0.68319730  0.55006263  1.0
  O  O145  1  0.49570375  0.69047651  0.43767311  1.0
  O  O146  1  0.69397147  0.49077324  0.43766426  1.0
  O  O147  1  0.68450977  0.31187522  0.45096718  1.0
  O  O148  1  0.62329453  0.46191405  0.72588148  1.0
  O  O149  1  0.45143516  0.94231303  0.68897400  1.0
  O  O150  1  0.68275992  0.67091994  0.48686811  1.0
  O  O151  1  0.97653272  0.99199109  0.03461221  1.0
