# generated using pymatgen
data_Zn2H22C45N2O13F2
_symmetry_space_group_name_H-M   'P 1'
_cell_length_a   16.49308573
_cell_length_b   17.89060510
_cell_length_c   33.21219986
_cell_angle_alpha   90.24138336
_cell_angle_beta   89.82227840
_cell_angle_gamma   89.92292568
_symmetry_Int_Tables_number   1
_chemical_formula_structural   Zn2H22C45N2O13F2
_chemical_formula_sum   'Zn4 H44 C90 N4 O26 F4'
_cell_volume   9799.82329364
_cell_formula_units_Z   2
loop_
 _symmetry_equiv_pos_site_id
 _symmetry_equiv_pos_as_xyz
  1  'x, y, z'
loop_
 _atom_site_type_symbol
 _atom_site_label
 _atom_site_symmetry_multiplicity
 _atom_site_fract_x
 _atom_site_fract_y
 _atom_site_fract_z
 _atom_site_occupancy
  Zn  Zn0  1  0.58403389  0.49921334  0.50063743  1.0
  Zn  Zn1  1  0.41531808  0.50090849  0.50003981  1.0
  Zn  Zn2  1  0.41603302  0.50147696  0.96150610  1.0
  Zn  Zn3  1  0.58466233  0.50291590  0.96204695  1.0
  H  H4  1  0.28935508  0.58185363  0.54542775  1.0
  H  H5  1  0.13680995  0.58811227  0.54838923  1.0
  H  H6  1  0.28441215  0.41856540  0.45634864  1.0
  H  H7  1  0.71534318  0.58222921  0.54391433  1.0
  H  H8  1  0.70950325  0.41755799  0.45561442  1.0
  H  H9  1  0.86208316  0.41139540  0.45221561  1.0
  H  H10  1  0.63126312  0.73465131  0.50062368  1.0
  H  H11  1  0.63601393  0.87468483  0.50003655  1.0
  H  H12  1  0.37061373  0.74175645  0.50032048  1.0
  H  H13  1  0.63016111  0.25763544  0.50000726  1.0
  H  H14  1  0.36955179  0.26625034  0.49984193  1.0
  H  H15  1  0.36388112  0.12621920  0.49970167  1.0
  H  H16  1  0.36887819  0.50052417  0.62895775  1.0
  H  H17  1  0.62896518  0.50002249  0.62800694  1.0
  H  H18  1  0.63088807  0.50124332  0.83308439  1.0
  H  H19  1  0.37078142  0.50086297  0.83406911  1.0
  H  H20  1  0.36840549  0.50288606  0.08831106  1.0
  H  H21  1  0.36334003  0.50239187  0.16377286  1.0
  H  H22  1  0.62902762  0.50236213  0.09184998  1.0
  H  H23  1  0.37095795  0.50002271  0.37028409  1.0
  H  H24  1  0.63159003  0.50035566  0.37384146  1.0
  H  H25  1  0.63665083  0.50122826  0.29836906  1.0
  H  H26  1  0.71037885  0.58389252  0.91687359  1.0
  H  H27  1  0.86292262  0.59029149  0.91399586  1.0
  H  H28  1  0.71590361  0.42129454  0.00558325  1.0
  H  H29  1  0.28462343  0.58423902  0.91832687  1.0
  H  H30  1  0.29064135  0.42030652  0.00626782  1.0
  H  H31  1  0.13805413  0.41448897  0.00965906  1.0
  H  H32  1  0.36854266  0.73740568  0.96094412  1.0
  H  H33  1  0.36418660  0.87750585  0.96106384  1.0
  H  H34  1  0.62923098  0.74330858  0.96123785  1.0
  H  H35  1  0.37017575  0.26000522  0.96172984  1.0
  H  H36  1  0.63076854  0.26800309  0.96180192  1.0
  H  H37  1  0.63645790  0.12795167  0.96158745  1.0
  H  H38  1  0.06813432  0.41334866  0.45309713  1.0
  H  H39  1  0.93160121  0.58674223  0.54711764  1.0
  H  H40  1  0.37165816  0.94079021  0.49973663  1.0
  H  H41  1  0.62776333  0.05858352  0.49986666  1.0
  H  H42  1  0.62752217  0.50187778  0.19905735  1.0
  H  H43  1  0.37249901  0.50120463  0.26307250  1.0
  H  H44  1  0.93216586  0.41641822  0.00896990  1.0
  H  H45  1  0.06837980  0.58917406  0.91510503  1.0
  H  H46  1  0.62863373  0.94239267  0.96108812  1.0
  H  H47  1  0.37256626  0.06097357  0.96128590  1.0
  C  C48  1  0.49900499  0.64666914  0.50111737  1.0
  C  C49  1  0.49875973  0.50055827  0.57942502  1.0
  C  C50  1  0.50263381  0.35345539  0.49981511  1.0
  C  C51  1  0.49870303  0.49942777  0.42135205  1.0
  C  C52  1  0.50079317  0.64882497  0.96093030  1.0
  C  C53  1  0.50109200  0.50175026  0.88265435  1.0
  C  C54  1  0.49766465  0.35554334  0.96212924  1.0
  C  C55  1  0.50125918  0.50214882  0.04078508  1.0
  C  C56  1  0.25130263  0.54694762  0.52631818  1.0
  C  C57  1  0.16747491  0.54998534  0.52771971  1.0
  C  C58  1  0.12206937  0.50322043  0.50212907  1.0
  C  C59  1  0.16469599  0.45444398  0.47575732  1.0
  C  C60  1  0.24946711  0.45507309  0.47629355  1.0
  C  C61  1  0.03655187  0.50261279  0.50157042  1.0
  C  C62  1  0.96279697  0.49739324  0.49857875  1.0
  C  C63  1  0.87727447  0.49683872  0.49814488  1.0
  C  C64  1  0.83488104  0.54585769  0.52449336  1.0
  C  C65  1  0.75009030  0.54533593  0.52409169  1.0
  C  C66  1  0.74778774  0.45284396  0.47440475  1.0
  C  C67  1  0.83161013  0.44983358  0.47279312  1.0
  C  C68  1  0.50092045  0.73045343  0.50074006  1.0
  C  C69  1  0.57585150  0.76775473  0.50058266  1.0
  C  C70  1  0.57821544  0.84515168  0.50020956  1.0
  C  C71  1  0.50576861  0.88721370  0.50002306  1.0
  C  C72  1  0.43032761  0.84889357  0.50012591  1.0
  C  C73  1  0.42844866  0.77104985  0.50043323  1.0
  C  C74  1  0.50447539  0.96603881  0.49976469  1.0
  C  C75  1  0.49495264  0.03410903  0.49966236  1.0
  C  C76  1  0.49403576  0.11294469  0.49964618  1.0
  C  C77  1  0.56975057  0.15082823  0.49971392  1.0
  C  C78  1  0.57214100  0.22866235  0.49976600  1.0
  C  C79  1  0.49992925  0.26968914  0.49973074  1.0
  C  C80  1  0.42473894  0.23282667  0.49971454  1.0
  C  C81  1  0.42186782  0.15542812  0.49966980  1.0
  C  C82  1  0.42537926  0.50067983  0.64577991  1.0
  C  C83  1  0.42482977  0.50077895  0.68798013  1.0
  C  C84  1  0.35147493  0.50099921  0.71102581  1.0
  C  C85  1  0.57276950  0.50045159  0.64524634  1.0
  C  C86  1  0.57405629  0.50079608  0.68742203  1.0
  C  C87  1  0.64786702  0.50111850  0.70989033  1.0
  C  C88  1  0.57436610  0.50134143  0.81627488  1.0
  C  C89  1  0.57487860  0.50124903  0.77407562  1.0
  C  C90  1  0.64823075  0.50127080  0.75102385  1.0
  C  C91  1  0.42697030  0.50110295  0.81682638  1.0
  C  C92  1  0.42563770  0.50107149  0.77464483  1.0
  C  C93  1  0.35183023  0.50109673  0.75216224  1.0
  C  C94  1  0.49888537  0.50053199  0.62469942  1.0
  C  C95  1  0.49963992  0.50088683  0.70965471  1.0
  C  C96  1  0.50086984  0.50134115  0.83737128  1.0
  C  C97  1  0.50004544  0.50109756  0.75241874  1.0
  C  C98  1  0.49879708  0.50219933  0.08591774  1.0
  C  C99  1  0.42374728  0.50241789  0.10607703  1.0
  C  C100  1  0.42119095  0.50223247  0.14778194  1.0
  C  C101  1  0.49355684  0.50192988  0.17034326  1.0
  C  C102  1  0.56909670  0.50194191  0.14962649  1.0
  C  C103  1  0.57114514  0.50209335  0.10769938  1.0
  C  C104  1  0.49489866  0.50167968  0.21278552  1.0
  C  C105  1  0.50506790  0.50143070  0.24937547  1.0
  C  C106  1  0.50642828  0.50085238  0.29180615  1.0
  C  C107  1  0.43088579  0.50047814  0.31251941  1.0
  C  C108  1  0.42884560  0.50000027  0.35443765  1.0
  C  C109  1  0.50120471  0.49976964  0.37621809  1.0
  C  C110  1  0.57626110  0.50016984  0.35606228  1.0
  C  C111  1  0.57880065  0.50072194  0.31435699  1.0
  C  C112  1  0.74853225  0.54916298  0.93591304  1.0
  C  C113  1  0.83236158  0.55229448  0.93456040  1.0
  C  C114  1  0.87795250  0.50578215  0.96006786  1.0
  C  C115  1  0.83548494  0.45717414  0.98631215  1.0
  C  C116  1  0.75071682  0.45768977  0.98573750  1.0
  C  C117  1  0.96346575  0.50527692  0.96066530  1.0
  C  C118  1  0.03726975  0.50021328  0.96351971  1.0
  C  C119  1  0.12278566  0.49962026  0.96393178  1.0
  C  C120  1  0.16511668  0.54833954  0.93769335  1.0
  C  C121  1  0.24990947  0.54757010  0.93806988  1.0
  C  C122  1  0.25232653  0.45552383  0.98756246  1.0
  C  C123  1  0.16851122  0.45270148  0.98917200  1.0
  C  C124  1  0.49888792  0.73262449  0.96094784  1.0
  C  C125  1  0.42403455  0.77025698  0.96093937  1.0
  C  C126  1  0.42189256  0.84767944  0.96105481  1.0
  C  C127  1  0.49446907  0.88936654  0.96116805  1.0
  C  C128  1  0.56982507  0.85071042  0.96107301  1.0
  C  C129  1  0.57148059  0.77286779  0.96104522  1.0
  C  C130  1  0.49591305  0.96816686  0.96138796  1.0
  C  C131  1  0.50543946  0.03619493  0.96149239  1.0
  C  C132  1  0.50631050  0.11500325  0.96167666  1.0
  C  C133  1  0.43060230  0.15307368  0.96171428  1.0
  C  C134  1  0.42821002  0.23091209  0.96187464  1.0
  C  C135  1  0.50041154  0.27175304  0.96200127  1.0
  C  C136  1  0.57559298  0.23469894  0.96188804  1.0
  C  C137  1  0.57847043  0.15729861  0.96174274  1.0
  N  N138  1  0.29072843  0.50028074  0.50098490  1.0
  N  N139  1  0.70861446  0.49985674  0.49964994  1.0
  N  N140  1  0.70928149  0.50261690  0.96111844  1.0
  N  N141  1  0.29144792  0.50223988  0.96241090  1.0
  O  O142  1  0.56728017  0.61326114  0.50170297  1.0
  O  O143  1  0.42972173  0.61523058  0.50075197  1.0
  O  O144  1  0.43007123  0.50223071  0.56211614  1.0
  O  O145  1  0.56768098  0.49893913  0.56206451  1.0
  O  O146  1  0.43463027  0.38744756  0.49998317  1.0
  O  O147  1  0.57218662  0.38430464  0.49977236  1.0
  O  O148  1  0.56681093  0.49869637  0.43937860  1.0
  O  O149  1  0.42924124  0.50000062  0.43823404  1.0
  O  O150  1  0.43255188  0.61550631  0.96050091  1.0
  O  O151  1  0.57011473  0.61727739  0.96135059  1.0
  O  O152  1  0.56980583  0.50349696  0.89994457  1.0
  O  O153  1  0.43220742  0.50034600  0.90005026  1.0
  O  O154  1  0.56563523  0.38944722  0.96207463  1.0
  O  O155  1  0.42809477  0.38651089  0.96221835  1.0
  O  O156  1  0.43313891  0.50145935  0.02276263  1.0
  O  O157  1  0.57069658  0.50280735  0.02388267  1.0
  O  O158  1  0.12686458  0.40722339  0.45000965  1.0
  O  O159  1  0.87288944  0.59324587  0.55005630  1.0
  O  O160  1  0.35887256  0.88726225  0.49993530  1.0
  O  O161  1  0.64095033  0.11203367  0.49976182  1.0
  O  O162  1  0.64045378  0.50176950  0.17020705  1.0
  O  O163  1  0.35954994  0.50065278  0.29191925  1.0
  O  O164  1  0.87345782  0.41021174  0.01198426  1.0
  O  O165  1  0.12708504  0.59561197  0.91223661  1.0
  O  O166  1  0.64135189  0.88881154  0.96103220  1.0
  O  O167  1  0.35939634  0.11446265  0.96154757  1.0
  F  F168  1  0.28046710  0.50141651  0.77262928  1.0
  F  F169  1  0.27972436  0.50128085  0.69108374  1.0
  F  F170  1  0.71998067  0.50156991  0.77096721  1.0
  F  F171  1  0.71921262  0.50130235  0.68940697  1.0
