# generated using pymatgen
data_ZnH8C12(N2Cl)2
_symmetry_space_group_name_H-M   'P 1'
_cell_length_a   5.82493927
_cell_length_b   25.25191631
_cell_length_c   26.22918470
_cell_angle_alpha   89.28615512
_cell_angle_beta   83.61091355
_cell_angle_gamma   83.41308708
_symmetry_Int_Tables_number   1
_chemical_formula_structural   ZnH8C12(N2Cl)2
_chemical_formula_sum   'Zn6 H48 C72 N24 Cl12'
_cell_volume   3808.80266715
_cell_formula_units_Z   6
loop_
 _symmetry_equiv_pos_site_id
 _symmetry_equiv_pos_as_xyz
  1  'x, y, z'
loop_
 _atom_site_type_symbol
 _atom_site_label
 _atom_site_symmetry_multiplicity
 _atom_site_fract_x
 _atom_site_fract_y
 _atom_site_fract_z
 _atom_site_occupancy
  Zn  Zn0  1  0.14488725  0.74930173  0.27609187  1.0
  Zn  Zn1  1  0.17048588  0.25082079  0.72370280  1.0
  Zn  Zn2  1  0.17104616  0.24928095  0.22387854  1.0
  Zn  Zn3  1  0.64367403  0.75083980  0.77620884  1.0
  Zn  Zn4  1  0.35630528  0.50004003  0.50015829  1.0
  Zn  Zn5  1  0.60621567  0.99993877  0.00002410  1.0
  H  H6  1  0.69481781  0.72817547  0.34143078  1.0
  H  H7  1  0.45475301  0.65268792  0.35505529  1.0
  H  H8  1  0.91245268  0.56787467  0.23454821  1.0
  H  H9  1  0.13170602  0.64870008  0.22424446  1.0
  H  H10  1  0.99475881  0.59484221  0.39558011  1.0
  H  H11  1  0.62230676  0.58847245  0.45309973  1.0
  H  H12  1  0.65617672  0.42610315  0.42828074  1.0
  H  H13  1  0.03179512  0.42550490  0.37004574  1.0
  H  H14  1  0.44390532  0.36404807  0.31319410  1.0
  H  H15  1  0.68489992  0.27971219  0.28358237  1.0
  H  H16  1  0.20047717  0.36224403  0.20865265  1.0
  H  H17  1  0.98092480  0.45092112  0.23745369  1.0
  H  H18  1  0.76516325  0.27184700  0.65815256  1.0
  H  H19  1  0.46318833  0.34727740  0.64460762  1.0
  H  H20  1  0.71535917  0.43209654  0.76515443  1.0
  H  H21  1  0.00425260  0.35120656  0.77560111  1.0
  H  H22  1  0.98499287  0.40508791  0.60442255  1.0
  H  H23  1  0.66234697  0.41147214  0.54729660  1.0
  H  H24  1  0.51099733  0.57388847  0.57201790  1.0
  H  H25  1  0.82797273  0.57439081  0.63021130  1.0
  H  H26  1  0.12141688  0.63571160  0.68683514  1.0
  H  H27  1  0.24747912  0.72017691  0.71655890  1.0
  H  H28  1  0.77087207  0.63793504  0.79145949  1.0
  H  H29  1  0.67012367  0.54917544  0.76244850  1.0
  H  H30  1  0.78669458  0.22810939  0.15844373  1.0
  H  H31  1  0.56041337  0.15256769  0.14482557  1.0
  H  H32  1  0.89803810  0.06778232  0.26517984  1.0
  H  H33  1  0.10552569  0.14880274  0.27577528  1.0
  H  H34  1  0.14027125  0.09482620  0.10456309  1.0
  H  H35  1  0.82481166  0.08849535  0.04720595  1.0
  H  H36  1  0.83468631  0.92607712  0.07171458  1.0
  H  H37  1  0.15216897  0.92545652  0.12989540  1.0
  H  H38  1  0.50879912  0.86411801  0.18639772  1.0
  H  H39  1  0.71951095  0.77975373  0.21617656  1.0
  H  H40  1  0.15853303  0.86233427  0.29152560  1.0
  H  H41  1  0.96882463  0.95098980  0.26248711  1.0
  H  H42  1  0.17289235  0.77198430  0.84169835  1.0
  H  H43  1  0.85764122  0.84746049  0.85534923  1.0
  H  H44  1  0.22981670  0.93209380  0.73458490  1.0
  H  H45  1  0.52959568  0.85127592  0.72424246  1.0
  H  H46  1  0.33951746  0.90512929  0.89562867  1.0
  H  H47  1  0.96024912  0.91145932  0.95299107  1.0
  H  H48  1  0.83228653  0.07380970  0.92819300  1.0
  H  H49  1  0.20724878  0.07440462  0.86990749  1.0
  H  H50  1  0.55864294  0.13602393  0.81350660  1.0
  H  H51  1  0.71506260  0.22036413  0.78368768  1.0
  H  H52  1  0.31267172  0.13788290  0.70866284  1.0
  H  H53  1  0.18195890  0.04919784  0.73755686  1.0
  C  C54  1  0.73830777  0.69197823  0.31852501  1.0
  C  C55  1  0.60432660  0.64968147  0.32598371  1.0
  C  C56  1  0.66875656  0.60366675  0.29624131  1.0
  C  C57  1  0.85955661  0.60294243  0.25853443  1.0
  C  C58  1  0.98138641  0.64698549  0.25281587  1.0
  C  C59  1  0.55037594  0.55502014  0.30537115  1.0
  C  C60  1  0.25857826  0.51117298  0.34373234  1.0
  C  C61  1  0.56356973  0.46537307  0.29560888  1.0
  C  C62  1  0.03763522  0.51059627  0.37732974  1.0
  C  C63  1  0.92300045  0.55703385  0.40121622  1.0
  C  C64  1  0.71824705  0.55364512  0.43326129  1.0
  C  C65  1  0.73783341  0.46238911  0.41925886  1.0
  C  C66  1  0.94303335  0.46238846  0.38699834  1.0
  C  C67  1  0.69444440  0.41415312  0.27722803  1.0
  C  C68  1  0.61080868  0.36540144  0.29028235  1.0
  C  C69  1  0.74617786  0.31832315  0.27416223  1.0
  C  C70  1  0.03369503  0.36508233  0.23254970  1.0
  C  C71  1  0.91087532  0.41365001  0.24778667  1.0
  C  C72  1  0.74945329  0.30802717  0.68109197  1.0
  C  C73  1  0.58069561  0.35030094  0.67366024  1.0
  C  C74  1  0.56939064  0.39628814  0.70345110  1.0
  C  C75  1  0.72153597  0.39701614  0.74117662  1.0
  C  C76  1  0.88126795  0.35295977  0.74693909  1.0
  C  C77  1  0.41148537  0.44490940  0.69443195  1.0
  C  C78  1  0.11381428  0.48871822  0.65628462  1.0
  C  C79  1  0.32523491  0.53452156  0.70436355  1.0
  C  C80  1  0.92575937  0.48931630  0.62276017  1.0
  C  C81  1  0.88106508  0.44289715  0.59887739  1.0
  C  C82  1  0.70435304  0.44630693  0.56702110  1.0
  C  C83  1  0.61959621  0.53758200  0.58102599  1.0
  C  C84  1  0.79276000  0.53754106  0.61320439  1.0
  C  C85  1  0.38635410  0.58577336  0.72275261  1.0
  C  C86  1  0.26665148  0.63446800  0.70975632  1.0
  C  C87  1  0.33824928  0.68160845  0.72593470  1.0
  C  C88  1  0.63108691  0.63501330  0.76752358  1.0
  C  C89  1  0.57273192  0.58639264  0.75218975  1.0
  C  C90  1  0.80723807  0.19193544  0.18136404  1.0
  C  C91  1  0.68085370  0.14962119  0.17389144  1.0
  C  C92  1  0.71574261  0.10361322  0.20359389  1.0
  C  C93  1  0.86878428  0.10289102  0.24128861  1.0
  C  C94  1  0.98428889  0.14701044  0.24712127  1.0
  C  C95  1  0.60643768  0.05498641  0.19446563  1.0
  C  C96  1  0.35254038  0.01114687  0.15625239  1.0
  C  C97  1  0.60997403  0.96536052  0.20421001  1.0
  C  C98  1  0.16509061  0.01056099  0.12270183  1.0
  C  C99  1  0.07418268  0.05701165  0.09890077  1.0
  C  C100  1  0.90121258  0.05365047  0.06693706  1.0
  C  C101  1  0.90727047  0.96236159  0.08076060  1.0
  C  C102  1  0.08029392  0.96234421  0.11298312  1.0
  C  C103  1  0.72274328  0.91418275  0.22254817  1.0
  C  C104  1  0.65241120  0.86543725  0.20940998  1.0
  C  C105  1  0.77121760  0.81836727  0.22562598  1.0
  C  C106  1  0.01630012  0.86514739  0.26747060  1.0
  C  C107  1  0.90918557  0.91371139  0.25213005  1.0
  C  C108  1  0.18016870  0.80815229  0.81876177  1.0
  C  C109  1  0.00404163  0.85043842  0.82622825  1.0
  C  C110  1  0.02238850  0.89640051  0.79641677  1.0
  C  C111  1  0.21211931  0.89706575  0.75861985  1.0
  C  C112  1  0.37782668  0.85303073  0.75288742  1.0
  C  C113  1  0.85553132  0.94503903  0.80552309  1.0
  C  C114  1  0.51976606  0.98882149  0.84379383  1.0
  C  C115  1  0.77913598  0.03466865  0.79572767  1.0
  C  C116  1  0.29817961  0.98935817  0.87734415  1.0
  C  C117  1  0.22994599  0.94291998  0.90123363  1.0
  C  C118  1  0.02159113  0.94628974  0.93319630  1.0
  C  C119  1  0.95016561  0.03753504  0.91917498  1.0
  C  C120  1  0.15534995  0.03754161  0.88693110  1.0
  C  C121  1  0.85892651  0.08591698  0.77742037  1.0
  C  C122  1  0.72675289  0.13466851  0.79052048  1.0
  C  C123  1  0.81489792  0.18175352  0.77430672  1.0
  C  C124  1  0.14890910  0.13502579  0.73261957  1.0
  C  C125  1  0.07470999  0.08645226  0.74792052  1.0
  N  N126  1  0.66344375  0.50990089  0.28397265  1.0
  N  N127  1  0.34767831  0.55784029  0.33570516  1.0
  N  N128  1  0.35965193  0.46396271  0.32448045  1.0
  N  N129  1  0.62743345  0.50728039  0.44193452  1.0
  N  N130  1  0.92458741  0.69036257  0.28302419  1.0
  N  N131  1  0.95365368  0.31827641  0.24585078  1.0
  N  N132  1  0.45823727  0.49001984  0.71585293  1.0
  N  N133  1  0.24164726  0.44207144  0.66419039  1.0
  N  N134  1  0.14845356  0.53590274  0.67560406  1.0
  N  N135  1  0.57613280  0.49269163  0.55840458  1.0
  N  N136  1  0.89823273  0.30963034  0.71666046  1.0
  N  N137  1  0.51718592  0.68176691  0.75427217  1.0
  N  N138  1  0.69837736  0.00987522  0.21578376  1.0
  N  N139  1  0.43370811  0.05781118  0.16424493  1.0
  N  N140  1  0.43449351  0.96394329  0.17547006  1.0
  N  N141  1  0.81920227  0.00727817  0.05820922  1.0
  N  N142  1  0.95767996  0.19036946  0.21691380  1.0
  N  N143  1  0.94973685  0.81833521  0.25410653  1.0
  N  N144  1  0.92357610  0.99016492  0.78413279  1.0
  N  N145  1  0.65558434  0.94219329  0.83583307  1.0
  N  N146  1  0.57359818  0.03603279  0.82452011  1.0
  N  N147  1  0.88450564  0.99264330  0.94183429  1.0
  N  N148  1  0.36457304  0.80972497  0.78318158  1.0
  N  N149  1  0.02209930  0.18182395  0.74590110  1.0
  Cl  Cl150  1  0.40502090  0.72210333  0.20972923  1.0
  Cl  Cl151  1  0.23616846  0.77165706  0.35222885  1.0
  Cl  Cl152  1  0.24546589  0.42046622  0.48887684  1.0
  Cl  Cl153  1  0.33675392  0.27811917  0.79007859  1.0
  Cl  Cl154  1  0.36083637  0.22833780  0.64764552  1.0
  Cl  Cl155  1  0.15543777  0.57965599  0.51143716  1.0
  Cl  Cl156  1  0.36431730  0.22210460  0.29028912  1.0
  Cl  Cl157  1  0.33925457  0.27170125  0.14783207  1.0
  Cl  Cl158  1  0.48498090  0.92026177  0.01113112  1.0
  Cl  Cl159  1  0.87646674  0.77793826  0.70976403  1.0
  Cl  Cl160  1  0.75788910  0.72851111  0.85228118  1.0
  Cl  Cl161  1  0.41631800  0.07952614  0.98880710  1.0
