# generated using pymatgen
data_Zr3H9C26S5ClO21
_symmetry_space_group_name_H-M   'P 1'
_cell_length_a   16.45710690
_cell_length_b   16.46142253
_cell_length_c   16.46020042
_cell_angle_alpha   88.65564875
_cell_angle_beta   60.24125987
_cell_angle_gamma   60.24290395
_symmetry_Int_Tables_number   1
_chemical_formula_structural   Zr3H9C26S5ClO21
_chemical_formula_sum   'Zr6 H18 C52 S10 Cl2 O42'
_cell_volume   3210.33524861
_cell_formula_units_Z   2
loop_
 _symmetry_equiv_pos_site_id
 _symmetry_equiv_pos_as_xyz
  1  'x, y, z'
loop_
 _atom_site_type_symbol
 _atom_site_label
 _atom_site_symmetry_multiplicity
 _atom_site_fract_x
 _atom_site_fract_y
 _atom_site_fract_z
 _atom_site_occupancy
  Zr  Zr0  1  0.51374652  0.09770776  0.59789585  1.0
  Zr  Zr1  1  0.49007840  0.89816747  0.39834721  1.0
  Zr  Zr2  1  0.29050507  0.10625425  0.60664713  1.0
  Zr  Zr3  1  0.71345434  0.88934080  0.38976393  1.0
  Zr  Zr4  1  0.50205204  0.10707296  0.38886651  1.0
  Zr  Zr5  1  0.50202651  0.88854048  0.60743317  1.0
  H  H6  1  0.34494943  0.24750940  0.57634425  1.0
  H  H7  1  0.65892832  0.91974246  0.24847950  1.0
  H  H8  1  0.32681932  0.91828930  0.58973275  1.0
  H  H9  1  0.67697598  0.90627868  0.57787123  1.0
  H  H10  1  0.02731176  0.36353296  0.87132546  1.0
  H  H11  1  0.30665105  0.34422416  0.85120102  1.0
  H  H12  1  0.97621672  0.62495779  0.13251484  1.0
  H  H13  1  0.69689556  0.64519346  0.15182078  1.0
  H  H14  1  0.50745995  0.55043765  0.67890914  1.0
  H  H15  1  0.51074715  0.43811431  0.31029875  1.0
  H  H16  1  0.49135957  0.18694501  0.05872731  1.0
  H  H17  1  0.49407586  0.81865999  0.94645611  1.0
  H  H18  1  0.89257991  0.18963615  0.93923383  1.0
  H  H19  1  0.11251688  0.81569410  0.06671322  1.0
  H  H20  1  0.89190044  0.43022153  0.68122011  1.0
  H  H21  1  0.11174823  0.55786646  0.30746179  1.0
  H  H22  1  0.24447430  0.82892182  0.31932016  1.0
  H  H23  1  0.75938095  0.17673292  0.66703644  1.0
  C  C24  1  0.52013572  0.26140235  0.48368537  1.0
  C  C25  1  0.48332602  0.01275808  0.23479617  1.0
  C  C26  1  0.49733215  0.72759926  0.50589373  1.0
  C  C27  1  0.50628113  0.99057830  0.76851468  1.0
  C  C28  1  0.25304224  0.25938846  0.76578307  1.0
  C  C29  1  0.78009795  0.99568160  0.48857154  1.0
  C  C30  1  0.75059762  0.73041596  0.23666237  1.0
  C  C31  1  0.22376228  0.00755025  0.50026110  1.0
  C  C32  1  0.23002029  0.26982133  0.49731494  1.0
  C  C33  1  0.23063486  0.00377522  0.77705141  1.0
  C  C34  1  0.77351329  0.71912897  0.49240634  1.0
  C  C35  1  0.77418058  0.99877766  0.22637642  1.0
  C  C36  1  0.50727732  0.57815770  0.56570582  1.0
  C  C37  1  0.51518253  0.40851116  0.42144906  1.0
  C  C38  1  0.50281874  0.63631061  0.50300006  1.0
  C  C39  1  0.51953289  0.35041116  0.48419668  1.0
  C  C40  1  0.51130536  0.49137751  0.45110117  1.0
  C  C41  1  0.51239128  0.49474507  0.53542873  1.0
  C  C42  1  0.48729350  0.07559672  0.08814389  1.0
  C  C43  1  0.49512500  0.93145938  0.91844908  1.0
  C  C44  1  0.48310071  0.01275831  0.14616951  1.0
  C  C45  1  0.50010944  0.99391539  0.86010059  1.0
  C  C46  1  0.48984131  0.96177366  0.00197510  1.0
  C  C47  1  0.49111825  0.04599781  0.00528791  1.0
  C  C48  1  0.02413991  0.07299368  0.91781395  1.0
  C  C49  1  0.98092577  0.93318080  0.08941067  1.0
  C  C50  1  0.14089561  0.00570949  0.86636682  1.0
  C  C51  1  0.86414328  0.00003155  0.14042693  1.0
  C  C52  1  0.03904988  0.96026062  0.00846220  1.0
  C  C53  1  0.96603738  0.04647377  0.99936768  1.0
  C  C54  1  0.02337906  0.40725862  0.56339142  1.0
  C  C55  1  0.98010530  0.57896336  0.42368247  1.0
  C  C56  1  0.14011772  0.35608816  0.49634503  1.0
  C  C57  1  0.86335487  0.63020156  0.49081837  1.0
  C  C58  1  0.03824700  0.49735389  0.45013276  1.0
  C  C59  1  0.96524375  0.48825293  0.53635494  1.0
  C  C60  1  0.05750791  0.39261432  0.90023635  1.0
  C  C61  1  0.21565767  0.38198234  0.88923757  1.0
  C  C62  1  0.14226197  0.46286673  0.96989278  1.0
  C  C63  1  0.02271181  0.51309489  0.02032971  1.0
  C  C64  1  0.94605470  0.59602122  0.10342712  1.0
  C  C65  1  0.78790068  0.60704506  0.11408270  1.0
  C  C66  1  0.86127544  0.52632413  0.03327052  1.0
  C  C67  1  0.98083516  0.47578535  0.98309402  1.0
  C  C68  1  0.17245623  0.34670949  0.85431799  1.0
  C  C69  1  0.83112464  0.64193998  0.14932355  1.0
  C  C70  1  0.15301726  0.94103390  0.42923534  1.0
  C  C71  1  0.85094453  0.06665398  0.55499365  1.0
  C  C72  1  0.13769195  0.00706118  0.49567685  1.0
  C  C73  1  0.86622124  0.00015027  0.48908918  1.0
  C  C74  1  0.95588539  0.04525409  0.53244640  1.0
  C  C75  1  0.04808136  0.96345443  0.45071473  1.0
  S  S76  1  0.50446938  0.58939981  0.40765763  1.0
  S  S77  1  0.51920318  0.39673043  0.57890251  1.0
  S  S78  1  0.48316139  0.91820647  0.09991527  1.0
  S  S79  1  0.49847335  0.08922475  0.90703111  1.0
  S  S80  1  0.17910810  0.91078600  0.91811670  1.0
  S  S81  1  0.82596823  0.09571879  0.08951133  1.0
  S  S82  1  0.17830255  0.40707574  0.40072532  1.0
  S  S83  1  0.82518269  0.57848408  0.58577702  1.0
  S  S84  1  0.99574455  0.09613842  0.58366518  1.0
  S  S85  1  0.00815014  0.91217291  0.39995982  1.0
  Cl  Cl86  1  0.80613346  0.48505495  0.99120209  1.0
  Cl  Cl87  1  0.19735716  0.50494404  0.01125452  1.0
  O  O88  1  0.52264383  0.22452979  0.55253854  1.0
  O  O89  1  0.48102751  0.94379194  0.27153411  1.0
  O  O90  1  0.49190036  0.76584276  0.43850673  1.0
  O  O91  1  0.51200343  0.05778653  0.73007574  1.0
  O  O92  1  0.21214883  0.22959947  0.73528974  1.0
  O  O93  1  0.81238837  0.92717327  0.42208241  1.0
  O  O94  1  0.79151842  0.76082117  0.26649552  1.0
  O  O95  1  0.19145753  0.07404992  0.56877803  1.0
  O  O96  1  0.33184218  0.23760478  0.42767507  1.0
  O  O97  1  0.33230665  0.93256881  0.74318358  1.0
  O  O98  1  0.67183039  0.75286116  0.56351499  1.0
  O  O99  1  0.67235146  0.06828626  0.25845478  1.0
  O  O100  1  0.19973335  0.07266128  0.73930386  1.0
  O  O101  1  0.80433496  0.75670828  0.42333464  1.0
  O  O102  1  0.80490100  0.92750680  0.26161413  1.0
  O  O103  1  0.19922298  0.23442942  0.56843926  1.0
  O  O104  1  0.35775271  0.22267232  0.72692146  1.0
  O  O105  1  0.32580793  0.93887700  0.43463086  1.0
  O  O106  1  0.64587588  0.76928242  0.27340395  1.0
  O  O107  1  0.67806250  0.06139618  0.55714506  1.0
  O  O108  1  0.50635882  0.92170898  0.73406375  1.0
  O  O109  1  0.51571763  0.22897807  0.41712944  1.0
  O  O110  1  0.48821147  0.07905992  0.26702692  1.0
  O  O111  1  0.49752219  0.76198829  0.57461456  1.0
  O  O112  1  0.62762598  0.93151601  0.55481515  1.0
  O  O113  1  0.37631879  0.94118983  0.56446850  1.0
  O  O114  1  0.61418688  0.94188700  0.31946049  1.0
  O  O115  1  0.38975335  0.17653463  0.55415081  1.0
  O  O116  1  0.40929266  0.04692070  0.45643463  1.0
  O  O117  1  0.59471429  0.03952781  0.44907589  1.0
  O  O118  1  0.58453986  0.86633345  0.45726118  1.0
  O  O119  1  0.41937920  0.03872451  0.62969106  1.0
  O  O120  1  0.50619889  0.60015486  0.64533166  1.0
  O  O121  1  0.51424258  0.38739104  0.34283229  1.0
  O  O122  1  0.48822241  0.15421464  0.10928197  1.0
  O  O123  1  0.49592983  0.85199997  0.89649598  1.0
  O  O124  1  0.97397738  0.15288316  0.89174563  1.0
  O  O125  1  0.03119551  0.85263307  0.11470444  1.0
  O  O126  1  0.97317891  0.38205046  0.64404771  1.0
  O  O127  1  0.03032760  0.60518022  0.34395391  1.0
  O  O128  1  0.25554371  0.86511508  0.35437960  1.0
  O  O129  1  0.74841052  0.14144663  0.63095471  1.0
