# generated using pymatgen
data_ZnH13C21N3O4
_symmetry_space_group_name_H-M   'P 1'
_cell_length_a   16.12306288
_cell_length_b   16.63220765
_cell_length_c   17.71726473
_cell_angle_alpha   89.56981317
_cell_angle_beta   89.49805557
_cell_angle_gamma   89.68725513
_symmetry_Int_Tables_number   1
_chemical_formula_structural   ZnH13C21N3O4
_chemical_formula_sum   'Zn2 H26 C42 N6 O8'
_cell_volume   4750.71412919
_cell_formula_units_Z   2
loop_
 _symmetry_equiv_pos_site_id
 _symmetry_equiv_pos_as_xyz
  1  'x, y, z'
loop_
 _atom_site_type_symbol
 _atom_site_label
 _atom_site_symmetry_multiplicity
 _atom_site_fract_x
 _atom_site_fract_y
 _atom_site_fract_z
 _atom_site_occupancy
  Zn  Zn0  1  0.49791208  0.41436313  0.50276562  1.0
  Zn  Zn1  1  0.49389564  0.58857978  0.49741103  1.0
  H  H2  1  0.40888436  0.29053302  0.43140803  1.0
  H  H3  1  0.53422507  0.62869566  0.87725176  1.0
  H  H4  1  0.53122933  0.36539639  0.26451406  1.0
  H  H5  1  0.51019939  0.63203654  0.73774693  1.0
  H  H6  1  0.52838631  0.62321232  0.26261504  1.0
  H  H7  1  0.49693417  0.37469469  0.73508062  1.0
  H  H8  1  0.54116180  0.62396760  0.12148793  1.0
  H  H9  1  0.52158218  0.36980821  0.87462758  1.0
  H  H10  1  0.60302324  0.12880830  0.58276530  1.0
  H  H11  1  0.39434489  0.87522573  0.41675135  1.0
  H  H12  1  0.98698841  0.57260829  0.67441477  1.0
  H  H13  1  0.58418027  0.71095835  0.57034737  1.0
  H  H14  1  0.89628524  0.52758146  0.66139277  1.0
  H  H15  1  0.00496795  0.42577187  0.32514960  1.0
  H  H16  1  0.09619915  0.46979439  0.33841443  1.0
  H  H17  1  0.66123155  0.25698959  0.61716744  1.0
  H  H18  1  0.62745666  0.34791835  0.57876365  1.0
  H  H19  1  0.36445864  0.65684018  0.42523814  1.0
  H  H20  1  0.33183522  0.74715388  0.38510777  1.0
  H  H21  1  0.40141483  0.14050622  0.42321808  1.0
  H  H22  1  0.59524195  0.86101152  0.57693689  1.0
  H  H23  1  0.04746305  0.40529704  0.59717642  1.0
  H  H24  1  0.94485877  0.59293224  0.40230852  1.0
  H  H25  1  0.05498379  0.63265071  0.52117832  1.0
  H  H26  1  0.93708819  0.36564899  0.47856687  1.0
  H  H27  1  0.54153039  0.36467866  0.12329260  1.0
  C  C28  1  0.48806701  0.50510326  0.64511334  1.0
  C  C29  1  0.51900636  0.42709570  0.84438873  1.0
  C  C30  1  0.54135572  0.49433042  0.11306600  1.0
  C  C31  1  0.52905192  0.49900773  0.88518873  1.0
  C  C32  1  0.54269874  0.49492686  0.03324904  1.0
  C  C33  1  0.53886959  0.49684174  0.96441467  1.0
  C  C34  1  0.55919433  0.16289740  0.54849237  1.0
  C  C35  1  0.43721035  0.84054538  0.45153278  1.0
  C  C36  1  0.56086777  0.24786598  0.54875135  1.0
  C  C37  1  0.43328330  0.75569361  0.45260722  1.0
  C  C38  1  0.45099672  0.25191025  0.46329412  1.0
  C  C39  1  0.51809288  0.49521399  0.35553405  1.0
  C  C40  1  0.54318574  0.75020300  0.53793941  1.0
  C  C41  1  0.44658650  0.16925548  0.45918042  1.0
  C  C42  1  0.54957020  0.83278098  0.54113141  1.0
  C  C43  1  0.65864321  0.51144754  0.51477585  1.0
  C  C44  1  0.33377891  0.49354046  0.48470230  1.0
  C  C45  1  0.50236140  0.12302347  0.50335389  1.0
  C  C46  1  0.49496334  0.87966574  0.49633820  1.0
  C  C47  1  0.50066307  0.03791678  0.50102076  1.0
  C  C48  1  0.49805273  0.96475650  0.49805337  1.0
  C  C49  1  0.02383318  0.44665138  0.55398168  1.0
  C  C50  1  0.53325129  0.42146781  0.23234907  1.0
  C  C51  1  0.96837557  0.55159756  0.44559591  1.0
  C  C52  1  0.97227907  0.52686299  0.56892576  1.0
  C  C53  1  0.01993898  0.47131729  0.43069843  1.0
  C  C54  1  0.74814727  0.50962475  0.51400784  1.0
  C  C55  1  0.24421089  0.49140779  0.48564108  1.0
  C  C56  1  0.96404775  0.42477036  0.48856279  1.0
  C  C57  1  0.02809761  0.57351753  0.51108527  1.0
  C  C58  1  0.91100863  0.50325071  0.50272945  1.0
  C  C59  1  0.08123003  0.49510968  0.49675497  1.0
  C  C60  1  0.82356729  0.50714400  0.50825630  1.0
  C  C61  1  0.51260756  0.57513195  0.76855934  1.0
  C  C62  1  0.16874115  0.49183701  0.49141349  1.0
  C  C63  1  0.53927666  0.42116631  0.15407555  1.0
  C  C64  1  0.52617454  0.57319929  0.84585000  1.0
  C  C65  1  0.52845424  0.49434059  0.27151833  1.0
  C  C66  1  0.50141198  0.50355691  0.72859490  1.0
  C  C67  1  0.53183700  0.56720609  0.23119676  1.0
  C  C68  1  0.50513027  0.42966382  0.76718350  1.0
  C  C69  1  0.53877356  0.56750811  0.15307179  1.0
  N  N70  1  0.50610976  0.29104375  0.50658990  1.0
  N  N71  1  0.48709624  0.71187691  0.49509731  1.0
  N  N72  1  0.94149089  0.56148721  0.63629951  1.0
  N  N73  1  0.05048002  0.43644174  0.36336808  1.0
  N  N74  1  0.61568152  0.28863881  0.59147230  1.0
  N  N75  1  0.37706530  0.71534907  0.41105706  1.0
  O  O76  1  0.47325925  0.43816936  0.61355897  1.0
  O  O77  1  0.50197890  0.56309725  0.38525834  1.0
  O  O78  1  0.49381830  0.57303858  0.61159668  1.0
  O  O79  1  0.52547398  0.42845943  0.39080633  1.0
  O  O80  1  0.62202285  0.44465790  0.52874992  1.0
  O  O81  1  0.36633659  0.56333742  0.49034828  1.0
  O  O82  1  0.62349321  0.57820530  0.50062982  1.0
  O  O83  1  0.37238284  0.42703162  0.47941592  1.0
