# generated using pymatgen
data_Zn4H39C44N17O2
_symmetry_space_group_name_H-M   'P 1'
_cell_length_a   14.43969484
_cell_length_b   15.01726838
_cell_length_c   15.34498042
_cell_angle_alpha   102.60136829
_cell_angle_beta   109.48260669
_cell_angle_gamma   114.43011968
_symmetry_Int_Tables_number   1
_chemical_formula_structural   Zn4H39C44N17O2
_chemical_formula_sum   'Zn4 H39 C44 N17 O2'
_cell_volume   2598.69315191
_cell_formula_units_Z   1
loop_
 _symmetry_equiv_pos_site_id
 _symmetry_equiv_pos_as_xyz
  1  'x, y, z'
loop_
 _atom_site_type_symbol
 _atom_site_label
 _atom_site_symmetry_multiplicity
 _atom_site_fract_x
 _atom_site_fract_y
 _atom_site_fract_z
 _atom_site_occupancy
  Zn  Zn0  1  0.12823636  0.64556726  0.07853856  1.0
  Zn  Zn1  1  0.84255493  0.37274401  0.98942874  1.0
  Zn  Zn2  1  0.85047846  0.50405272  0.84182653  1.0
  Zn  Zn3  1  0.12104351  0.49788820  0.17652577  1.0
  H  H4  1  0.15319241  0.87683318  0.14293327  1.0
  H  H5  1  0.77389744  0.48868175  0.12785653  1.0
  H  H6  1  0.59241222  0.47205130  0.77083757  1.0
  H  H7  1  0.37613393  0.66760054  0.40860816  1.0
  H  H8  1  0.56844713  0.28279217  0.94755108  1.0
  H  H9  1  0.37777277  0.86740944  0.24353875  1.0
  H  H10  1  0.14563753  0.70240679  0.31160622  1.0
  H  H11  1  0.78853816  0.66753156  0.92430084  1.0
  H  H12  1  0.15212024  0.54006494  0.87388463  1.0
  H  H13  1  0.80287494  0.15814236  0.84815479  1.0
  H  H14  1  0.75434900  0.50491123  0.60162666  1.0
  H  H15  1  0.10089678  0.32193324  0.26823143  1.0
  H  H16  1  0.75973027  0.14419148  0.00703866  1.0
  H  H17  1  0.12554213  0.72929105  0.75662408  1.0
  H  H18  1  0.16436820  0.33493942  0.03248726  1.0
  H  H19  1  0.80614764  0.33018368  0.65561177  1.0
  H  H20  1  0.49542756  0.83626974  0.56170582  1.0
  H  H21  1  0.42558770  0.90806166  0.54061523  1.0
  H  H22  1  0.58283069  0.04922830  0.69382440  1.0
  H  H23  1  0.66439127  0.98767194  0.69746552  1.0
  H  H24  1  0.64675415  0.86221608  0.50258338  1.0
  H  H25  1  0.80361406  0.03285872  0.62611605  1.0
  H  H26  1  0.54438313  0.01417130  0.37949310  1.0
  H  H27  1  0.43459717  0.99368920  0.41421060  1.0
  H  H28  1  0.56494947  0.14104146  0.57103606  1.0
  H  H29  1  0.66299811  0.17531498  0.52214285  1.0
  H  H30  1  0.65058192  0.91668900  0.41221466  1.0
  H  H31  1  0.78671439  0.09177261  0.53887221  1.0
  H  H32  1  0.10163243  0.76042474  0.60635641  1.0
  H  H33  1  0.84698551  0.57537063  0.47681983  1.0
  H  H34  1  0.11259678  0.74335592  0.45394206  1.0
  H  H35  1  0.84726704  0.59676661  0.33227799  1.0
  H  H36  1  0.37037368  0.24407411  0.89421946  1.0
  H  H37  1  0.40963196  0.42239335  0.81752418  1.0
  H  H38  1  0.23453778  0.26821720  0.93153145  1.0
  H  H39  1  0.25961130  0.42768928  0.83162522  1.0
  H  H40  1  0.75484597  0.97593190  0.01948510  1.0
  H  H41  1  0.99741292  0.10673375  0.20596129  1.0
  H  H42  1  0.77216568  0.81997243  0.02365937  1.0
  C  C43  1  0.06737438  0.81191799  0.08342040  1.0
  C  C44  1  0.86736587  0.53484116  0.15891456  1.0
  C  C45  1  0.60463871  0.42831039  0.81706174  1.0
  C  C46  1  0.36156183  0.70230223  0.35410387  1.0
  C  C47  1  0.59150732  0.33051408  0.90582480  1.0
  C  C48  1  0.36246768  0.80390128  0.26994151  1.0
  C  C49  1  0.05670055  0.64398717  0.25328843  1.0
  C  C50  1  0.88042651  0.70434951  0.97344516  1.0
  C  C51  1  0.96352969  0.81067842  0.04739828  1.0
  C  C52  1  0.95349822  0.61391678  0.25827607  1.0
  C  C53  1  0.53006481  0.36949955  0.85058959  1.0
  C  C54  1  0.42275884  0.80888555  0.36565078  1.0
  C  C55  1  0.15067863  0.49782472  0.92306240  1.0
  C  C56  1  0.81261139  0.21556941  0.81420004  1.0
  C  C57  1  0.84652046  0.55773823  0.65424306  1.0
  C  C58  1  0.01948897  0.29455985  0.20343437  1.0
  C  C59  1  0.84594636  0.20342142  0.06984598  1.0
  C  C60  1  0.03588698  0.67289534  0.73447134  1.0
  C  C61  1  0.15541969  0.39229782  0.00341626  1.0
  C  C62  1  0.81432340  0.30278084  0.71610996  1.0
  C  C63  1  0.17610390  0.41692767  0.92548690  1.0
  C  C64  1  0.77463417  0.19830295  0.71178506  1.0
  C  C65  1  0.93615676  0.62513918  0.63867351  1.0
  C  C66  1  0.92286630  0.18948697  0.14257092  1.0
  C  C67  1  0.50616817  0.91009446  0.55279431  1.0
  C  C68  1  0.61140267  0.01041823  0.64841985  1.0
  C  C69  1  0.64176270  0.92633547  0.48162934  1.0
  C  C70  1  0.52222730  0.00764016  0.44079781  1.0
  C  C71  1  0.52137244  0.90985068  0.45795896  1.0
  C  C72  1  0.68839883  0.09266623  0.61935153  1.0
  C  C73  1  0.73968456  0.03937423  0.56863714  1.0
  C  C74  1  0.60947103  0.11139679  0.53870540  1.0
  C  C75  1  0.01990289  0.70287634  0.53658824  1.0
  C  C76  1  0.92953599  0.63407435  0.54571711  1.0
  C  C77  1  0.02463784  0.69873094  0.44348582  1.0
  C  C78  1  0.93676922  0.63935092  0.34631103  1.0
  C  C79  1  0.35369334  0.30257981  0.87196821  1.0
  C  C80  1  0.42509117  0.36437739  0.84197178  1.0
  C  C81  1  0.26686736  0.31418064  0.89093788  1.0
  C  C82  1  0.23260322  0.38376737  0.87550915  1.0
  C  C83  1  0.83706714  0.99126130  0.07483085  1.0
  C  C84  1  0.91983104  0.09305946  0.14537640  1.0
  C  C85  1  0.85041683  0.89981245  0.05903168  1.0
  C  C86  1  0.94879355  0.90050064  0.07413486  1.0
  N  N87  1  0.04647203  0.71444094  0.03389035  1.0
  N  N88  1  0.91579800  0.51691423  0.10147103  1.0
  N  N89  1  0.70134347  0.42466365  0.84964768  1.0
  N  N90  1  0.27163967  0.63953044  0.25872442  1.0
  N  N91  1  0.69312406  0.36397365  0.90507482  1.0
  N  N92  1  0.27278874  0.70333292  0.20690393  1.0
  N  N93  1  0.03350784  0.58348961  0.15924688  1.0
  N  N94  1  0.93121434  0.64781163  0.96639280  1.0
  N  N95  1  0.12013053  0.52015407  0.99506128  1.0
  N  N96  1  0.86740192  0.32150443  0.87392673  1.0
  N  N97  1  0.89138812  0.56711131  0.75069097  1.0
  N  N98  1  0.00208206  0.36438204  0.16873264  1.0
  N  N99  1  0.89353705  0.30710535  0.08526946  1.0
  N  N100  1  0.00942595  0.63790167  0.80066143  1.0
  N  N101  1  0.12337018  0.45499471  0.04450878  1.0
  N  N102  1  0.86829191  0.37546516  0.81304521  1.0
  N  N103  1  0.05974849  0.00486624  0.11643699  1.0
  O  O104  1  0.13241485  0.03740905  0.20579649  1.0
  O  O105  1  0.07400856  0.04962109  0.05939296  1.0
