# generated using pymatgen
data_Al6H11C60Cl3O28
_symmetry_space_group_name_H-M   'P 1'
_cell_length_a   12.50397778
_cell_length_b   12.54346263
_cell_length_c   27.00404221
_cell_angle_alpha   90.35988036
_cell_angle_beta   97.95064281
_cell_angle_gamma   119.06725610
_symmetry_Int_Tables_number   1
_chemical_formula_structural   Al6H11C60Cl3O28
_chemical_formula_sum   'Al6 H11 C60 Cl3 O28'
_cell_volume   3653.13329968
_cell_formula_units_Z   1
loop_
 _symmetry_equiv_pos_site_id
 _symmetry_equiv_pos_as_xyz
  1  'x, y, z'
loop_
 _atom_site_type_symbol
 _atom_site_label
 _atom_site_symmetry_multiplicity
 _atom_site_fract_x
 _atom_site_fract_y
 _atom_site_fract_z
 _atom_site_occupancy
  Al  Al0  1  0.18554410  0.58761118  0.51032507  1.0
  Al  Al1  1  0.92701142  0.33584426  0.49767761  1.0
  Al  Al2  1  0.91792748  0.57101504  0.49650731  1.0
  Al  Al3  1  0.16250306  0.08555151  0.97836995  1.0
  Al  Al4  1  0.42286782  0.08657153  0.99599724  1.0
  Al  Al5  1  0.42912278  0.32936584  0.99743776  1.0
  H  H6  1  0.09116885  0.11684895  0.19888862  1.0
  H  H7  1  0.33432898  0.50760650  0.22131259  1.0
  H  H8  1  0.29846495  0.50470921  0.31016056  1.0
  H  H9  1  0.52105615  0.12008846  0.77243708  1.0
  H  H10  1  0.78119743  0.50621861  0.80464410  1.0
  H  H11  1  0.81107045  0.52185138  0.71528566  1.0
  H  H12  1  0.55109641  0.13575891  0.68307854  1.0
  H  H13  1  0.29812113  0.99998287  0.31702808  1.0
  H  H14  1  0.05546198  0.11386232  0.28771484  1.0
  H  H15  1  0.39093684  0.69020027  0.55203264  1.0
  H  H16  1  0.95797644  0.98331575  0.99416167  1.0
  C  C17  1  0.10608272  0.38403063  0.58068570  1.0
  C  C18  1  0.20369725  0.86926905  0.81883636  1.0
  C  C19  1  0.18296303  0.84138844  0.76922929  1.0
  C  C20  1  0.77337236  0.37824562  0.55386632  1.0
  C  C21  1  0.16308153  0.81870539  0.72329113  1.0
  C  C22  1  0.14095835  0.79173364  0.67357614  1.0
  C  C23  1  0.12012218  0.76531103  0.62812267  1.0
  C  C24  1  0.23224494  0.33895518  0.86811077  1.0
  C  C25  1  0.21352855  0.34802040  0.82293600  1.0
  C  C26  1  0.19324171  0.35466962  0.77335548  1.0
  C  C27  1  0.17440456  0.35707798  0.72742253  1.0
  C  C28  1  0.73120019  0.42556635  0.77789579  1.0
  C  C29  1  0.15327036  0.36045923  0.67764351  1.0
  C  C30  1  0.13292944  0.36401015  0.63209917  1.0
  C  C31  1  0.62888810  0.30445839  0.12557932  1.0
  C  C32  1  0.09603059  0.71391081  0.57741979  1.0
  C  C33  1  0.65038980  0.31453493  0.17163374  1.0
  C  C34  1  0.67036173  0.32364729  0.22195582  1.0
  C  C35  1  0.68536920  0.33054783  0.26828005  1.0
  C  C36  1  0.70691383  0.34128270  0.31861727  1.0
  C  C37  1  0.73056553  0.35361098  0.36463987  1.0
  C  C38  1  0.10856707  0.76664191  0.38932312  1.0
  C  C39  1  0.74770187  0.43432674  0.72803492  1.0
  C  C40  1  0.23843741  0.93138937  0.28625119  1.0
  C  C41  1  0.25881046  0.95444609  0.23724672  1.0
  C  C42  1  0.08495861  0.75336538  0.20701000  1.0
  C  C43  1  0.06383369  0.72959928  0.25637721  1.0
  C  C44  1  0.10369345  0.36463468  0.44046090  1.0
  C  C45  1  0.14139480  0.81880738  0.29653043  1.0
  C  C46  1  0.18351242  0.86618837  0.19654121  1.0
  C  C47  1  0.20538004  0.88967096  0.14688402  1.0
  C  C48  1  0.12316024  0.79290225  0.34650981  1.0
  C  C49  1  0.22486819  0.91101732  0.10411565  1.0
  C  C50  1  0.68291099  0.32983523  0.69325102  1.0
  C  C51  1  0.12888017  0.32676105  0.39537573  1.0
  C  C52  1  0.11651929  0.19938882  0.27292140  1.0
  C  C53  1  0.13619726  0.20104495  0.22358903  1.0
  C  C54  1  0.27374670  0.42205186  0.23620484  1.0
  C  C55  1  0.25394825  0.42047172  0.28546830  1.0
  C  C56  1  0.78175176  0.37933466  0.41717574  1.0
  C  C57  1  0.17377690  0.30935123  0.30430397  1.0
  C  C58  1  0.21391753  0.31257948  0.20442619  1.0
  C  C59  1  0.23014897  0.31359169  0.15367382  1.0
  C  C60  1  0.14873770  0.31300523  0.35353210  1.0
  C  C61  1  0.64933906  0.31206017  0.79448459  1.0
  C  C62  1  0.24139588  0.31151477  0.10961698  1.0
  C  C63  1  0.24397296  0.95168247  0.91404957  1.0
  C  C64  1  0.56437421  0.27007363  0.93503124  1.0
  C  C65  1  0.25550818  0.30651430  0.91772772  1.0
  C  C66  1  0.24883605  0.95477032  0.05549398  1.0
  C  C67  1  0.57678673  0.28110790  0.07321718  1.0
  C  C68  1  0.08882907  0.71220663  0.43638665  1.0
  C  C69  1  0.25604397  0.28925960  0.05951967  1.0
  C  C70  1  0.72308463  0.35150372  0.59958267  1.0
  C  C71  1  0.60108222  0.21636015  0.70984824  1.0
  C  C72  1  0.63014021  0.30244417  0.84511571  1.0
  C  C73  1  0.58453089  0.20762555  0.75970492  1.0
  C  C74  1  0.70248266  0.33993152  0.64267414  1.0
  C  C75  1  0.61056035  0.29242792  0.88834257  1.0
  C  C76  1  0.22211452  0.89752418  0.86403819  1.0
  Cl  Cl77  1  0.37842040  0.09293473  0.22590411  1.0
  Cl  Cl78  1  0.99239423  0.64610470  0.15816713  1.0
  Cl  Cl79  1  0.94548115  0.59270500  0.26875827  1.0
  O  O80  1  0.17733525  0.69297045  0.56406587  1.0
  O  O81  1  0.54749019  0.35214797  0.95526740  1.0
  O  O82  1  0.35934705  0.38249633  0.94524310  1.0
  O  O83  1  0.18485432  0.48150719  0.56504281  1.0
  O  O84  1  0.17351556  0.18925247  0.03574462  1.0
  O  O85  1  0.16773203  0.97192295  0.02936343  1.0
  O  O86  1  0.35424393  0.97768346  0.04387585  1.0
  O  O87  1  0.55171151  0.17933361  0.05130133  1.0
  O  O88  1  0.55343648  0.36164401  0.05367467  1.0
  O  O89  1  0.35427674  0.37025449  0.04349168  1.0
  O  O90  1  0.34047774  0.16803071  0.99122883  1.0
  O  O91  1  0.81222019  0.30389823  0.43709794  1.0
  O  O92  1  0.00128410  0.30247571  0.55579921  1.0
  O  O93  1  0.79662335  0.30019876  0.53399855  1.0
  O  O94  1  0.79779819  0.48187928  0.53726747  1.0
  O  O95  1  0.99148935  0.68929872  0.55092064  1.0
  O  O96  1  0.16951699  0.68674740  0.45681262  1.0
  O  O97  1  0.17610410  0.47403641  0.45813789  1.0
  O  O98  1  0.00692446  0.28612734  0.45830992  1.0
  O  O99  1  0.79816335  0.47827032  0.43876152  1.0
  O  O100  1  0.98765602  0.68954370  0.45221216  1.0
  O  O101  1  0.00805373  0.49749069  0.50184590  1.0
  O  O102  1  0.17507601  0.20434261  0.92920372  1.0
  O  O103  1  0.17053888  0.98851252  0.92310786  1.0
  O  O104  1  0.33845158  0.96194895  0.94431827  1.0
  O  O105  1  0.53738886  0.16615079  0.95202514  1.0
  O  O106  1  0.34709984  0.67198041  0.51798784  1.0
  O  O107  1  0.00076103  0.00881408  0.96560675  1.0
