# generated using pymatgen
data_InH14C24N2O5
_symmetry_space_group_name_H-M   'P 1'
_cell_length_a   7.32450248
_cell_length_b   16.87599938
_cell_length_c   17.19778580
_cell_angle_alpha   89.99989135
_cell_angle_beta   90.00012876
_cell_angle_gamma   102.54647621
_symmetry_Int_Tables_number   1
_chemical_formula_structural   InH14C24N2O5
_chemical_formula_sum   'In2 H28 C48 N4 O10'
_cell_volume   2075.02546321
_cell_formula_units_Z   2
loop_
 _symmetry_equiv_pos_site_id
 _symmetry_equiv_pos_as_xyz
  1  'x, y, z'
loop_
 _atom_site_type_symbol
 _atom_site_label
 _atom_site_symmetry_multiplicity
 _atom_site_fract_x
 _atom_site_fract_y
 _atom_site_fract_z
 _atom_site_occupancy
  In  In0  1  0.49999985  0.49999907  0.50000019  1.0
  In  In1  1  0.00000245  0.50000121  0.49999937  1.0
  H  H2  1  0.18871113  0.37754159  0.49999957  1.0
  H  H3  1  0.81128705  0.62245898  0.50000022  1.0
  H  H4  1  0.50000073  0.00000145  0.06309325  1.0
  H  H5  1  0.49999775  0.99999973  0.93690713  1.0
  H  H6  1  0.34455369  0.68889256  0.07842648  1.0
  H  H7  1  0.65544093  0.31110804  0.07842640  1.0
  H  H8  1  0.34455800  0.68889132  0.92157397  1.0
  H  H9  1  0.65544176  0.31110801  0.92157390  1.0
  H  H10  1  0.45902120  0.91809104  0.29733997  1.0
  H  H11  1  0.54098684  0.08190681  0.29734079  1.0
  H  H12  1  0.45901998  0.91809195  0.70266075  1.0
  H  H13  1  0.54098016  0.08190772  0.70266041  1.0
  H  H14  1  0.68354361  0.77998753  0.20977370  1.0
  H  H15  1  0.31645494  0.22001409  0.20977463  1.0
  H  H16  1  0.09627824  0.78007275  0.79009987  1.0
  H  H17  1  0.90371759  0.21992556  0.79009671  1.0
  H  H18  1  0.31645624  0.22001365  0.79022493  1.0
  H  H19  1  0.68354521  0.77998770  0.79022401  1.0
  H  H20  1  0.90371903  0.21992600  0.20990283  1.0
  H  H21  1  0.09627922  0.78007501  0.20990425  1.0
  H  H22  1  0.63032257  0.67529854  0.31554495  1.0
  H  H23  1  0.36967933  0.32470050  0.31554747  1.0
  H  H24  1  0.04468190  0.67537126  0.68432411  1.0
  H  H25  1  0.95531589  0.32462661  0.68432139  1.0
  H  H26  1  0.36968077  0.32470143  0.68445252  1.0
  H  H27  1  0.63032051  0.67530069  0.68445174  1.0
  H  H28  1  0.95531582  0.32462568  0.31567917  1.0
  H  H29  1  0.04468472  0.67537335  0.31567898  1.0
  C  C30  1  0.42532434  0.85081380  0.14166067  1.0
  C  C31  1  0.57467329  0.14918671  0.14166140  1.0
  C  C32  1  0.42532595  0.85081326  0.85833840  1.0
  C  C33  1  0.57467414  0.14918738  0.85833854  1.0
  C  C34  1  0.41313030  0.82591981  0.06331107  1.0
  C  C35  1  0.58686319  0.17408142  0.06331176  1.0
  C  C36  1  0.41313226  0.82591915  0.93668804  1.0
  C  C37  1  0.58686408  0.17408137  0.93668873  1.0
  C  C38  1  0.37054459  0.74083758  0.03955981  1.0
  C  C39  1  0.62944986  0.25916308  0.03956039  1.0
  C  C40  1  0.37054725  0.74083810  0.96043941  1.0
  C  C41  1  0.62944919  0.25916238  0.96043998  1.0
  C  C42  1  0.46568196  0.93139836  0.16799482  1.0
  C  C43  1  0.53432232  0.06860150  0.16799624  1.0
  C  C44  1  0.46568435  0.93139969  0.83200472  1.0
  C  C45  1  0.53431561  0.06860100  0.83200439  1.0
  C  C46  1  0.47911873  0.95827986  0.24738351  1.0
  C  C47  1  0.52089000  0.04171988  0.24738380  1.0
  C  C48  1  0.47911607  0.95828009  0.75261774  1.0
  C  C49  1  0.52088460  0.04172010  0.75261745  1.0
  C  C50  1  0.39339810  0.78702028  0.20344134  1.0
  C  C51  1  0.60659981  0.21298013  0.20344256  1.0
  C  C52  1  0.39340079  0.78701984  0.79655723  1.0
  C  C53  1  0.60659977  0.21297968  0.79655671  1.0
  C  C54  1  0.54360314  0.75711559  0.23325807  1.0
  C  C55  1  0.45639703  0.24288356  0.23325909  1.0
  C  C56  1  0.21332766  0.75714733  0.76666728  1.0
  C  C57  1  0.78667155  0.24284981  0.76666629  1.0
  C  C58  1  0.45639747  0.24288438  0.76674056  1.0
  C  C59  1  0.54360357  0.75711640  0.76674128  1.0
  C  C60  1  0.78667036  0.24285021  0.23333368  1.0
  C  C61  1  0.21332738  0.75714955  0.23333409  1.0
  C  C62  1  0.51469605  0.69901079  0.29210522  1.0
  C  C63  1  0.48530438  0.30098828  0.29210674  1.0
  C  C64  1  0.18400890  0.69903349  0.70782893  1.0
  C  C65  1  0.81598763  0.30096435  0.70782670  1.0
  C  C66  1  0.48530591  0.30098918  0.70789283  1.0
  C  C67  1  0.51469486  0.69901169  0.70789247  1.0
  C  C68  1  0.81598912  0.30096405  0.29217261  1.0
  C  C69  1  0.18401267  0.69903502  0.29217193  1.0
  C  C70  1  0.33474487  0.66979384  0.32211542  1.0
  C  C71  1  0.66525539  0.33020457  0.32211764  1.0
  C  C72  1  0.33474263  0.66979297  0.67788448  1.0
  C  C73  1  0.66525740  0.33020673  0.67788263  1.0
  C  C74  1  0.30378378  0.60773043  0.38556666  1.0
  C  C75  1  0.69622147  0.39226910  0.38556879  1.0
  C  C76  1  0.30378050  0.60773087  0.61443217  1.0
  C  C77  1  0.69621955  0.39226954  0.61443197  1.0
  N  N78  1  0.43834603  0.87646301  0.99999906  1.0
  N  N79  1  0.56164805  0.12353756  0.00000016  1.0
  N  N80  1  0.50000222  0.00000141  0.12240437  1.0
  N  N81  1  0.49999951  0.00000023  0.87759694  1.0
  O  O82  1  0.44756483  0.58413497  0.40998443  1.0
  O  O83  1  0.55243886  0.41586392  0.40998463  1.0
  O  O84  1  0.13643485  0.58417707  0.58995337  1.0
  O  O85  1  0.86356737  0.41582520  0.58995446  1.0
  O  O86  1  0.55243684  0.41586439  0.59001595  1.0
  O  O87  1  0.44756311  0.58413605  0.59001516  1.0
  O  O88  1  0.86356409  0.41582230  0.41004758  1.0
  O  O89  1  0.13643551  0.58417659  0.41004591  1.0
  O  O90  1  0.21823746  0.43635723  0.50000011  1.0
  O  O91  1  0.78176315  0.56364274  0.50000026  1.0
