# generated using pymatgen
data_CuH24(C5N)8
_symmetry_space_group_name_H-M   'P 1'
_cell_length_a   9.30815477
_cell_length_b   19.56174181
_cell_length_c   19.56009147
_cell_angle_alpha   117.54048052
_cell_angle_beta   99.12316892
_cell_angle_gamma   99.12699179
_symmetry_Int_Tables_number   1
_chemical_formula_structural   CuH24(C5N)8
_chemical_formula_sum   'Cu3 H72 C120 N24'
_cell_volume   3006.62930170
_cell_formula_units_Z   3
loop_
 _symmetry_equiv_pos_site_id
 _symmetry_equiv_pos_as_xyz
  1  'x, y, z'
loop_
 _atom_site_type_symbol
 _atom_site_label
 _atom_site_symmetry_multiplicity
 _atom_site_fract_x
 _atom_site_fract_y
 _atom_site_fract_z
 _atom_site_occupancy
  Cu  Cu0  1  0.50000237  0.50000444  0.49999954  1.0
  Cu  Cu1  1  0.00000353  0.50000106  0.00000286  1.0
  Cu  Cu2  1  0.99999955  0.99999731  0.49999743  1.0
  H  H3  1  0.06717678  0.49853472  0.64452956  1.0
  H  H4  1  0.42252643  0.35548656  0.85400223  1.0
  H  H5  1  0.56867374  0.14600376  0.50154377  1.0
  H  H6  1  0.93281745  0.50146400  0.35546197  1.0
  H  H7  1  0.57747875  0.64452112  0.14600503  1.0
  H  H8  1  0.43132626  0.85399137  0.49845576  1.0
  H  H9  1  0.09675135  0.34762346  0.57709676  1.0
  H  H10  1  0.51944940  0.42303803  0.77060103  1.0
  H  H11  1  0.74876320  0.22927119  0.65253395  1.0
  H  H12  1  0.90324334  0.65237406  0.42289835  1.0
  H  H13  1  0.48055302  0.57696845  0.22940392  1.0
  H  H14  1  0.25123890  0.77072812  0.34746665  1.0
  H  H15  1  0.44144047  0.19491025  0.40418569  1.0
  H  H16  1  0.03720878  0.59588172  0.79079565  1.0
  H  H17  1  0.24651609  0.20924011  0.80512534  1.0
  H  H18  1  0.55856175  0.80509145  0.59581346  1.0
  H  H19  1  0.96279779  0.40411998  0.20920537  1.0
  H  H20  1  0.75347985  0.79075561  0.19487620  1.0
  H  H21  1  0.66925957  0.23493839  0.34955207  1.0
  H  H22  1  0.31953816  0.65061503  0.88558093  1.0
  H  H23  1  0.43421487  0.11452773  0.76507651  1.0
  H  H24  1  0.33074199  0.76506630  0.65044586  1.0
  H  H25  1  0.68046782  0.34939205  0.11442611  1.0
  H  H26  1  0.56577371  0.88546202  0.23492272  1.0
  H  H27  1  0.94385572  0.09435703  0.40143541  1.0
  H  H28  1  0.54268452  0.59873065  0.69297021  1.0
  H  H29  1  0.84931273  0.30704405  0.90568363  1.0
  H  H30  1  0.05614713  0.90563929  0.59855210  1.0
  H  H31  1  0.45731837  0.40126806  0.30702914  1.0
  H  H32  1  0.15069744  0.69295406  0.09432368  1.0
  H  H33  1  0.04386125  0.22174747  0.40195434  1.0
  H  H34  1  0.64216726  0.59825162  0.81989487  1.0
  H  H35  1  0.82194188  0.18009344  0.77831888  1.0
  H  H36  1  0.95614197  0.77825184  0.59803969  1.0
  H  H37  1  0.35783575  0.40174949  0.18010457  1.0
  H  H38  1  0.17806830  0.81990467  0.22168690  1.0
  H  H39  1  0.44469119  0.26576094  0.57725868  1.0
  H  H40  1  0.86725897  0.42270055  0.68850472  1.0
  H  H41  1  0.17877484  0.31130171  0.73424189  1.0
  H  H42  1  0.55531064  0.73423777  0.42273651  1.0
  H  H43  1  0.13275364  0.57730235  0.31149630  1.0
  H  H44  1  0.82122074  0.68869760  0.26575616  1.0
  H  H45  1  0.32724489  0.13664171  0.56960535  1.0
  H  H46  1  0.75759635  0.43037793  0.56706324  1.0
  H  H47  1  0.19041349  0.43281439  0.86332394  1.0
  H  H48  1  0.67275666  0.86335641  0.43038749  1.0
  H  H49  1  0.24241596  0.56962437  0.43293798  1.0
  H  H50  1  0.80958565  0.56718552  0.13667466  1.0
  H  H51  1  0.18594979  0.79277797  0.84551686  1.0
  H  H52  1  0.34078413  0.15431112  0.94711218  1.0
  H  H53  1  0.39370206  0.05290696  0.20715350  1.0
  H  H54  1  0.81405059  0.20722433  0.15447629  1.0
  H  H55  1  0.65922696  0.84569536  0.05289907  1.0
  H  H56  1  0.60629032  0.94708816  0.79284698  1.0
  H  H57  1  0.35432217  0.72123831  0.76704985  1.0
  H  H58  1  0.58762539  0.23274928  0.95403615  1.0
  H  H59  1  0.63358375  0.04595976  0.27868375  1.0
  H  H60  1  0.64567392  0.27875981  0.23294462  1.0
  H  H61  1  0.41238256  0.76725959  0.04597136  1.0
  H  H62  1  0.36640983  0.95403776  0.72131740  1.0
  H  H63  1  0.96038184  0.57886795  0.56690918  1.0
  H  H64  1  0.39387005  0.43287505  0.01183338  1.0
  H  H65  1  0.38191234  0.98827373  0.42106004  1.0
  H  H66  1  0.03961448  0.42113495  0.43308445  1.0
  H  H67  1  0.60613156  0.56713203  0.98817536  1.0
  H  H68  1  0.61808005  0.01172139  0.57893839  1.0
  H  H69  1  0.81023939  0.65808181  0.65227565  1.0
  H  H70  1  0.15840281  0.34755961  0.00573203  1.0
  H  H71  1  0.15257273  0.99437352  0.34180779  1.0
  H  H72  1  0.18976012  0.34192527  0.34771914  1.0
  H  H73  1  0.84160413  0.65244508  0.99427704  1.0
  H  H74  1  0.84742152  0.00562100  0.65819153  1.0
  C  C75  1  0.24353192  0.51770896  0.58385483  1.0
  C  C76  1  0.65961927  0.41612923  0.93382946  1.0
  C  C77  1  0.72583266  0.06616262  0.48230580  1.0
  C  C78  1  0.75646725  0.48229095  0.41614071  1.0
  C  C79  1  0.34038691  0.58387606  0.06617472  1.0
  C  C80  1  0.27416885  0.93383549  0.51769267  1.0
  C  C81  1  0.13978285  0.47367050  0.60650977  1.0
  C  C82  1  0.53312364  0.39350796  0.86716714  1.0
  C  C83  1  0.66604632  0.13280939  0.52642359  1.0
  C  C84  1  0.86020999  0.52632761  0.39348241  1.0
  C  C85  1  0.46688242  0.60649494  0.13283644  1.0
  C  C86  1  0.33395686  0.86718992  0.47357913  1.0
  C  C87  1  0.15523795  0.39752194  0.57277748  1.0
  C  C88  1  0.58225999  0.42731053  0.82479349  1.0
  C  C89  1  0.75745141  0.17510291  0.60260325  1.0
  C  C90  1  0.84476149  0.60247856  0.42722244  1.0
  C  C91  1  0.41773906  0.57269357  0.17520959  1.0
  C  C92  1  0.24254851  0.82489640  0.39739769  1.0
  C  C93  1  0.26888030  0.39493532  0.52963053  1.0
  C  C94  1  0.73905335  0.47043472  0.86533519  1.0
  C  C95  1  0.87368860  0.13453101  0.60514281  1.0
  C  C96  1  0.73111666  0.60506459  0.47036943  1.0
  C  C97  1  0.26095084  0.52956878  0.13466801  1.0
  C  C98  1  0.12631103  0.86546770  0.39485630  1.0
  C  C99  1  0.32178126  0.32764036  0.49000164  1.0
  C  C100  1  0.83159022  0.51006945  0.83768812  1.0
  C  C101  1  0.99394132  0.16218345  0.67240572  1.0
  C  C102  1  0.67821759  0.67235895  0.50999615  1.0
  C  C103  1  0.16841496  0.48993165  0.16231303  1.0
  C  C104  1  0.00606107  0.83781646  0.32759568  1.0
  C  C105  1  0.43729638  0.32384708  0.45142693  1.0
  C  C106  1  0.98567136  0.54866544  0.87249800  1.0
  C  C107  1  0.11333464  0.12747100  0.67620348  1.0
  C  C108  1  0.56270554  0.67615402  0.54857141  1.0
  C  C109  1  0.01433580  0.45133745  0.12750362  1.0
  C  C110  1  0.88666467  0.87252712  0.32379788  1.0
  C  C111  1  0.48835022  0.25279145  0.41095732  1.0
  C  C112  1  0.07722039  0.58917481  0.84195285  1.0
  C  C113  1  0.23545231  0.15808743  0.74725661  1.0
  C  C114  1  0.51165418  0.74721025  0.58904149  1.0
  C  C115  1  0.92278648  0.41082748  0.15804847  1.0
  C  C116  1  0.76454174  0.84190889  0.25274608  1.0
  C  C117  1  0.60293693  0.27287804  0.38249333  1.0
  C  C118  1  0.22020663  0.61767842  0.89055287  1.0
  C  C119  1  0.32990752  0.10950739  0.72715764  1.0
  C  C120  1  0.39706233  0.72712425  0.61750587  1.0
  C  C121  1  0.77980180  0.38232268  0.10945057  1.0
  C  C122  1  0.67008456  0.89048714  0.27284254  1.0
  C  C123  1  0.62176514  0.35615307  0.40510388  1.0
  C  C124  1  0.21637917  0.59500009  0.95117796  1.0
  C  C125  1  0.26541711  0.04881478  0.64387824  1.0
  C  C126  1  0.37823502  0.64385102  0.59489571  1.0
  C  C127  1  0.78362580  0.40500281  0.04882655  1.0
  C  C128  1  0.73457776  0.95118095  0.35611964  1.0
  C  C129  1  0.26729610  0.59979760  0.61073240  1.0
  C  C130  1  0.65679391  0.38914869  0.98896379  1.0
  C  C131  1  0.66774818  0.01109124  0.40017409  1.0
  C  C132  1  0.73270395  0.40020410  0.38926454  1.0
  C  C133  1  0.34320571  0.61085660  0.01104295  1.0
  C  C134  1  0.33224807  0.98890509  0.59982570  1.0
  C  C135  1  0.05442456  0.13438042  0.43995689  1.0
  C  C136  1  0.61465647  0.56018452  0.69448244  1.0
  C  C137  1  0.91984234  0.30548876  0.86564731  1.0
  C  C138  1  0.94557540  0.86561889  0.56003587  1.0
  C  C139  1  0.38534652  0.43981658  0.30551957  1.0
  C  C140  1  0.08016350  0.69450936  0.13435558  1.0
  C  C141  1  0.10946232  0.20513844  0.44046720  1.0
  C  C142  1  0.66912201  0.55967930  0.76474333  1.0
  C  C143  1  0.90408973  0.23521441  0.79489135  1.0
  C  C144  1  0.89053656  0.79486087  0.55952599  1.0
  C  C145  1  0.33088317  0.44032181  0.23525731  1.0
  C  C146  1  0.09591521  0.76478191  0.20511166  1.0
  C  C147  1  0.25294217  0.25364262  0.48983286  1.0
  C  C148  1  0.76302180  0.51022109  0.76385168  1.0
  C  C149  1  0.99912859  0.23603464  0.74639465  1.0
  C  C150  1  0.74705778  0.74635669  0.51016297  1.0
  C  C151  1  0.23698526  0.48977942  0.23614831  1.0
  C  C152  1  0.00087380  0.76396527  0.25360880  1.0
  C  C153  1  0.33291786  0.22921966  0.53764860  1.0
  C  C154  1  0.79514945  0.46234421  0.69160729  1.0
  C  C155  1  0.10351165  0.30825490  0.77076976  1.0
  C  C156  1  0.66708614  0.77077905  0.46234727  1.0
  C  C157  1  0.20486146  0.53765749  0.30839458  1.0
  C  C158  1  0.89648798  0.69174381  0.22922935  1.0
  C  C159  1  0.26808871  0.15758605  0.53321592  1.0
  C  C160  1  0.73481918  0.46678615  0.62440525  1.0
  C  C161  1  0.11027973  0.37549222  0.84238509  1.0
  C  C162  1  0.73191392  0.84241207  0.46677803  1.0
  C  C163  1  0.26519035  0.53321495  0.37559521  1.0
  C  C164  1  0.88971753  0.62450828  0.15761466  1.0
  C  C165  1  0.13946890  0.74535996  0.78306822  1.0
  C  C166  1  0.35676889  0.21675508  0.96214898  1.0
  C  C167  1  0.39461604  0.03791529  0.25459066  1.0
  C  C168  1  0.86052947  0.25464054  0.21692804  1.0
  C  C169  1  0.64323866  0.78325081  0.03785916  1.0
  C  C170  1  0.60537723  0.96208163  0.74541071  1.0
  C  C171  1  0.23359940  0.70515914  0.73954573  1.0
  C  C172  1  0.49441248  0.26025897  0.96545302  1.0
  C  C173  1  0.52892963  0.03459059  0.29478851  1.0
  C  C174  1  0.76639837  0.29484017  0.26044993  1.0
  C  C175  1  0.50558982  0.73974512  0.03455235  1.0
  C  C176  1  0.47106375  0.96540872  0.70521448  1.0
  C  C177  1  0.17115964  0.64349234  0.65989156  1.0
  C  C178  1  0.51164048  0.33990988  0.98348837  1.0
  C  C179  1  0.52807314  0.01660681  0.35644453  1.0
  C  C180  1  0.82883873  0.35650817  0.34010419  1.0
  C  C181  1  0.48836333  0.66009721  0.01651646  1.0
  C  C182  1  0.47192122  0.98339011  0.64355590  1.0
  C  C183  1  0.01537668  0.62587530  0.62845320  1.0
  C  C184  1  0.38729824  0.37133785  0.99730298  1.0
  C  C185  1  0.38989861  0.00281067  0.37405631  1.0
  C  C186  1  0.98461982  0.37412580  0.37154166  1.0
  C  C187  1  0.61270605  0.62866804  0.00270286  1.0
  C  C188  1  0.61010100  0.99718804  0.62594688  1.0
  C  C189  1  0.93129587  0.67053041  0.67661122  1.0
  C  C190  1  0.25512112  0.32321417  0.99383290  1.0
  C  C191  1  0.26120182  0.00627838  0.32936873  1.0
  C  C192  1  0.06870154  0.32947249  0.32338198  1.0
  C  C193  1  0.74488255  0.67679052  0.00617592  1.0
  C  C194  1  0.73879502  0.99371914  0.67063370  1.0
  N  N195  1  0.51878187  0.38566026  0.44643979  1.0
  N  N196  1  0.07212118  0.55360527  0.93927632  1.0
  N  N197  1  0.13299784  0.06067209  0.61437674  1.0
  N  N198  1  0.48122076  0.61434443  0.55356027  1.0
  N  N199  1  0.92788259  0.44639523  0.06072649  1.0
  N  N200  1  0.86699872  0.93932482  0.38562130  1.0
  N  N201  1  0.31994783  0.46832701  0.53654454  1.0
  N  N202  1  0.78327670  0.46349612  0.93179494  1.0
  N  N203  1  0.85148279  0.06814139  0.53169199  1.0
  N  N204  1  0.68005322  0.53167230  0.46344933  1.0
  N  N205  1  0.21672767  0.53650558  0.06820898  1.0
  N  N206  1  0.14851951  0.93185613  0.46830677  1.0
  N  N207  1  0.13189425  0.11048452  0.48485898  1.0
  N  N208  1  0.64712060  0.51520227  0.62566218  1.0
  N  N209  1  0.02123064  0.37428499  0.88951952  1.0
  N  N210  1  0.86810620  0.88951359  0.51513429  1.0
  N  N211  1  0.35288339  0.48479644  0.37433675  1.0
  N  N212  1  0.97877176  0.62571491  0.11048239  1.0
  N  N213  1  0.99037583  0.72933848  0.75282678  1.0
  N  N214  1  0.23794594  0.24700466  0.97641660  1.0
  N  N215  1  0.26151322  0.02368072  0.27057523  1.0
  N  N216  1  0.00962406  0.27066502  0.24716638  1.0
  N  N217  1  0.76205942  0.75300123  0.02359189  1.0
  N  N218  1  0.73848084  0.97631560  0.72942695  1.0
