# generated using pymatgen
data_Zn2H16C36(N4O3)3
_symmetry_space_group_name_H-M   'P 1'
_cell_length_a   19.39604921
_cell_length_b   20.53528096
_cell_length_c   20.96048407
_cell_angle_alpha   67.77920071
_cell_angle_beta   68.75338393
_cell_angle_gamma   103.94556529
_symmetry_Int_Tables_number   1
_chemical_formula_structural   Zn2H16C36(N4O3)3
_chemical_formula_sum   'Zn4 H32 C72 N24 O18'
_cell_volume   6475.03025194
_cell_formula_units_Z   2
loop_
 _symmetry_equiv_pos_site_id
 _symmetry_equiv_pos_as_xyz
  1  'x, y, z'
loop_
 _atom_site_type_symbol
 _atom_site_label
 _atom_site_symmetry_multiplicity
 _atom_site_fract_x
 _atom_site_fract_y
 _atom_site_fract_z
 _atom_site_occupancy
  Zn  Zn0  1  0.01209870  0.10278018  0.40784543  1.0
  Zn  Zn1  1  0.01226221  0.87056874  0.57689532  1.0
  Zn  Zn2  1  0.12109108  0.99814958  0.37664025  1.0
  Zn  Zn3  1  0.93130161  0.00592162  0.60975100  1.0
  H  H4  1  0.97573656  0.13056543  0.25281092  1.0
  H  H5  1  0.01806598  0.87655390  0.79795735  1.0
  H  H6  1  0.85443494  0.70749724  0.73905796  1.0
  H  H7  1  0.16393359  0.24630083  0.35615697  1.0
  H  H8  1  0.10877893  0.85347602  0.32551910  1.0
  H  H9  1  0.95849633  0.16036261  0.62467006  1.0
  H  H10  1  0.76028043  0.03814478  0.64403395  1.0
  H  H11  1  0.27591596  0.09858926  0.37554943  1.0
  H  H12  1  0.91410725  0.73069156  0.57247187  1.0
  H  H13  1  0.98609778  0.26175114  0.38922962  1.0
  H  H14  1  0.84727362  0.06720932  0.40880764  1.0
  H  H15  1  0.14096581  0.93670506  0.63105536  1.0
  H  H16  1  0.75392105  0.87685681  0.71332436  1.0
  H  H17  1  0.30763084  0.16862313  0.21479622  1.0
  H  H18  1  0.05370423  0.94573527  0.28078184  1.0
  H  H19  1  0.04393770  0.10639373  0.64967527  1.0
  H  H20  1  0.58426009  0.05379270  0.43288631  1.0
  H  H21  1  0.45277387  0.15856994  0.59119919  1.0
  H  H22  1  0.42341929  0.96983268  0.56943920  1.0
  H  H23  1  0.61264207  0.24195325  0.45518531  1.0
  H  H24  1  0.55046013  0.18437238  0.37433096  1.0
  H  H25  1  0.48623610  0.02819811  0.65005158  1.0
  H  H26  1  0.51034681  0.51216903  0.92606423  1.0
  H  H27  1  0.51722037  0.53086500  0.15100995  1.0
  H  H28  1  0.38062470  0.51002040  0.04884487  1.0
  H  H29  1  0.64725771  0.53407707  0.02811268  1.0
  H  H30  1  0.04675819  0.57373511  0.38963308  1.0
  H  H31  1  0.75771042  0.38409508  0.59057708  1.0
  H  H32  1  0.92737491  0.94597643  0.06433280  1.0
  H  H33  1  0.20155236  0.16696149  0.85603356  1.0
  H  H34  1  0.98827799  0.47106201  0.59391901  1.0
  H  H35  1  0.82269414  0.49373753  0.38240547  1.0
  C  C36  1  0.99596243  0.08533154  0.27099977  1.0
  C  C37  1  0.01688769  0.92681595  0.75584550  1.0
  C  C38  1  0.84311040  0.75897983  0.72116553  1.0
  C  C39  1  0.18749219  0.21467359  0.32946372  1.0
  C  C40  1  0.06719303  0.83492153  0.38688590  1.0
  C  C41  1  0.97105926  0.17573737  0.56467578  1.0
  C  C42  1  0.79246212  0.04169475  0.58740280  1.0
  C  C43  1  0.23157488  0.05171586  0.43660445  1.0
  C  C44  1  0.96736057  0.77200362  0.51322819  1.0
  C  C45  1  0.98415619  0.22725093  0.44448360  1.0
  C  C46  1  0.83702324  0.05635870  0.46709957  1.0
  C  C47  1  0.16316403  0.96900525  0.56757176  1.0
  C  C48  1  0.79195701  0.84596457  0.70808724  1.0
  C  C49  1  0.26067946  0.17467833  0.25693881  1.0
  C  C50  1  0.03548233  0.99028101  0.28594546  1.0
  C  C51  1  0.03059159  0.04508577  0.68043908  1.0
  C  C52  1  0.01333693  0.03932182  0.23736314  1.0
  C  C53  1  0.04933537  0.00555073  0.73803163  1.0
  C  C54  1  0.77117255  0.76670235  0.75744774  1.0
  C  C55  1  0.26624087  0.23987605  0.26655491  1.0
  C  C56  1  0.99583343  0.76381218  0.44602152  1.0
  C  C57  1  0.95806255  0.23307507  0.51332613  1.0
  C  C58  1  0.77684439  0.06319751  0.52354627  1.0
  C  C59  1  0.23862820  0.03352072  0.50527973  1.0
  C  C60  1  0.46657058  0.03006761  0.54412432  1.0
  C  C61  1  0.57026138  0.18137625  0.48048303  1.0
  C  C62  1  0.55377665  0.07671533  0.46806300  1.0
  C  C63  1  0.48204464  0.13500904  0.55611142  1.0
  C  C64  1  0.71476363  0.08503102  0.51854713  1.0
  C  C65  1  0.30885412  0.06690298  0.50864514  1.0
  C  C66  1  0.49957030  0.06245137  0.58887168  1.0
  C  C67  1  0.53661335  0.14939107  0.43558247  1.0
  C  C68  1  0.58921707  0.10835726  0.51310638  1.0
  C  C69  1  0.44676810  0.10234970  0.51129921  1.0
  C  C70  1  0.65991276  0.10262196  0.51486765  1.0
  C  C71  1  0.37212695  0.09016244  0.51016762  1.0
  C  C72  1  0.52628075  0.46028692  0.03822534  1.0
  C  C73  1  0.50218636  0.58303471  0.03850520  1.0
  C  C74  1  0.51112428  0.51634121  0.97619056  1.0
  C  C75  1  0.51585898  0.52600368  0.10134877  1.0
  C  C76  1  0.69887700  0.70794028  0.82950792  1.0
  C  C77  1  0.33229893  0.31501521  0.21926050  1.0
  C  C78  1  0.58777879  0.52839538  0.03334932  1.0
  C  C79  1  0.43995588  0.51487016  0.04356792  1.0
  C  C80  1  0.57621634  0.58766190  0.96753717  1.0
  C  C81  1  0.45124268  0.45488652  0.10904620  1.0
  C  C82  1  0.64068445  0.65442170  0.89426669  1.0
  C  C83  1  0.38773750  0.38143200  0.17498360  1.0
  C  C84  1  0.98323294  0.53110320  0.43512309  1.0
  C  C85  1  0.82192313  0.42572790  0.54625286  1.0
  C  C86  1  0.95182429  0.46584923  0.52258579  1.0
  C  C87  1  0.85324914  0.49266746  0.45879282  1.0
  C  C88  1  0.92694344  0.28544303  0.52361830  1.0
  C  C89  1  0.96212269  0.69565379  0.44502138  1.0
  C  C90  1  0.92644393  0.47306256  0.42528847  1.0
  C  C91  1  0.87766711  0.48394992  0.55652509  1.0
  C  C92  1  0.89494196  0.40369447  0.51302754  1.0
  C  C93  1  0.91198262  0.55465745  0.46849124  1.0
  C  C94  1  0.89993933  0.33286506  0.52641990  1.0
  C  C95  1  0.93149963  0.63231507  0.45169308  1.0
  C  C96  1  0.00665148  0.06575727  0.94157881  1.0
  C  C97  1  0.12224876  0.04724659  0.97891751  1.0
  C  C98  1  0.98776552  0.99467706  0.01845791  1.0
  C  C99  1  0.14118405  0.11798629  0.90146798  1.0
  C  C100  1  0.01679026  0.04472116  0.16737438  1.0
  C  C101  1  0.07827059  0.03289204  0.77937248  1.0
  C  C102  1  0.06386117  0.12465878  0.95067164  1.0
  C  C103  1  0.06522318  0.98801117  0.97004923  1.0
  C  C104  1  0.04294049  0.05293351  0.03207842  1.0
  C  C105  1  0.08581700  0.05939838  0.88838908  1.0
  C  C106  1  0.02543305  0.04976964  0.10478784  1.0
  C  C107  1  0.09676583  0.05305504  0.82121661  1.0
  N  N108  1  0.00835602  0.06544151  0.33320913  1.0
  N  N109  1  0.98125494  0.91957617  0.71373428  1.0
  N  N110  1  0.90108778  0.82879693  0.65689495  1.0
  N  N111  1  0.13910268  0.14092955  0.35446541  1.0
  N  N112  1  0.08014877  0.88108087  0.41697807  1.0
  N  N113  1  0.00129754  0.13786789  0.52984113  1.0
  N  N114  1  0.85657624  0.02416934  0.56912880  1.0
  N  N115  1  0.15851111  0.00100308  0.45612081  1.0
  N  N116  1  0.01818958  0.84158302  0.49541543  1.0
  N  N117  1  0.00954752  0.17073739  0.45538416  1.0
  N  N118  1  0.88506587  0.03310641  0.49491940  1.0
  N  N119  1  0.11642086  0.95020966  0.53703618  1.0
  N  N120  1  0.87059095  0.88296970  0.64824876  1.0
  N  N121  1  0.18432463  0.11643517  0.30934938  1.0
  N  N122  1  0.03265222  0.00669472  0.34298443  1.0
  N  N123  1  0.98958389  0.99269692  0.66761763  1.0
  N  N124  1  0.53249781  0.38864712  0.04575232  1.0
  N  N125  1  0.49471909  0.65398234  0.03298886  1.0
  N  N126  1  0.85460818  0.49485478  0.62427323  1.0
  N  N127  1  0.94910854  0.46141953  0.35794331  1.0
  N  N128  1  0.95060178  0.07958900  0.91245957  1.0
  N  N129  1  0.17919949  0.03426730  0.00735284  1.0
  N  N130  1  0.07126926  0.91778687  0.97168588  1.0
  N  N131  1  0.05872857  0.19609070  0.94695263  1.0
  O  O132  1  0.48587736  0.34826812  0.03345157  1.0
  O  O133  1  0.58006923  0.37139295  0.06806153  1.0
  O  O134  1  0.45991249  0.67902130  0.99679501  1.0
  O  O135  1  0.52693680  0.68537295  0.06166377  1.0
  O  O136  1  0.99769472  0.45059047  0.55757089  1.0
  O  O137  1  0.80552523  0.50561403  0.42549719  1.0
  O  O138  1  0.78325789  0.48443198  0.66236376  1.0
  O  O139  1  0.91136592  0.51700092  0.63762180  1.0
  O  O140  1  0.01232572  0.45259544  0.33296375  1.0
  O  O141  1  0.90035871  0.45794731  0.33166139  1.0
  O  O142  1  0.88232618  0.02463405  0.94582659  1.0
  O  O143  1  0.97938617  0.14503390  0.85305444  1.0
  O  O144  1  0.24920794  0.08781992  0.97025582  1.0
  O  O145  1  0.14965778  0.97079352  0.06942529  1.0
  O  O146  1  0.14169870  0.92252106  0.94299391  1.0
  O  O147  1  0.00668143  0.86206468  0.99691070  1.0
  O  O148  1  0.98827912  0.18960117  0.98166666  1.0
  O  O149  1  0.12412809  0.25473819  0.91305170  1.0
