# generated using pymatgen
data_Zn4C24S4N4Cl4O21
_symmetry_space_group_name_H-M   'P 1'
_cell_length_a   19.46560013
_cell_length_b   19.50027035
_cell_length_c   33.05879066
_cell_angle_alpha   79.34598787
_cell_angle_beta   79.44827836
_cell_angle_gamma   64.04012820
_symmetry_Int_Tables_number   1
_chemical_formula_structural   Zn4C24S4N4Cl4O21
_chemical_formula_sum   'Zn16 C96 S16 N16 Cl16 O84'
_cell_volume   11013.55886162
_cell_formula_units_Z   4
loop_
 _symmetry_equiv_pos_site_id
 _symmetry_equiv_pos_as_xyz
  1  'x, y, z'
loop_
 _atom_site_type_symbol
 _atom_site_label
 _atom_site_symmetry_multiplicity
 _atom_site_fract_x
 _atom_site_fract_y
 _atom_site_fract_z
 _atom_site_occupancy
  Zn  Zn0  1  0.59759494  0.94106968  0.52502517  1.0
  Zn  Zn1  1  0.51231003  0.01778037  0.44020375  1.0
  Zn  Zn2  1  0.44169592  0.93690607  0.51765639  1.0
  Zn  Zn3  1  0.45014890  0.10073877  0.52020947  1.0
  Zn  Zn4  1  0.64843662  0.30270531  0.73116925  1.0
  Zn  Zn5  1  0.81637962  0.30382489  0.73555426  1.0
  Zn  Zn6  1  0.73028202  0.23486187  0.81134458  1.0
  Zn  Zn7  1  0.80535578  0.15269422  0.72613426  1.0
  Zn  Zn8  1  0.23139939  0.73712670  0.31156468  1.0
  Zn  Zn9  1  0.30625667  0.65159603  0.22750215  1.0
  Zn  Zn10  1  0.14893108  0.80207078  0.23102735  1.0
  Zn  Zn11  1  0.31656733  0.80419887  0.23546948  1.0
  Zn  Zn12  1  0.94183596  0.43627459  0.01738710  1.0
  Zn  Zn13  1  0.94845346  0.60003346  0.02148395  1.0
  Zn  Zn14  1  0.09706543  0.44169444  0.02478555  1.0
  Zn  Zn15  1  0.00865350  0.52057967  0.94025054  1.0
  C  C16  1  0.67827574  0.93671953  0.44146030  1.0
  C  C17  1  0.42974282  0.93178165  0.43395840  1.0
  C  C18  1  0.56001695  0.81415488  0.56334773  1.0
  C  C19  1  0.32192320  0.06225373  0.55986473  1.0
  C  C20  1  0.57167422  0.06602115  0.56829816  1.0
  C  C21  1  0.44146879  0.18328344  0.43805923  1.0
  C  C22  1  0.69204063  0.42713381  0.69222401  1.0
  C  C23  1  0.81708003  0.31555020  0.82024544  1.0
  C  C24  1  0.56412829  0.30995249  0.81287270  1.0
  C  C25  1  0.80884933  0.07022329  0.80929893  1.0
  C  C26  1  0.68103618  0.18414404  0.68165370  1.0
  C  C27  1  0.93558011  0.18645005  0.68934846  1.0
  C  C28  1  0.31009719  0.57129407  0.31059939  1.0
  C  C29  1  0.18317271  0.68210018  0.18170708  1.0
  C  C30  1  0.06551180  0.80910600  0.31304843  1.0
  C  C31  1  0.19155725  0.92722866  0.19226674  1.0
  C  C32  1  0.31793589  0.81833349  0.31951696  1.0
  C  C33  1  0.43566017  0.68649123  0.18946617  1.0
  C  C34  1  0.82186122  0.56012503  0.06027366  1.0
  C  C35  1  0.07119376  0.56752537  0.06758127  1.0
  C  C36  1  0.06065766  0.31419226  0.06317984  1.0
  C  C37  1  0.17584155  0.43995449  0.94046943  1.0
  C  C38  1  0.92938104  0.43071809  0.93368496  1.0
  C  C39  1  0.93629295  0.68488091  0.93935879  1.0
  C  C40  1  0.59953000  0.09593417  0.59782323  1.0
  C  C41  1  0.65276301  0.15361053  0.65268891  1.0
  C  C42  1  0.55184863  0.16686056  0.61312913  1.0
  C  C43  1  0.69882154  0.08064737  0.63918104  1.0
  C  C44  1  0.57979826  0.19716110  0.63857479  1.0
  C  C45  1  0.67381095  0.05401105  0.61034984  1.0
  C  C46  1  0.40115783  0.90243078  0.40456006  1.0
  C  C47  1  0.34632698  0.84779828  0.34893921  1.0
  C  C48  1  0.35930728  0.85736773  0.41974533  1.0
  C  C49  1  0.38492932  0.89569872  0.33382124  1.0
  C  C50  1  0.33519007  0.82745150  0.39208643  1.0
  C  C51  1  0.41541130  0.91976721  0.36119068  1.0
  C  C52  1  0.54740731  0.68802643  0.59962100  1.0
  C  C53  1  0.70939836  0.54765474  0.65057129  1.0
  C  C54  1  0.58520740  0.73598976  0.58638734  1.0
  C  C55  1  0.67077559  0.50064993  0.66456906  1.0
  C  C56  1  0.66332233  0.61756358  0.62836579  1.0
  C  C57  1  0.59133418  0.62083890  0.62449998  1.0
  C  C58  1  0.42089311  0.27655490  0.36888031  1.0
  C  C59  1  0.32134558  0.47837428  0.37959039  1.0
  C  C60  1  0.41318895  0.25810594  0.41173877  1.0
  C  C61  1  0.33033027  0.49639360  0.33675856  1.0
  C  C62  1  0.35730417  0.39824909  0.39161465  1.0
  C  C63  1  0.39046524  0.35687291  0.35728467  1.0
  C  C64  1  0.77059885  0.92732543  0.37237976  1.0
  C  C65  1  0.97308322  0.82849912  0.38242014  1.0
  C  C66  1  0.75309641  0.91729328  0.41521564  1.0
  C  C67  1  0.99084957  0.83688822  0.33953887  1.0
  C  C68  1  0.89277058  0.85836509  0.39427961  1.0
  C  C69  1  0.85072654  0.89194807  0.36014074  1.0
  C  C70  1  0.19977808  0.16001111  0.60016227  1.0
  C  C71  1  0.05310211  0.09368328  0.64421074  1.0
  C  C72  1  0.24399363  0.09138051  0.58318269  1.0
  C  C73  1  0.00926319  0.16167511  0.66189392  1.0
  C  C74  1  0.12407624  0.09170357  0.62331778  1.0
  C  C75  1  0.13159270  0.15981440  0.62406198  1.0
  C  C76  1  0.84530749  0.34562715  0.84947627  1.0
  C  C77  1  0.90081580  0.40069243  0.90457125  1.0
  C  C78  1  0.83149321  0.32855796  0.89279655  1.0
  C  C79  1  0.91777912  0.41454958  0.86122852  1.0
  C  C80  1  0.85592464  0.35890764  0.92008936  1.0
  C  C81  1  0.88690691  0.39072182  0.83397838  1.0
  C  C82  1  0.47097902  0.33019996  0.88208291  1.0
  C  C83  1  0.26876638  0.43009277  0.87136575  1.0
  C  C84  1  0.48928946  0.33850691  0.83923093  1.0
  C  C85  1  0.25073317  0.42029478  0.91417544  1.0
  C  C86  1  0.34899071  0.39442836  0.85940379  1.0
  C  C87  1  0.39055753  0.36068104  0.89370605  1.0
  C  C88  1  0.87876182  0.92029678  0.82108711  1.0
  C  C89  1  0.87592505  0.83513322  0.92734579  1.0
  C  C90  1  0.83932015  0.99345927  0.83356729  1.0
  C  C91  1  0.91421022  0.76170264  0.91506441  1.0
  C  C92  1  0.85998721  0.89275999  0.89301685  1.0
  C  C93  1  0.88926391  0.86210128  0.85510362  1.0
  C  C94  1  0.15484321  0.65303314  0.15193719  1.0
  C  C95  1  0.10026977  0.59739974  0.09653230  1.0
  C  C96  1  0.08173324  0.69726199  0.13801732  1.0
  C  C97  1  0.17504878  0.55533145  0.10838149  1.0
  C  C98  1  0.05302224  0.66793173  0.11238205  1.0
  C  C99  1  0.20065024  0.58072943  0.13751653  1.0
  C  C100  1  0.55229357  0.59340554  0.14401068  1.0
  C  C101  1  0.69971800  0.65853219  0.09979419  1.0
  C  C102  1  0.50885201  0.66160123  0.16158951  1.0
  C  C103  1  0.74367714  0.58961921  0.08310864  1.0
  C  C104  1  0.63123154  0.65895750  0.12354998  1.0
  C  C105  1  0.62330706  0.59100468  0.12295948  1.0
  C  C106  1  0.20930606  0.04765825  0.15064213  1.0
  C  C107  1  0.04774612  0.18830770  0.09945644  1.0
  C  C108  1  0.17042776  0.00085135  0.16463747  1.0
  C  C109  1  0.08580508  0.23605764  0.08622289  1.0
  C  C110  1  0.09138163  0.12112669  0.12443394  1.0
  C  C111  1  0.16344546  0.11758591  0.12835349  1.0
  S  S112  1  0.67528668  0.69767488  0.60351368  1.0
  S  S113  1  0.57892890  0.54109443  0.64952828  1.0
  S  S114  1  0.36689272  0.33919617  0.43764916  1.0
  S  S115  1  0.38093368  0.41543958  0.31114452  1.0
  S  S116  1  0.83473496  0.86662331  0.44054311  1.0
  S  S117  1  0.90907847  0.88324080  0.31395099  1.0
  S  S118  1  0.20125152  0.02742914  0.59555808  1.0
  S  S119  1  0.05419750  0.22381297  0.65190754  1.0
  S  S120  1  0.40791897  0.38536059  0.81338901  1.0
  S  S121  1  0.33199372  0.36925208  0.93978217  1.0
  S  S122  1  0.81693271  0.99122036  0.88689813  1.0
  S  S123  1  0.93238781  0.76354654  0.86153694  1.0
  S  S124  1  0.55409859  0.72340348  0.15129064  1.0
  S  S125  1  0.70033060  0.52620746  0.09543982  1.0
  S  S126  1  0.07863641  0.04156172  0.14951620  1.0
  S  S127  1  0.17580222  0.19748185  0.10349286  1.0
  N  N128  1  0.47421904  0.69714854  0.58895764  1.0
  N  N129  1  0.78885257  0.53067803  0.65428236  1.0
  N  N130  1  0.44999312  0.22516431  0.33674641  1.0
  N  N131  1  0.27709576  0.53059716  0.41058527  1.0
  N  N132  1  0.71816478  0.97219326  0.34141032  1.0
  N  N133  1  0.02511622  0.79924561  0.41437009  1.0
  N  N134  1  0.21431920  0.22864814  0.59389475  1.0
  N  N135  1  0.03234148  0.03091253  0.64256022  1.0
  N  N136  1  0.52280883  0.29976056  0.91407656  1.0
  N  N137  1  0.21677598  0.47447870  0.84015417  1.0
  N  N138  1  0.91214094  0.90010625  0.77941269  1.0
  N  N139  1  0.85696293  0.85747837  0.96913860  1.0
  N  N140  1  0.53128789  0.53071833  0.14282689  1.0
  N  N141  1  0.71470199  0.72697605  0.09325324  1.0
  N  N142  1  0.28877985  0.03067355  0.15433472  1.0
  N  N143  1  0.97453385  0.19759869  0.08871938  1.0
  Cl  Cl144  1  0.45805814  0.21713402  0.60282391  1.0
  Cl  Cl145  1  0.78464798  0.02082181  0.65783130  1.0
  Cl  Cl146  1  0.52364394  0.28924959  0.65013601  1.0
  Cl  Cl147  1  0.73738775  0.97098135  0.59006251  1.0
  Cl  Cl148  1  0.33386139  0.83899325  0.47169927  1.0
  Cl  Cl149  1  0.39356256  0.92872021  0.28209931  1.0
  Cl  Cl150  1  0.29467320  0.76425267  0.41232379  1.0
  Cl  Cl151  1  0.47163938  0.96777254  0.33993023  1.0
  Cl  Cl152  1  0.78718585  0.26895962  0.91394951  1.0
  Cl  Cl153  1  0.97863036  0.45760539  0.84007377  1.0
  Cl  Cl154  1  0.82734535  0.34533978  0.97203533  1.0
  Cl  Cl155  1  0.89881617  0.42094027  0.78205149  1.0
  Cl  Cl156  1  0.02600980  0.78913786  0.15000724  1.0
  Cl  Cl157  1  0.23846532  0.47358184  0.08681044  1.0
  Cl  Cl158  1  0.95928806  0.71899040  0.10236201  1.0
  Cl  Cl159  1  0.28707313  0.52003855  0.15531612  1.0
  O  O160  1  0.50070546  0.99913252  0.50098763  1.0
  O  O161  1  0.68122508  0.93592951  0.47996279  1.0
  O  O162  1  0.43215587  0.99703563  0.42299593  1.0
  O  O163  1  0.48852928  0.85433686  0.56196389  1.0
  O  O164  1  0.62014975  0.94936616  0.42412188  1.0
  O  O165  1  0.61458763  0.83444587  0.54784891  1.0
  O  O166  1  0.44959484  0.88986280  0.46799977  1.0
  O  O167  1  0.33816343  0.00405402  0.54117909  1.0
  O  O168  1  0.53128163  0.11515826  0.54113569  1.0
  O  O169  1  0.36515203  0.09473713  0.56153917  1.0
  O  O170  1  0.59048991  0.99400675  0.57241022  1.0
  O  O171  1  0.49398142  0.12557093  0.42196502  1.0
  O  O172  1  0.41049428  0.18512277  0.47578627  1.0
  O  O173  1  0.74975621  0.24937881  0.75083377  1.0
  O  O174  1  0.65036955  0.39148295  0.69180902  1.0
  O  O175  1  0.86026456  0.29515862  0.78667528  1.0
  O  O176  1  0.62112608  0.25530365  0.82860727  1.0
  O  O177  1  0.74611827  0.40814559  0.71413111  1.0
  O  O178  1  0.56298602  0.34268316  0.77549427  1.0
  O  O179  1  0.75225751  0.31211873  0.83104216  1.0
  O  O180  1  0.79186441  0.12619385  0.82994351  1.0
  O  O181  1  0.75292029  0.16698296  0.67750272  1.0
  O  O182  1  0.79998051  0.07388303  0.77175459  1.0
  O  O183  1  0.63141663  0.22496969  0.70842954  1.0
  O  O184  1  0.90257496  0.25844678  0.69297432  1.0
  O  O185  1  0.91283293  0.13551521  0.70751710  1.0
  O  O186  1  0.25016483  0.74937243  0.25076719  1.0
  O  O187  1  0.29904989  0.62903697  0.32764563  1.0
  O  O188  1  0.25530166  0.66307703  0.17861560  1.0
  O  O189  1  0.06368247  0.84103215  0.27547853  1.0
  O  O190  1  0.30865854  0.56883324  0.27229348  1.0
  O  O191  1  0.12317633  0.75581604  0.32895543  1.0
  O  O192  1  0.13321964  0.72354406  0.20815807  1.0
  O  O193  1  0.15000120  0.89149940  0.19174352  1.0
  O  O194  1  0.36097381  0.79813582  0.28588596  1.0
  O  O195  1  0.24550785  0.90830419  0.21422383  1.0
  O  O196  1  0.25292057  0.81529905  0.33027375  1.0
  O  O197  1  0.41379564  0.63541304  0.20843699  1.0
  O  O198  1  0.40235434  0.75863043  0.19263123  1.0
  O  O199  1  0.00007086  0.49931560  0.00077228  1.0
  O  O200  1  0.83797923  0.50296286  0.04075836  1.0
  O  O201  1  0.02926005  0.61658775  0.04095587  1.0
  O  O202  1  0.11501242  0.33487344  0.04778738  1.0
  O  O203  1  0.86556316  0.59136589  0.06321088  1.0
  O  O204  1  0.98914107  0.35412853  0.06166820  1.0
  O  O205  1  0.09030546  0.49540937  0.07175237  1.0
  O  O206  1  0.17957365  0.43722366  0.97908335  1.0
  O  O207  1  0.93122117  0.49609406  0.92236046  1.0
  O  O208  1  0.11725537  0.45462374  0.92305704  1.0
  O  O209  1  0.94946121  0.38912856  0.96775513  1.0
  O  O210  1  0.90429203  0.68048450  0.97620991  1.0
  O  O211  1  0.98519416  0.62895097  0.91974659  1.0
  O  O212  1  0.44274566  0.65987389  0.61371269  1.0
  O  O213  1  0.45008861  0.73676734  0.55663583  1.0
  O  O214  1  0.80225736  0.58821582  0.65251400  1.0
  O  O215  1  0.83701419  0.46330764  0.65708567  1.0
  O  O216  1  0.47305187  0.25225732  0.30257410  1.0
  O  O217  1  0.44680971  0.16226294  0.34422955  1.0
  O  O218  1  0.29701485  0.50674269  0.44615561  1.0
  O  O219  1  0.22272019  0.59151539  0.40064025  1.0
  O  O220  1  0.74187976  0.95278839  0.30576777  1.0
  O  O221  1  0.65744343  0.02660834  0.35139891  1.0
  O  O222  1  0.99849357  0.77588844  0.44860821  1.0
  O  O223  1  0.08800159  0.80262148  0.40668018  1.0
  O  O224  1  0.18341879  0.27122169  0.62198066  1.0
  O  O225  1  0.25230787  0.24178111  0.56168634  1.0
  O  O226  1  0.08812338  0.96814775  0.63701178  1.0
  O  O227  1  0.96398508  0.04378809  0.64460299  1.0
  O  O228  1  0.49537946  0.27738617  0.94835849  1.0
  O  O229  1  0.58682074  0.30073686  0.90639843  1.0
  O  O230  1  0.24074953  0.45428195  0.80468591  1.0
  O  O231  1  0.15604804  0.52925142  0.84976055  1.0
  O  O232  1  0.92135535  0.83519481  0.77336331  1.0
  O  O233  1  0.93148097  0.94528154  0.75407249  1.0
  O  O234  1  0.80334614  0.92232716  0.97279091  1.0
  O  O235  1  0.89572606  0.81463704  0.99674432  1.0
  O  O236  1  0.58683970  0.46801736  0.13671261  1.0
  O  O237  1  0.46279857  0.54325036  0.14593149  1.0
  O  O238  1  0.68346765  0.77014359  0.12104932  1.0
  O  O239  1  0.75325701  0.73931004  0.06111346  1.0
  O  O240  1  0.30237331  0.08828533  0.15190632  1.0
  O  O241  1  0.33680813  0.96329507  0.15772950  1.0
  O  O242  1  0.94255155  0.16099407  0.11362467  1.0
  O  O243  1  0.95088660  0.23667459  0.05618105  1.0
