# generated using pymatgen
data_Zr3H33C42S10N3O16
_symmetry_space_group_name_H-M   'P 1'
_cell_length_a   11.41765091
_cell_length_b   20.53707300
_cell_length_c   33.49065644
_cell_angle_alpha   89.62725105
_cell_angle_beta   98.55069369
_cell_angle_gamma   89.90401891
_symmetry_Int_Tables_number   1
_chemical_formula_structural   Zr3H33C42S10N3O16
_chemical_formula_sum   'Zr6 H66 C84 S20 N6 O32'
_cell_volume   7765.57973255
_cell_formula_units_Z   2
loop_
 _symmetry_equiv_pos_site_id
 _symmetry_equiv_pos_as_xyz
  1  'x, y, z'
loop_
 _atom_site_type_symbol
 _atom_site_label
 _atom_site_symmetry_multiplicity
 _atom_site_fract_x
 _atom_site_fract_y
 _atom_site_fract_z
 _atom_site_occupancy
  Zr  Zr0  1  0.02334300  0.08384939  0.04452942  1.0
  Zr  Zr1  1  0.96476296  0.88353866  0.96339470  1.0
  Zr  Zr2  1  0.16526703  0.93093718  0.04726053  1.0
  Zr  Zr3  1  0.82689754  0.03435871  0.96010765  1.0
  Zr  Zr4  1  0.13765394  0.02874552  0.95474695  1.0
  Zr  Zr5  1  0.84869090  0.93755013  0.04922455  1.0
  H  H6  1  0.99086296  0.13320353  0.95559575  1.0
  H  H7  1  0.21207756  0.89651739  0.96464628  1.0
  H  H8  1  0.72478395  0.91221482  0.96892843  1.0
  H  H9  1  0.03131744  0.98469436  0.10742177  1.0
  H  H10  1  0.34959733  0.97934773  0.00250724  1.0
  H  H11  1  0.14115049  0.82296538  0.09622191  1.0
  H  H12  1  0.86872386  0.83862590  0.10378830  1.0
  H  H13  1  0.11390823  0.09014739  0.88243779  1.0
  H  H14  1  0.70528329  0.08277919  0.88360485  1.0
  H  H15  1  0.59714417  0.06636454  0.97795311  1.0
  H  H16  1  0.60241109  0.92091276  0.03556969  1.0
  H  H17  1  0.18940930  0.98019053  0.88389129  1.0
  H  H18  1  0.95842977  0.82252912  0.89008899  1.0
  H  H19  1  0.99674654  0.11344690  0.12264880  1.0
  H  H20  1  0.72084180  0.02117770  0.08898513  1.0
  H  H21  1  0.72699694  0.14004528  0.91586387  1.0
  H  H22  1  0.05696394  0.78780415  0.92232754  1.0
  H  H23  1  0.39326779  0.95033193  0.06116369  1.0
  H  H24  1  0.35544044  0.98803305  0.95448190  1.0
  H  H25  1  0.63669171  0.99768136  0.00060810  1.0
  H  H26  1  0.03748380  0.87186857  0.10432237  1.0
  H  H27  1  0.85409702  0.05188337  0.09937232  1.0
  H  H28  1  0.70877420  0.48624167  0.00053306  1.0
  H  H29  1  0.27963772  0.47627643  0.00924631  1.0
  H  H30  1  0.23711993  0.03054517  0.50698463  1.0
  H  H31  1  0.80476240  0.00013467  0.49010758  1.0
  H  H32  1  0.84831758  0.98305812  0.70143535  1.0
  H  H33  1  0.85380612  0.89156573  0.49135920  1.0
  H  H34  1  0.66168835  0.87823254  0.58109559  1.0
  H  H35  1  0.00533869  0.02469156  0.60757062  1.0
  H  H36  1  0.39773861  0.81804396  0.65297576  1.0
  H  H37  1  0.09171500  0.10439192  0.56501994  1.0
  H  H38  1  0.36046443  0.05019533  0.64986935  1.0
  H  H39  1  0.16705327  0.87822436  0.55993318  1.0
  H  H40  1  0.18520830  0.04944261  0.29459145  1.0
  H  H41  1  0.17981363  0.14394351  0.50216758  1.0
  H  H42  1  0.37326646  0.15420998  0.41280984  1.0
  H  H43  1  0.02947895  0.00776615  0.38881167  1.0
  H  H44  1  0.58750391  0.20194459  0.35706165  1.0
  H  H45  1  0.96333057  0.92608126  0.42908164  1.0
  H  H46  1  0.68041548  0.97484948  0.34866356  1.0
  H  H47  1  0.86371480  0.14935410  0.43842687  1.0
  H  H48  1  0.82532826  0.18554972  0.08274281  1.0
  H  H49  1  0.64208161  0.44026122  0.93312285  1.0
  H  H50  1  0.74650576  0.25798443  0.94144326  1.0
  H  H51  1  0.62831090  0.34607802  0.06664553  1.0
  H  H52  1  0.35777818  0.54678678  0.93132877  1.0
  H  H53  1  0.29930821  0.76784420  0.09241941  1.0
  H  H54  1  0.36242569  0.59531567  0.07024766  1.0
  H  H55  1  0.22109561  0.72045197  0.94596700  1.0
  H  H56  1  0.69224138  0.80688217  0.06948290  1.0
  H  H57  1  0.56788812  0.57603525  0.91441191  1.0
  H  H58  1  0.77783393  0.70316552  0.94990910  1.0
  H  H59  1  0.56289348  0.63102795  0.05930216  1.0
  H  H60  1  0.28078768  0.15957960  0.93471543  1.0
  H  H61  1  0.39297138  0.42561762  0.07651630  1.0
  H  H62  1  0.22729514  0.25379205  0.06098043  1.0
  H  H63  1  0.41716985  0.33556220  0.94753027  1.0
  H  H64  1  0.81376814  0.86452124  0.71673324  1.0
  H  H65  1  0.55521393  0.99749082  0.88645578  1.0
  H  H66  1  0.50954028  0.99049199  0.76756477  1.0
  H  H67  1  0.84308405  0.85712826  0.83360318  1.0
  H  H68  1  0.19198194  0.16297898  0.11983484  1.0
  H  H69  1  0.56423610  0.97444354  0.27028641  1.0
  H  H70  1  0.38735565  0.96149894  0.15960185  1.0
  H  H71  1  0.30813019  0.15656411  0.23650682  1.0
  C  C72  1  0.20754104  0.16865886  0.00335689  1.0
  C  C73  1  0.80461810  0.17723293  0.00288920  1.0
  C  C74  1  0.24778094  0.04121261  0.11421620  1.0
  C  C75  1  0.16848284  0.78164796  0.00989276  1.0
  C  C76  1  0.78641284  0.79298157  0.00497894  1.0
  C  C77  1  0.76004144  0.92850511  0.88708217  1.0
  C  C78  1  0.55991505  0.42344920  0.00370891  1.0
  C  C79  1  0.43792948  0.42030783  0.00647695  1.0
  C  C80  1  0.37417140  0.47843259  0.00744952  1.0
  C  C81  1  0.42822093  0.53915104  0.00535969  1.0
  C  C82  1  0.55040193  0.54226864  0.00243883  1.0
  C  C83  1  0.61400033  0.48410312  0.00179159  1.0
  C  C84  1  0.42217689  0.07016394  0.28357901  1.0
  C  C85  1  0.35738830  0.09665921  0.34289352  1.0
  C  C86  1  0.55356445  0.08171493  0.34060695  1.0
  C  C87  1  0.61656572  0.93201441  0.71400995  1.0
  C  C88  1  0.48041390  0.93827943  0.65766483  1.0
  C  C89  1  0.67539831  0.93174433  0.65140834  1.0
  C  C90  1  0.07390853  0.04242625  0.46606303  1.0
  C  C91  1  0.95044361  0.03191814  0.46167063  1.0
  C  C92  1  0.90069715  0.00559393  0.49386705  1.0
  C  C93  1  0.96792915  0.98755384  0.53077817  1.0
  C  C94  1  0.09152102  0.99770457  0.53527041  1.0
  C  C95  1  0.14131857  0.02444701  0.50309694  1.0
  C  C96  1  0.76603332  0.93776734  0.62488434  1.0
  C  C97  1  0.74058851  0.90860971  0.58680585  1.0
  C  C98  1  0.81071877  0.91769883  0.55657487  1.0
  C  C99  1  0.90506541  0.96334923  0.56345183  1.0
  C  C100  1  0.93280549  0.98997425  0.60198595  1.0
  C  C101  1  0.86903259  0.97663247  0.63372257  1.0
  C  C102  1  0.36020996  0.94881121  0.63435596  1.0
  C  C103  1  0.31712021  0.01247634  0.63015469  1.0
  C  C104  1  0.22571248  0.02939503  0.59908053  1.0
  C  C105  1  0.17488954  0.98071548  0.57238874  1.0
  C  C106  1  0.21050192  0.91600700  0.57955016  1.0
  C  C107  1  0.30333137  0.89918377  0.60997771  1.0
  C  C108  1  0.26652561  0.09470167  0.36947734  1.0
  C  C109  1  0.29463117  0.12357459  0.40768915  1.0
  C  C110  1  0.22844008  0.11333029  0.43883935  1.0
  C  C111  1  0.13428637  0.06737232  0.43286830  1.0
  C  C112  1  0.10225238  0.04228871  0.39413841  1.0
  C  C113  1  0.16198950  0.05659862  0.36143174  1.0
  C  C114  1  0.67238604  0.07547102  0.36491708  1.0
  C  C115  1  0.72159233  0.01296292  0.36853717  1.0
  C  C116  1  0.81585281  0.99775275  0.39877071  1.0
  C  C117  1  0.86506523  0.04755701  0.42489073  1.0
  C  C118  1  0.82277785  0.11111568  0.41861916  1.0
  C  C119  1  0.72560768  0.12625527  0.38935982  1.0
  C  C120  1  0.74432263  0.24128582  0.00473166  1.0
  C  C121  1  0.72027447  0.27763823  0.96900307  1.0
  C  C122  1  0.66563822  0.33868042  0.96771781  1.0
  C  C123  1  0.62966695  0.36246378  0.00344780  1.0
  C  C124  1  0.65593415  0.32666576  0.03923915  1.0
  C  C125  1  0.71499877  0.26648803  0.04116773  1.0
  C  C126  1  0.35621422  0.59938378  0.00597597  1.0
  C  C127  1  0.33108890  0.62299536  0.04281008  1.0
  C  C128  1  0.27472221  0.68286217  0.04622421  1.0
  C  C129  1  0.23357865  0.71817788  0.01051943  1.0
  C  C130  1  0.25420506  0.69323628  0.97339517  1.0
  C  C131  1  0.31649250  0.63524305  0.97050109  1.0
  C  C132  1  0.72558167  0.72913776  0.00651435  1.0
  C  C133  1  0.73039451  0.68661478  0.97396885  1.0
  C  C134  1  0.67487588  0.62620358  0.97088291  1.0
  C  C135  1  0.61263147  0.60559023  0.00230215  1.0
  C  C136  1  0.60927672  0.64705814  0.03484374  1.0
  C  C137  1  0.66187951  0.70891213  0.03775609  1.0
  C  C138  1  0.26951134  0.23231548  0.00242344  1.0
  C  C139  1  0.27010521  0.27242888  0.03626551  1.0
  C  C140  1  0.32424885  0.33337679  0.03941844  1.0
  C  C141  1  0.37754169  0.35644249  0.00654834  1.0
  C  C142  1  0.37615817  0.31702231  0.97275725  1.0
  C  C143  1  0.32559533  0.25473830  0.96980264  1.0
  C  C144  1  0.64938442  0.92574881  0.75818150  1.0
  C  C145  1  0.58447876  0.96212879  0.78258598  1.0
  C  C146  1  0.61365540  0.96464153  0.82465353  1.0
  C  C147  1  0.70958021  0.92564669  0.84324210  1.0
  C  C148  1  0.76952978  0.88656541  0.81887556  1.0
  C  C149  1  0.74474846  0.88614588  0.77675642  1.0
  C  C150  1  0.30466511  0.05513981  0.15636590  1.0
  C  C151  1  0.37371004  0.00504839  0.17676984  1.0
  C  C152  1  0.42208341  0.00826636  0.21750881  1.0
  C  C153  1  0.39287041  0.06329334  0.23933881  1.0
  C  C154  1  0.32737407  0.11413517  0.21910791  1.0
  C  C155  1  0.28551441  0.11302092  0.17761082  1.0
  S  S156  1  0.77244297  0.86908962  0.51335371  1.0
  S  S157  1  0.92002872  0.01610273  0.67942559  1.0
  S  S158  1  0.18184361  0.11193623  0.59565485  1.0
  S  S159  1  0.34882239  0.81695038  0.61373718  1.0
  S  S160  1  0.27169797  0.15944654  0.48292529  1.0
  S  S161  1  0.10347318  0.02101660  0.31542134  1.0
  S  S162  1  0.86368667  0.91578868  0.40270895  1.0
  S  S163  1  0.68083581  0.20833290  0.38649282  1.0
  S  S164  1  0.63393057  0.37788849  0.92011251  1.0
  S  S165  1  0.73599018  0.22694287  0.08845658  1.0
  S  S166  1  0.25829891  0.70672740  0.09593337  1.0
  S  S167  1  0.34203307  0.61067100  0.92208542  1.0
  S  S168  1  0.68610078  0.57831811  0.92746917  1.0
  S  S169  1  0.63755694  0.75239782  0.08071098  1.0
  S  S170  1  0.32486869  0.37539858  0.08532362  1.0
  S  S171  1  0.33833121  0.21388861  0.92473327  1.0
  S  S172  1  0.52509671  0.01896525  0.84810575  1.0
  S  S173  1  0.83184259  0.83245952  0.75276675  1.0
  S  S174  1  0.50498691  0.94090009  0.23885645  1.0
  S  S175  1  0.21300121  0.18466858  0.15847783  1.0
  N  N176  1  0.33095716  0.08645612  0.30284064  1.0
  N  N177  1  0.46990482  0.10298235  0.36140254  1.0
  N  N178  1  0.53383260  0.06053115  0.30208884  1.0
  N  N179  1  0.50173467  0.94093172  0.69820982  1.0
  N  N180  1  0.56249824  0.93040615  0.63328446  1.0
  N  N181  1  0.70569656  0.93016800  0.69188755  1.0
  O  O182  1  0.94652179  0.10641775  0.09693659  1.0
  O  O183  1  0.13953210  0.16139318  0.03037505  1.0
  O  O184  1  0.18150723  0.08473722  0.09492483  1.0
  O  O185  1  0.75983626  0.13705504  0.97558902  1.0
  O  O186  1  0.26338862  0.98472978  0.10008299  1.0
  O  O187  1  0.89684244  0.16719371  0.02811334  1.0
  O  O188  1  0.22268176  0.12511169  0.97780364  1.0
  O  O189  1  0.13053503  0.01908182  0.01953489  1.0
  O  O190  1  0.98545811  0.09410620  0.97186895  1.0
  O  O191  1  0.02318834  0.98354020  0.07813154  1.0
  O  O192  1  0.87397157  0.02925459  0.02087381  1.0
  O  O193  1  0.63473528  0.02482658  0.97370813  1.0
  O  O194  1  0.33914529  0.01148138  0.97848002  1.0
  O  O195  1  0.96745572  0.97927370  0.94524905  1.0
  O  O196  1  0.15141509  0.91794565  0.97739869  1.0
  O  O197  1  0.99151222  0.89897050  0.02284850  1.0
  O  O198  1  0.80001330  0.93184996  0.97963955  1.0
  O  O199  1  0.34413235  0.93090828  0.03806941  1.0
  O  O200  1  0.20165944  0.82194950  0.03778378  1.0
  O  O201  1  0.08502186  0.79139781  0.98045824  1.0
  O  O202  1  0.80377388  0.00992545  0.09756728  1.0
  O  O203  1  0.84482425  0.80316101  0.97572552  1.0
  O  O204  1  0.12756691  0.86863491  0.10227124  1.0
  O  O205  1  0.90374473  0.88124589  0.10113223  1.0
  O  O206  1  0.66057293  0.95574461  0.03829234  1.0
  O  O207  1  0.77676619  0.83507699  0.03244178  1.0
  O  O208  1  0.03141319  0.82922230  0.90894757  1.0
  O  O209  1  0.76401940  0.10301635  0.90425024  1.0
  O  O210  1  0.82690242  0.88248981  0.90277931  1.0
  O  O211  1  0.73527785  0.97939596  0.90584825  1.0
  O  O212  1  0.08206275  0.09070780  0.90767121  1.0
  O  O213  1  0.21878300  0.97828407  0.91253730  1.0
