# generated using pymatgen
data_NiH5C5O4
_symmetry_space_group_name_H-M   'P 1'
_cell_length_a   6.75430965
_cell_length_b   15.10147577
_cell_length_c   15.10404313
_cell_angle_alpha   117.80926339
_cell_angle_beta   98.57342288
_cell_angle_gamma   98.57346773
_symmetry_Int_Tables_number   1
_chemical_formula_structural   NiH5C5O4
_chemical_formula_sum   'Ni6 H30 C30 O24'
_cell_volume   1304.67811041
_cell_formula_units_Z   6
loop_
 _symmetry_equiv_pos_site_id
 _symmetry_equiv_pos_as_xyz
  1  'x, y, z'
loop_
 _atom_site_type_symbol
 _atom_site_label
 _atom_site_symmetry_multiplicity
 _atom_site_fract_x
 _atom_site_fract_y
 _atom_site_fract_z
 _atom_site_occupancy
  Ni  Ni0  1  0.87625857  0.67924221  0.41228010  1.0
  Ni  Ni1  1  0.46387344  0.58770452  0.26695559  1.0
  Ni  Ni2  1  0.19700837  0.73306117  0.32070727  1.0
  Ni  Ni3  1  0.12374609  0.32076327  0.58772112  1.0
  Ni  Ni4  1  0.53612036  0.41229142  0.73304536  1.0
  Ni  Ni5  1  0.80298065  0.26693568  0.67928918  1.0
  H  H6  1  0.62744930  0.44037614  0.98033801  1.0
  H  H7  1  0.64717738  0.01968333  0.45990887  1.0
  H  H8  1  0.18725039  0.54000824  0.55983044  1.0
  H  H9  1  0.37254672  0.55961790  0.01966027  1.0
  H  H10  1  0.35282078  0.98032770  0.54009481  1.0
  H  H11  1  0.81274011  0.45999875  0.44017692  1.0
  H  H12  1  0.95711304  0.82886454  0.58428911  1.0
  H  H13  1  0.37211748  0.41584953  0.24489026  1.0
  H  H14  1  0.12764922  0.75538842  0.17105120  1.0
  H  H15  1  0.04289622  0.17113237  0.41570585  1.0
  H  H16  1  0.62789689  0.58415321  0.75511517  1.0
  H  H17  1  0.87235017  0.24461254  0.82894395  1.0
  H  H18  1  0.75086362  0.67915157  0.62731135  1.0
  H  H19  1  0.12351579  0.37255318  0.05197073  1.0
  H  H20  1  0.07204300  0.94830032  0.32082235  1.0
  H  H21  1  0.24913454  0.32084509  0.37268259  1.0
  H  H22  1  0.87648764  0.62744337  0.94803393  1.0
  H  H23  1  0.92796800  0.05170208  0.67917965  1.0
  H  H24  1  0.89131727  0.80871995  0.72292797  1.0
  H  H25  1  0.16799141  0.27707029  0.08622703  1.0
  H  H26  1  0.08240521  0.91416814  0.19115081  1.0
  H  H27  1  0.10869365  0.19127376  0.27706148  1.0
  H  H28  1  0.83201266  0.72292614  0.91377905  1.0
  H  H29  1  0.91759879  0.08583629  0.80885013  1.0
  H  H30  1  0.02489482  0.71598740  0.64701211  1.0
  H  H31  1  0.37776392  0.35281575  0.06936730  1.0
  H  H32  1  0.30893732  0.93092116  0.28371645  1.0
  H  H33  1  0.97511050  0.28400361  0.35298082  1.0
  H  H34  1  0.62223868  0.64718337  0.93063915  1.0
  H  H35  1  0.69107392  0.06907774  0.71628050  1.0
  C  C36  1  0.79236088  0.46607401  0.98942445  1.0
  C  C37  1  0.80300633  0.01060772  0.47659684  1.0
  C  C38  1  0.32644138  0.52341418  0.53406331  1.0
  C  C39  1  0.20763011  0.53391980  0.01057901  1.0
  C  C40  1  0.19699438  0.98939533  0.52339885  1.0
  C  C41  1  0.67353546  0.47658732  0.46594011  1.0
  C  C42  1  0.81766716  0.56489961  0.17639483  1.0
  C  C43  1  0.64117315  0.82361559  0.38849279  1.0
  C  C44  1  0.25266676  0.61154162  0.43516668  1.0
  C  C45  1  0.18232804  0.43509391  0.82360834  1.0
  C  C46  1  0.35883019  0.17639089  0.61150479  1.0
  C  C47  1  0.74732538  0.38845984  0.56483747  1.0
  C  C48  1  0.91866221  0.53511441  0.08879103  1.0
  C  C49  1  0.82986157  0.91117868  0.44617776  1.0
  C  C50  1  0.38352361  0.55378670  0.46500857  1.0
  C  C51  1  0.08135331  0.46487736  0.91120962  1.0
  C  C52  1  0.17013436  0.08882374  0.55381499  1.0
  C  C53  1  0.61646755  0.44620775  0.53498858  1.0
  C  C54  1  0.86515295  0.42903513  0.89942260  1.0
  C  C55  1  0.96577209  0.10060257  0.52968333  1.0
  C  C56  1  0.43621821  0.47028878  0.57091167  1.0
  C  C57  1  0.13482430  0.57095346  0.10057950  1.0
  C  C58  1  0.03423488  0.89940192  0.47031148  1.0
  C  C59  1  0.56375607  0.52970942  0.42908690  1.0
  C  C60  1  0.88219738  0.74264866  0.64676034  1.0
  C  C61  1  0.23513359  0.35315397  0.09617158  1.0
  C  C62  1  0.13954765  0.90414065  0.25725555  1.0
  C  C63  1  0.11781313  0.25735217  0.35323622  1.0
  C  C64  1  0.76486218  0.64684473  0.90383059  1.0
  C  C65  1  0.86045446  0.09586270  0.74273967  1.0
  O  O66  1  0.93337941  0.62219800  0.26904109  1.0
  O  O67  1  0.66421748  0.73094760  0.35312394  1.0
  O  O68  1  0.31085018  0.64680570  0.37774729  1.0
  O  O69  1  0.06662862  0.37780589  0.73096549  1.0
  O  O70  1  0.33579195  0.26906084  0.64687791  1.0
  O  O71  1  0.68913373  0.35319659  0.62225151  1.0
  O  O72  1  0.62344161  0.53155318  0.15724751  1.0
  O  O73  1  0.46608509  0.84280898  0.37445539  1.0
  O  O74  1  0.09172980  0.62567101  0.46846751  1.0
  O  O75  1  0.37654502  0.46842979  0.84274898  1.0
  O  O76  1  0.53391291  0.15719208  0.62553986  1.0
  O  O77  1  0.90827287  0.37434414  0.53154415  1.0
  O  O78  1  0.72579036  0.36194690  0.80929913  1.0
  O  O79  1  0.91651443  0.19075285  0.55276693  1.0
  O  O80  1  0.36401923  0.44722278  0.63799314  1.0
  O  O81  1  0.27420845  0.63804578  0.19070011  1.0
  O  O82  1  0.08348611  0.80925498  0.44722967  1.0
  O  O83  1  0.63597284  0.55277895  0.36201361  1.0
  O  O84  1  0.84270334  0.77152507  0.56828239  1.0
  O  O85  1  0.27394128  0.43182523  0.20341709  1.0
  O  O86  1  0.07107094  0.79683020  0.22854558  1.0
  O  O87  1  0.15730865  0.22847385  0.43171304  1.0
  O  O88  1  0.72606001  0.56817411  0.79658649  1.0
  O  O89  1  0.92892985  0.20316988  0.77145023  1.0
