# generated using pymatgen
data_AlH12C21(NO2)3
_symmetry_space_group_name_H-M   'P 1'
_cell_length_a   3.98650403
_cell_length_b   27.87646908
_cell_length_c   27.87636355
_cell_angle_alpha   59.99931239
_cell_angle_beta   90.00035682
_cell_angle_gamma   89.99878810
_symmetry_Int_Tables_number   1
_chemical_formula_structural   AlH12C21(NO2)3
_chemical_formula_sum   'Al2 H24 C42 N6 O12'
_cell_volume   2682.83345508
_cell_formula_units_Z   2
loop_
 _symmetry_equiv_pos_site_id
 _symmetry_equiv_pos_as_xyz
  1  'x, y, z'
loop_
 _atom_site_type_symbol
 _atom_site_label
 _atom_site_symmetry_multiplicity
 _atom_site_fract_x
 _atom_site_fract_y
 _atom_site_fract_z
 _atom_site_occupancy
  Al  Al0  1  0.99658043  0.49999594  0.00000200  1.0
  Al  Al1  1  0.99662932  0.16666487  0.66667138  1.0
  H  H2  1  0.79347546  0.30319398  0.50929548  1.0
  H  H3  1  0.77709448  0.35066179  0.40515518  1.0
  H  H4  1  0.23320734  0.21257953  0.41559104  1.0
  H  H5  1  0.21283908  0.16837725  0.51964883  1.0
  H  H6  1  0.23315082  0.45409391  0.25107532  1.0
  H  H7  1  0.77706391  0.31599946  0.26152080  1.0
  H  H8  1  0.79344346  0.36347002  0.15737849  1.0
  H  H9  1  0.21283180  0.49828884  0.14701871  1.0
  H  H10  1  0.79350783  0.18751152  0.80320241  1.0
  H  H11  1  0.77713578  0.24418504  0.85066756  1.0
  H  H12  1  0.23323832  0.37183718  0.71257534  1.0
  H  H13  1  0.21287674  0.31197812  0.66837838  1.0
  H  H14  1  0.23324163  0.29483165  0.95409185  1.0
  H  H15  1  0.77710175  0.42248520  0.81600429  1.0
  H  H16  1  0.79344370  0.47915828  0.86347073  1.0
  H  H17  1  0.21284682  0.35468957  0.99828957  1.0
  H  H18  1  0.79349101  0.00929247  0.68750781  1.0
  H  H19  1  0.77716476  0.90515271  0.74418261  1.0
  H  H20  1  0.23328665  0.91558225  0.87183716  1.0
  H  H21  1  0.21288391  0.01964055  0.81198065  1.0
  H  H22  1  0.23325207  0.75107977  0.79483224  1.0
  H  H23  1  0.77712652  0.76150878  0.92249102  1.0
  H  H24  1  0.79341788  0.65736796  0.97916326  1.0
  H  H25  1  0.21285220  0.64702357  0.85469227  1.0
  C  C26  1  0.49772504  0.58505429  0.95437355  1.0
  C  C27  1  0.49772701  0.46056790  0.08505979  1.0
  C  C28  1  0.49771982  0.45437113  0.96057191  1.0
  C  C29  1  0.49776394  0.20609414  0.58161199  1.0
  C  C30  1  0.49778368  0.21229846  0.70609696  1.0
  C  C31  1  0.49777845  0.08160704  0.71229822  1.0
  C  C32  1  0.49992290  0.23351129  0.52016546  1.0
  C  C33  1  0.66272524  0.28462926  0.48823376  1.0
  C  C34  1  0.65521676  0.31081365  0.43083544  1.0
  C  C35  1  0.49824103  0.28442864  0.40501800  1.0
  C  C36  1  0.34985241  0.23209548  0.43689838  1.0
  C  C37  1  0.34062680  0.20767957  0.49418275  1.0
  C  C38  1  0.34982296  0.43456885  0.22977043  1.0
  C  C39  1  0.49819311  0.38224110  0.26165128  1.0
  C  C40  1  0.65517667  0.35585176  0.23583726  1.0
  C  C41  1  0.66272901  0.38203043  0.17843814  1.0
  C  C42  1  0.49992024  0.43315272  0.14650093  1.0
  C  C43  1  0.34056371  0.45899851  0.17248229  1.0
  C  C44  1  0.49996911  0.24632473  0.73351466  1.0
  C  C45  1  0.66276978  0.22713784  0.78463398  1.0
  C  C46  1  0.65527524  0.25835476  0.81082019  1.0
  C  C47  1  0.49827360  0.31055984  0.78442779  1.0
  C  C48  1  0.34988783  0.33101011  0.73209771  1.0
  C  C49  1  0.34066362  0.29814411  0.70767649  1.0
  C  C50  1  0.34985164  0.33565518  0.93457442  1.0
  C  C51  1  0.49825473  0.35611238  0.88223819  1.0
  C  C52  1  0.65521741  0.40831589  0.85585085  1.0
  C  C53  1  0.66271093  0.43953167  0.88203501  1.0
  C  C54  1  0.49990412  0.42034338  0.93315214  1.0
  C  C55  1  0.34061606  0.36852726  0.95898856  1.0
  C  C56  1  0.49996108  0.02016188  0.74632333  1.0
  C  C57  1  0.66277230  0.98822872  0.72713748  1.0
  C  C58  1  0.65527441  0.93083205  0.75835328  1.0
  C  C59  1  0.49831283  0.90501125  0.81055739  1.0
  C  C60  1  0.34991020  0.93689337  0.83100926  1.0
  C  C61  1  0.34067912  0.99417515  0.79814358  1.0
  C  C62  1  0.34990058  0.72976959  0.83566258  1.0
  C  C63  1  0.49828179  0.76164501  0.85611618  1.0
  C  C64  1  0.65521680  0.73583032  0.90831789  1.0
  C  C65  1  0.66274962  0.67842958  0.93954035  1.0
  C  C66  1  0.49991216  0.64649657  0.92034844  1.0
  C  C67  1  0.34061417  0.67248259  0.86852368  1.0
  N  N68  1  0.48704535  0.30712130  0.34705056  1.0
  N  N69  1  0.48703336  0.35954860  0.31961704  1.0
  N  N70  1  0.48709375  0.34583343  0.80711751  1.0
  N  N71  1  0.48709671  0.32083643  0.85954968  1.0
  N  N72  1  0.48715522  0.84704725  0.84583216  1.0
  N  N73  1  0.48712913  0.81961380  0.82083764  1.0
  O  O74  1  0.26163716  0.44544358  0.99503499  1.0
  O  O75  1  0.26163267  0.55951615  0.94544803  1.0
  O  O76  1  0.26165743  0.49502894  0.05951859  1.0
  O  O77  1  0.73118462  0.49007997  0.94817187  1.0
  O  O78  1  0.73122526  0.44816450  0.06175310  1.0
  O  O79  1  0.73120026  0.56174416  0.99008180  1.0
  O  O80  1  0.26170775  0.10714401  0.72122463  1.0
  O  O81  1  0.26167296  0.17163030  0.60715160  1.0
  O  O82  1  0.26170827  0.22121767  0.67163477  1.0
  O  O83  1  0.73125874  0.10491660  0.67659113  1.0
  O  O84  1  0.73128190  0.17658849  0.71849858  1.0
  O  O85  1  0.73123625  0.21849318  0.60492025  1.0
