# generated using pymatgen
data_AlH15(C8O3)3
_symmetry_space_group_name_H-M   'P 1'
_cell_length_a   3.98865185
_cell_length_b   28.63979237
_cell_length_c   28.63950079
_cell_angle_alpha   59.99972329
_cell_angle_beta   89.99907945
_cell_angle_gamma   89.99956828
_symmetry_Int_Tables_number   1
_chemical_formula_structural   AlH15(C8O3)3
_chemical_formula_sum   'Al2 H30 C48 O18'
_cell_volume   2833.28889883
_cell_formula_units_Z   2
loop_
 _symmetry_equiv_pos_site_id
 _symmetry_equiv_pos_as_xyz
  1  'x, y, z'
loop_
 _atom_site_type_symbol
 _atom_site_label
 _atom_site_symmetry_multiplicity
 _atom_site_fract_x
 _atom_site_fract_y
 _atom_site_fract_z
 _atom_site_occupancy
  Al  Al0  1  0.99375549  0.00000115  0.50000007  1.0
  Al  Al1  1  0.99374356  0.66666274  0.16667002  1.0
  H  H2  1  0.19127112  0.51275986  0.29865476  1.0
  H  H3  1  0.21067880  0.41279181  0.34482143  1.0
  H  H4  1  0.80367589  0.42363943  0.21347920  1.0
  H  H5  1  0.79961660  0.52329822  0.17004227  1.0
  H  H6  1  0.80363956  0.24302322  0.45318600  1.0
  H  H7  1  0.21072466  0.25386390  0.32183985  1.0
  H  H8  1  0.19130470  0.15389787  0.36801602  1.0
  H  H9  1  0.79955826  0.14336806  0.49662846  1.0
  H  H10  1  0.19126698  0.79865332  0.18858542  1.0
  H  H11  1  0.21069048  0.84482139  0.24238389  1.0
  H  H12  1  0.80367704  0.71348266  0.36287748  1.0
  H  H13  1  0.79959714  0.67004253  0.30665913  1.0
  H  H14  1  0.80366875  0.95319108  0.30378334  1.0
  H  H15  1  0.21070824  0.82184180  0.42429157  1.0
  H  H16  1  0.19129630  0.86801852  0.47808319  1.0
  H  H17  1  0.79957521  0.99662859  0.35999906  1.0
  H  H18  1  0.19129018  0.68857890  0.01276507  1.0
  H  H19  1  0.21068738  0.74238242  0.91279865  1.0
  H  H20  1  0.80367574  0.86287566  0.92364318  1.0
  H  H21  1  0.79962467  0.80665509  0.02330098  1.0
  H  H22  1  0.80367022  0.80378626  0.74302387  1.0
  H  H23  1  0.21070900  0.92428910  0.75386947  1.0
  H  H24  1  0.19132073  0.97808325  0.65390211  1.0
  H  H25  1  0.79959531  0.86000110  0.64337200  1.0
  H  H26  1  0.44880958  0.35895784  0.23677445  1.0
  H  H27  1  0.44889517  0.30771080  0.42988262  1.0
  H  H28  1  0.44883733  0.73677693  0.40426612  1.0
  H  H29  1  0.44890028  0.92988386  0.26240022  1.0
  H  H30  1  0.44881906  0.90426411  0.85896096  1.0
  H  H31  1  0.44888863  0.76240300  0.80771581  1.0
  C  C32  1  0.49341750  0.95522782  0.58284142  1.0
  C  C33  1  0.49341839  0.08283797  0.46193315  1.0
  C  C34  1  0.49342967  0.96193430  0.45522516  1.0
  C  C35  1  0.49340168  0.58382342  0.20473687  1.0
  C  C36  1  0.49340295  0.70473072  0.21144200  1.0
  C  C37  1  0.49340007  0.71143438  0.08383029  1.0
  C  C38  1  0.49555039  0.52409571  0.23164634  1.0
  C  C39  1  0.32969039  0.49258080  0.28096477  1.0
  C  C40  1  0.34016519  0.43672122  0.30663918  1.0
  C  C41  1  0.50771764  0.41062029  0.28259326  1.0
  C  C42  1  0.66506353  0.44281698  0.23222060  1.0
  C  C43  1  0.66527148  0.49864914  0.20767443  1.0
  C  C44  1  0.51236609  0.35197836  0.30643220  1.0
  C  C45  1  0.51239412  0.31468424  0.36022565  1.0
  C  C46  1  0.66502792  0.22384565  0.43444423  1.0
  C  C47  1  0.50769104  0.25604232  0.38407298  1.0
  C  C48  1  0.34017038  0.22994257  0.36002475  1.0
  C  C49  1  0.32974338  0.17407936  0.38570065  1.0
  C  C50  1  0.49556687  0.14256528  0.43502353  1.0
  C  C51  1  0.66525370  0.16801550  0.45899184  1.0
  C  C52  1  0.49556395  0.73164482  0.24425693  1.0
  C  C53  1  0.32971334  0.78096417  0.22645219  1.0
  C  C54  1  0.34018560  0.80664053  0.25663663  1.0
  C  C55  1  0.50773875  0.78259334  0.30678232  1.0
  C  C56  1  0.66507798  0.73222109  0.32495895  1.0
  C  C57  1  0.66527101  0.70767325  0.29367601  1.0
  C  C58  1  0.51238929  0.80643681  0.34158335  1.0
  C  C59  1  0.51241130  0.86022923  0.32508372  1.0
  C  C60  1  0.66506136  0.93444377  0.34170627  1.0
  C  C61  1  0.50773037  0.88407270  0.35987952  1.0
  C  C62  1  0.34018783  0.86002590  0.41002854  1.0
  C  C63  1  0.32974326  0.88570185  0.44021530  1.0
  C  C64  1  0.49558341  0.93502182  0.42241186  1.0
  C  C65  1  0.66526196  0.95899080  0.37299101  1.0
  C  C66  1  0.49555118  0.74425363  0.02410167  1.0
  C  C67  1  0.32973850  0.72644663  0.99258757  1.0
  C  C68  1  0.34020305  0.75663470  0.93672487  1.0
  C  C69  1  0.50774097  0.80678002  0.91062523  1.0
  C  C70  1  0.66509002  0.82495480  0.94282182  1.0
  C  C71  1  0.66528575  0.79367130  0.99865401  1.0
  C  C72  1  0.51237902  0.84158292  0.85198302  1.0
  C  C73  1  0.51241673  0.82508421  0.81468976  1.0
  C  C74  1  0.66505200  0.84170669  0.72384995  1.0
  C  C75  1  0.50772331  0.85987984  0.75604945  1.0
  C  C76  1  0.34019061  0.91002837  0.72994754  1.0
  C  C77  1  0.32974835  0.94021482  0.67408532  1.0
  C  C78  1  0.49556859  0.92241018  0.64256853  1.0
  C  C79  1  0.66524488  0.87298980  0.66801795  1.0
  O  O80  1  0.72785680  0.99575274  0.44662712  1.0
  O  O81  1  0.72785179  0.94663138  0.55762005  1.0
  O  O82  1  0.72783972  0.05761603  0.49575349  1.0
  O  O83  1  0.25828591  0.94984149  0.48973153  1.0
  O  O84  1  0.25827008  0.06042806  0.44983779  1.0
  O  O85  1  0.25827322  0.98973373  0.56043066  1.0
  O  O86  1  0.72784100  0.72003328  0.10904921  1.0
  O  O87  1  0.72786310  0.60903975  0.17092160  1.0
  O  O88  1  0.72784602  0.67091191  0.22004424  1.0
  O  O89  1  0.25825763  0.67692803  0.10624320  1.0
  O  O90  1  0.25825747  0.71682310  0.17693533  1.0
  O  O91  1  0.25826327  0.60623854  0.21682911  1.0
  O  O92  1  0.55257775  0.33287348  0.27078348  1.0
  O  O93  1  0.55262569  0.33379680  0.39587079  1.0
  O  O94  1  0.55258869  0.77078686  0.39634240  1.0
  O  O95  1  0.55262003  0.89587234  0.27032695  1.0
  O  O96  1  0.55258015  0.89633857  0.83287599  1.0
  O  O97  1  0.55261870  0.77032816  0.83380144  1.0
