# generated using pymatgen
data_ZnH4C20N5O4
_symmetry_space_group_name_H-M   'P 1'
_cell_length_a   14.15206812
_cell_length_b   14.32677887
_cell_length_c   15.32878640
_cell_angle_alpha   88.70317629
_cell_angle_beta   90.00446813
_cell_angle_gamma   89.99722119
_symmetry_Int_Tables_number   1
_chemical_formula_structural   ZnH4C20N5O4
_chemical_formula_sum   'Zn2 H8 C40 N10 O8'
_cell_volume   3107.16979692
_cell_formula_units_Z   2
loop_
 _symmetry_equiv_pos_site_id
 _symmetry_equiv_pos_as_xyz
  1  'x, y, z'
loop_
 _atom_site_type_symbol
 _atom_site_label
 _atom_site_symmetry_multiplicity
 _atom_site_fract_x
 _atom_site_fract_y
 _atom_site_fract_z
 _atom_site_occupancy
  Zn  Zn0  1  0.40190665  0.50000575  0.50000456  1.0
  Zn  Zn1  1  0.59831328  0.49997672  0.49997301  1.0
  H  H2  1  0.93141758  0.36338821  0.56353575  1.0
  H  H3  1  0.06903654  0.58428289  0.38085733  1.0
  H  H4  1  0.93135544  0.63663233  0.43643284  1.0
  H  H5  1  0.06903801  0.41579828  0.61914629  1.0
  H  H6  1  0.44988446  0.64258158  0.93279104  1.0
  H  H7  1  0.53584579  0.64671384  0.05451661  1.0
  H  H8  1  0.45023278  0.35740746  0.06708678  1.0
  H  H9  1  0.53637138  0.35352710  0.94556597  1.0
  C  C10  1  0.49860743  0.49333292  0.66867309  1.0
  C  C11  1  0.49847867  0.50662037  0.33130273  1.0
  C  C12  1  0.50098574  0.32195599  0.49520918  1.0
  C  C13  1  0.50105229  0.67802775  0.50478355  1.0
  C  C14  1  0.89682803  0.42512235  0.53583638  1.0
  C  C15  1  0.10378110  0.54724921  0.43472702  1.0
  C  C16  1  0.89679325  0.57489063  0.46411875  1.0
  C  C17  1  0.10378788  0.45282762  0.56529162  1.0
  C  C18  1  0.79780858  0.42772071  0.53515713  1.0
  C  C19  1  0.20276162  0.54580243  0.43689520  1.0
  C  C20  1  0.79777733  0.57222806  0.46475608  1.0
  C  C21  1  0.20276924  0.45428636  0.56313434  1.0
  C  C22  1  0.50380810  0.22211220  0.49516550  1.0
  C  C23  1  0.50387505  0.77788446  0.50486280  1.0
  C  C24  1  0.50572439  0.13649563  0.49696183  1.0
  C  C25  1  0.50576738  0.86349243  0.50308724  1.0
  C  C26  1  0.50677656  0.04308021  0.49901257  1.0
  C  C27  1  0.50679053  0.95690776  0.50103867  1.0
  C  C28  1  0.94809891  0.50001304  0.49999183  1.0
  C  C29  1  0.05253085  0.50003849  0.49999820  1.0
  C  C30  1  0.47065270  0.57821206  0.90148064  1.0
  C  C31  1  0.51706331  0.58351497  0.09144777  1.0
  C  C32  1  0.47076733  0.42181628  0.09845222  1.0
  C  C33  1  0.51742863  0.41665230  0.90858468  1.0
  C  C34  1  0.47085452  0.57615016  0.81006695  1.0
  C  C35  1  0.51807403  0.58618975  0.18287046  1.0
  C  C36  1  0.47092871  0.42382514  0.18985583  1.0
  C  C37  1  0.51847486  0.41391250  0.81716666  1.0
  C  C38  1  0.49620571  0.49419937  0.76661996  1.0
  C  C39  1  0.49603799  0.50579457  0.23336701  1.0
  C  C40  1  0.49433719  0.49875104  0.95178845  1.0
  C  C41  1  0.49426394  0.50136943  0.04819451  1.0
  C  C42  1  0.75105074  0.34869448  0.57455120  1.0
  C  C43  1  0.25047471  0.59533622  0.36741727  1.0
  C  C44  1  0.75098207  0.65120534  0.42529333  1.0
  C  C45  1  0.25049591  0.40475903  0.63262258  1.0
  C  C46  1  0.44503948  0.65929924  0.76236413  1.0
  C  C47  1  0.53844061  0.67305857  0.22303456  1.0
  C  C48  1  0.44537600  0.34057983  0.23753887  1.0
  C  C49  1  0.53904151  0.32702562  0.77709907  1.0
  N  N50  1  0.74806878  0.49996357  0.49994748  1.0
  N  N51  1  0.25235536  0.50004265  0.50002184  1.0
  N  N52  1  0.72712355  0.27952955  0.60966572  1.0
  N  N53  1  0.27783152  0.63759168  0.30657942  1.0
  N  N54  1  0.72703428  0.72030974  0.39007782  1.0
  N  N55  1  0.27787103  0.36251244  0.69346587  1.0
  N  N56  1  0.42367154  0.72905058  0.72672853  1.0
  N  N57  1  0.55241995  0.74645356  0.25202355  1.0
  N  N58  1  0.42422083  0.27078546  0.27321331  1.0
  N  N59  1  0.55314005  0.25360259  0.74822242  1.0
  O  O60  1  0.42241192  0.51781853  0.63092623  1.0
  O  O61  1  0.57571117  0.53005255  0.36643991  1.0
  O  O62  1  0.42230917  0.48215570  0.36907341  1.0
  O  O63  1  0.57579336  0.46987690  0.63351954  1.0
  O  O64  1  0.42355423  0.35985270  0.51802548  1.0
  O  O65  1  0.57684855  0.63508110  0.52752284  1.0
  O  O66  1  0.42361386  0.64015003  0.48197780  1.0
  O  O67  1  0.57676662  0.36488945  0.47243476  1.0
