# generated using pymatgen
data_ZnH12C32N5O8
_symmetry_space_group_name_H-M   'P 1'
_cell_length_a   17.71634744
_cell_length_b   18.47530695
_cell_length_c   19.65328403
_cell_angle_alpha   92.13346550
_cell_angle_beta   92.07616889
_cell_angle_gamma   90.58057498
_symmetry_Int_Tables_number   1
_chemical_formula_structural   ZnH12C32N5O8
_chemical_formula_sum   'Zn2 H24 C64 N10 O16'
_cell_volume   6423.71023352
_cell_formula_units_Z   2
loop_
 _symmetry_equiv_pos_site_id
 _symmetry_equiv_pos_as_xyz
  1  'x, y, z'
loop_
 _atom_site_type_symbol
 _atom_site_label
 _atom_site_symmetry_multiplicity
 _atom_site_fract_x
 _atom_site_fract_y
 _atom_site_fract_z
 _atom_site_occupancy
  Zn  Zn0  1  0.49252321  0.42397187  0.49827043  1.0
  Zn  Zn1  1  0.49740022  0.57501704  0.49514055  1.0
  H  H2  1  0.11907444  0.38608379  0.53249778  1.0
  H  H3  1  0.87304729  0.61113252  0.50488073  1.0
  H  H4  1  0.87221171  0.38293762  0.54391970  1.0
  H  H5  1  0.12015381  0.61918303  0.52648199  1.0
  H  H6  1  0.25845316  0.38632676  0.51654065  1.0
  H  H7  1  0.73263562  0.60686218  0.48920355  1.0
  H  H8  1  0.73162978  0.38001381  0.52904826  1.0
  H  H9  1  0.25985200  0.61840308  0.51284618  1.0
  H  H10  1  0.60055582  0.40944192  0.04851303  1.0
  H  H11  1  0.40198315  0.56152071  0.94193466  1.0
  H  H12  1  0.59147086  0.41796718  0.92359178  1.0
  H  H13  1  0.41177326  0.55402671  0.06683288  1.0
  H  H14  1  0.39416990  0.16335917  0.43559397  1.0
  H  H15  1  0.60267024  0.83427359  0.55434193  1.0
  H  H16  1  0.58876573  0.17340860  0.57477961  1.0
  H  H17  1  0.39857084  0.82691452  0.42672307  1.0
  H  H18  1  0.61779231  0.07041728  0.50130221  1.0
  H  H19  1  0.37696167  0.92919923  0.49218207  1.0
  H  H20  1  0.37399638  0.06230575  0.49834443  1.0
  H  H21  1  0.62087868  0.93711271  0.49457181  1.0
  H  H22  1  0.49268830  0.71715702  0.29380822  1.0
  H  H23  1  0.28161983  0.42189494  0.66113572  1.0
  H  H24  1  0.68761388  0.64174384  0.69659647  1.0
  H  H25  1  0.42223900  0.27867793  0.29649905  1.0
  C  C26  1  0.49772872  0.51744802  0.63009885  1.0
  C  C27  1  0.49690972  0.49134479  0.36214981  1.0
  C  C28  1  0.51400603  0.48243524  0.14164545  1.0
  C  C29  1  0.49543750  0.50028582  0.84960655  1.0
  C  C30  1  0.50941123  0.48728098  0.28658123  1.0
  C  C31  1  0.49554797  0.51638500  0.70679982  1.0
  C  C32  1  0.55696555  0.44279187  0.02540749  1.0
  C  C33  1  0.44557921  0.52819137  0.96504093  1.0
  C  C34  1  0.55195682  0.44780106  0.95495358  1.0
  C  C35  1  0.45136508  0.52425275  0.03547316  1.0
  C  C36  1  0.49697943  0.49124782  0.92410001  1.0
  C  C37  1  0.50770593  0.48234545  0.06646102  1.0
  C  C38  1  0.43570380  0.26813435  0.47071554  1.0
  C  C39  1  0.55586028  0.73014420  0.52357975  1.0
  C  C40  1  0.53973018  0.27364945  0.54460966  1.0
  C  C41  1  0.44632072  0.72614901  0.45663443  1.0
  C  C42  1  0.43687000  0.19241192  0.46743937  1.0
  C  C43  1  0.55761350  0.80593016  0.52477351  1.0
  C  C44  1  0.54506014  0.19794172  0.54314636  1.0
  C  C45  1  0.44428642  0.80186773  0.45556861  1.0
  C  C46  1  0.49307121  0.15557908  0.50350572  1.0
  C  C47  1  0.50056634  0.84366726  0.49060020  1.0
  C  C48  1  0.56493641  0.03955139  0.50027396  1.0
  C  C49  1  0.42992167  0.95985836  0.49286704  1.0
  C  C50  1  0.42823299  0.03502820  0.49641479  1.0
  C  C51  1  0.56660891  0.96429982  0.49652045  1.0
  C  C52  1  0.49915955  0.92337804  0.49291688  1.0
  C  C53  1  0.49568033  0.07591040  0.50023497  1.0
  C  C54  1  0.63997317  0.49204446  0.49970613  1.0
  C  C55  1  0.35027976  0.50118357  0.50433549  1.0
  C  C56  1  0.15023399  0.43683672  0.52859302  1.0
  C  C57  1  0.84180729  0.56063815  0.50997503  1.0
  C  C58  1  0.84133309  0.43185233  0.53187974  1.0
  C  C59  1  0.15081439  0.56834530  0.52491953  1.0
  C  C60  1  0.22762024  0.43696037  0.52005520  1.0
  C  C61  1  0.76383471  0.55830600  0.50120459  1.0
  C  C62  1  0.76322911  0.43008560  0.52319807  1.0
  C  C63  1  0.22835560  0.56798274  0.51711199  1.0
  C  C64  1  0.26733367  0.50239781  0.51386421  1.0
  C  C65  1  0.72378920  0.49318168  0.50768393  1.0
  C  C66  1  0.11024786  0.50266142  0.53006291  1.0
  C  C67  1  0.88197616  0.49722591  0.52514123  1.0
  C  C68  1  0.03068706  0.50182830  0.53324290  1.0
  C  C69  1  0.96172083  0.49931701  0.53137071  1.0
  C  C70  1  0.51995494  0.55111826  0.25141625  1.0
  C  C71  1  0.42962207  0.49380505  0.73739081  1.0
  C  C72  1  0.56034028  0.53394234  0.74683249  1.0
  C  C73  1  0.50701088  0.42074828  0.24987277  1.0
  C  C74  1  0.52168393  0.54869502  0.17971658  1.0
  C  C75  1  0.42957331  0.48539641  0.80841847  1.0
  C  C76  1  0.56036381  0.52601879  0.81787577  1.0
  C  C77  1  0.50970476  0.41830935  0.17811684  1.0
  C  C78  1  0.53465057  0.62388816  0.28699722  1.0
  C  C79  1  0.35817661  0.48674713  0.69398665  1.0
  C  C80  1  0.62908253  0.55822643  0.71072442  1.0
  C  C81  1  0.49880632  0.34889154  0.28312645  1.0
  C  C82  1  0.53303864  0.61449105  0.14510926  1.0
  C  C83  1  0.36209524  0.46119743  0.83869580  1.0
  C  C84  1  0.62693252  0.54490744  0.85813895  1.0
  C  C85  1  0.50415447  0.34964143  0.14217723  1.0
  C  C86  1  0.37502918  0.30018089  0.43239880  1.0
  C  C87  1  0.61591120  0.69719889  0.56206776  1.0
  C  C88  1  0.59188160  0.31247321  0.59049601  1.0
  C  C89  1  0.38589484  0.68785241  0.41983802  1.0
  N  N90  1  0.48691770  0.30928305  0.50773997  1.0
  N  N91  1  0.50116591  0.68977771  0.49021037  1.0
  N  N92  1  0.54325608  0.66909909  0.11861824  1.0
  N  N93  1  0.30615375  0.44177704  0.86228168  1.0
  N  N94  1  0.68204471  0.56058194  0.88991788  1.0
  N  N95  1  0.50040275  0.29263782  0.11444663  1.0
  N  N96  1  0.32168812  0.31435851  0.39913065  1.0
  N  N97  1  0.66825080  0.68290528  0.59643475  1.0
  N  N98  1  0.63598704  0.33350661  0.63236234  1.0
  N  N99  1  0.33308313  0.66625024  0.38785175  1.0
  O  O100  1  0.48854356  0.45530478  0.60117175  1.0
  O  O101  1  0.48987072  0.55438025  0.38896951  1.0
  O  O102  1  0.49340586  0.43167664  0.39193617  1.0
  O  O103  1  0.50804611  0.57746307  0.60272061  1.0
  O  O104  1  0.60564124  0.43100141  0.50142990  1.0
  O  O105  1  0.38572955  0.56164650  0.50391747  1.0
  O  O106  1  0.38051953  0.43900079  0.49762124  1.0
  O  O107  1  0.60742837  0.55266214  0.49125167  1.0
  O  O108  1  0.59563108  0.64280022  0.31252558  1.0
  O  O109  1  0.47498223  0.66858650  0.27857658  1.0
  O  O110  1  0.33109280  0.53862426  0.66578215  1.0
  O  O111  1  0.32788258  0.41933251  0.69013590  1.0
  O  O112  1  0.65943796  0.52001992  0.66819444  1.0
  O  O113  1  0.65002436  0.62664745  0.72924733  1.0
  O  O114  1  0.55093312  0.31257892  0.30417991  1.0
  O  O115  1  0.42556794  0.32728815  0.27847416  1.0
