# generated using pymatgen
data_Zn4H22C60I3N19O6
_symmetry_space_group_name_H-M   'P 1'
_cell_length_a   18.21290878
_cell_length_b   19.27150351
_cell_length_c   19.51636065
_cell_angle_alpha   113.57420810
_cell_angle_beta   112.51907581
_cell_angle_gamma   99.42409296
_symmetry_Int_Tables_number   1
_chemical_formula_structural   Zn4H22C60I3N19O6
_chemical_formula_sum   'Zn4 H22 C60 I3 N19 O6'
_cell_volume   5378.03799420
_cell_formula_units_Z   1
loop_
 _symmetry_equiv_pos_site_id
 _symmetry_equiv_pos_as_xyz
  1  'x, y, z'
loop_
 _atom_site_type_symbol
 _atom_site_label
 _atom_site_symmetry_multiplicity
 _atom_site_fract_x
 _atom_site_fract_y
 _atom_site_fract_z
 _atom_site_occupancy
  Zn  Zn0  1  0.38676713  0.51257208  0.39366687  1.0
  Zn  Zn1  1  0.60074782  0.50189713  0.60283903  1.0
  Zn  Zn2  1  0.50211620  0.37054188  0.38898686  1.0
  Zn  Zn3  1  0.47816262  0.60813229  0.60939171  1.0
  H  H4  1  0.22891135  0.40695087  0.39314220  1.0
  H  H5  1  0.49924788  0.35238212  0.60499534  1.0
  H  H6  1  0.33381329  0.68680768  0.63712901  1.0
  H  H7  1  0.69048961  0.38577146  0.67288538  1.0
  H  H8  1  0.20619614  0.54351391  0.35862921  1.0
  H  H9  1  0.51656751  0.64106274  0.37981252  1.0
  H  H10  1  0.76225709  0.62403097  0.62333006  1.0
  H  H11  1  0.44843661  0.29609061  0.16902177  1.0
  H  H12  1  0.60702432  0.76722851  0.81218013  1.0
  H  H13  1  0.77563445  0.63502591  0.79107836  1.0
  H  H14  1  0.63698792  0.75099336  0.65718759  1.0
  H  H15  1  0.62926971  0.46252037  0.34631236  1.0
  H  H16  1  0.39234159  0.24480650  0.77463325  1.0
  H  H17  1  0.38461885  0.24708530  0.89981500  1.0
  H  H18  1  0.26453429  0.42392497  0.91546809  1.0
  H  H19  1  0.27228953  0.42187146  0.79021381  1.0
  H  H20  1  0.66392364  0.89698915  0.41473706  1.0
  H  H21  1  0.74515202  0.14523628  0.68742571  1.0
  H  H22  1  0.73172799  0.01324432  0.68282770  1.0
  H  H23  1  0.93830357  0.12594318  0.18566294  1.0
  H  H24  1  0.82538201  0.99143876  0.06445563  1.0
  H  H25  1  0.13191520  0.02382097  0.18286595  1.0
  C  C26  1  0.27048536  0.37375517  0.38483326  1.0
  C  C27  1  0.46695401  0.39526622  0.60892189  1.0
  C  C28  1  0.61484019  0.28402045  0.46390389  1.0
  C  C29  1  0.31566385  0.64982134  0.57005281  1.0
  C  C30  1  0.66119271  0.35884741  0.60354105  1.0
  C  C31  1  0.24990960  0.57535793  0.42753160  1.0
  C  C32  1  0.38784866  0.46968630  0.62695129  1.0
  C  C33  1  0.33131374  0.28459548  0.35470489  1.0
  C  C34  1  0.25187405  0.28906209  0.34774293  1.0
  C  C35  1  0.40420818  0.40253025  0.63381654  1.0
  C  C36  1  0.66125725  0.28743467  0.54334288  1.0
  C  C37  1  0.23645632  0.62163212  0.49578620  1.0
  C  C38  1  0.53688102  0.65577143  0.44563295  1.0
  C  C39  1  0.71730366  0.57857048  0.55623699  1.0
  C  C40  1  0.42322391  0.34175519  0.19353331  1.0
  C  C41  1  0.63630593  0.72355777  0.79322583  1.0
  C  C42  1  0.72269592  0.65601976  0.78238146  1.0
  C  C43  1  0.35936622  0.42944649  0.21454986  1.0
  C  C44  1  0.59825762  0.71238107  0.58770896  1.0
  C  C45  1  0.64902033  0.49618982  0.41424562  1.0
  C  C46  1  0.60021209  0.72731638  0.52320507  1.0
  C  C47  1  0.72824884  0.55873051  0.48375097  1.0
  C  C48  1  0.37243709  0.37442745  0.14980601  1.0
  C  C49  1  0.72163434  0.73026222  0.83704993  1.0
  C  C50  1  0.16024517  0.63012774  0.49151036  1.0
  C  C51  1  0.09169738  0.63104613  0.48862565  1.0
  C  C52  1  0.01648030  0.62709993  0.48610581  1.0
  C  C53  1  0.94691935  0.61899988  0.48448612  1.0
  C  C54  1  0.87177815  0.60499198  0.48329265  1.0
  C  C55  1  0.80341382  0.58700830  0.48273379  1.0
  C  C56  1  0.35952348  0.28462200  0.87491625  1.0
  C  C57  1  0.32572560  0.33689695  0.91718794  1.0
  C  C58  1  0.29161215  0.38434261  0.88375986  1.0
  C  C59  1  0.29596497  0.38316565  0.81403534  1.0
  C  C60  1  0.33478820  0.33477565  0.77514566  1.0
  C  C61  1  0.36385338  0.28344395  0.80515555  1.0
  C  C62  1  0.33280634  0.34601099  0.99498841  1.0
  C  C63  1  0.35047334  0.34441231  0.71341383  1.0
  C  C64  1  0.37310557  0.36445654  0.67040434  1.0
  C  C65  1  0.34705002  0.35838683  0.06623360  1.0
  C  C66  1  0.69378244  0.02554282  0.47985974  1.0
  C  C67  1  0.71373493  0.09764978  0.55498431  1.0
  C  C68  1  0.72918498  0.09081174  0.62845013  1.0
  C  C69  1  0.72086510  0.01684327  0.62562006  1.0
  C  C70  1  0.69465628  0.94436083  0.54808299  1.0
  C  C71  1  0.68307028  0.95068493  0.47554557  1.0
  C  C72  1  0.70832189  0.16996665  0.55576681  1.0
  C  C73  1  0.67364118  0.86716907  0.54144819  1.0
  C  C74  1  0.64431491  0.80093128  0.53350922  1.0
  C  C75  1  0.69129051  0.22841012  0.55472308  1.0
  C  C76  1  0.89273579  0.99911909  0.09098636  1.0
  C  C77  1  0.91329362  0.93093106  0.05323727  1.0
  C  C78  1  0.00105485  0.94115713  0.08908478  1.0
  C  C79  1  0.06459536  0.01603276  0.15680422  1.0
  C  C80  1  0.04290342  0.08415051  0.19172170  1.0
  C  C81  1  0.95564509  0.07409486  0.15855574  1.0
  C  C82  1  0.84757689  0.85766072  0.98062919  1.0
  C  C83  1  0.11032347  0.16051728  0.25490368  1.0
  C  C84  1  0.17434090  0.22323102  0.30347288  1.0
  C  C85  1  0.78906494  0.79721432  0.91478529  1.0
  I  I86  1  0.03711256  0.84280380  0.03816752  1.0
  I  I87  1  0.59834113  0.20229664  0.34632394  1.0
  I  I88  1  0.30235917  0.51746057  0.65446929  1.0
  N  N89  1  0.35263893  0.41363910  0.40945052  1.0
  N  N90  1  0.48638632  0.45382408  0.59064689  1.0
  N  N91  1  0.58752208  0.34634036  0.47621083  1.0
  N  N92  1  0.37018044  0.62148836  0.54738392  1.0
  N  N93  1  0.61786291  0.39353606  0.56335584  1.0
  N  N94  1  0.32950262  0.57534373  0.45900295  1.0
  N  N95  1  0.43757446  0.49971950  0.60156401  1.0
  N  N96  1  0.39017885  0.35937805  0.39215275  1.0
  N  N97  1  0.49992388  0.60433176  0.46365075  1.0
  N  N98  1  0.63884554  0.53046160  0.53102564  1.0
  N  N99  1  0.43833397  0.37575398  0.27541984  1.0
  N  N100  1  0.59111459  0.65179390  0.71922297  1.0
  N  N101  1  0.64462448  0.60974936  0.71235406  1.0
  N  N102  1  0.39953458  0.42960390  0.28864737  1.0
  N  N103  1  0.53754150  0.63890644  0.55083528  1.0
  N  N104  1  0.59680076  0.48006728  0.44387560  1.0
  N  N105  1  0.31101601  0.47938077  0.21185212  1.0
  N  N106  1  0.68086937  0.02713557  0.40131324  1.0
  N  N107  1  0.35048883  0.21537604  0.31704733  1.0
  O  O108  1  0.27371748  0.48192596  0.14566393  1.0
  O  O109  1  0.30772854  0.52059279  0.28038395  1.0
  O  O110  1  0.63015593  0.96399495  0.33089306  1.0
  O  O111  1  0.72227734  0.09110581  0.41048121  1.0
  O  O112  1  0.29985836  0.14637599  0.28743956  1.0
  O  O113  1  0.41910105  0.22847132  0.31328588  1.0
