# generated using pymatgen
data_Al2H10C22S2O11F2
_symmetry_space_group_name_H-M   'P 1'
_cell_length_a   6.62848802
_cell_length_b   12.33739706
_cell_length_c   14.63811679
_cell_angle_alpha   112.33744329
_cell_angle_beta   91.60570577
_cell_angle_gamma   100.89053165
_symmetry_Int_Tables_number   1
_chemical_formula_structural   Al2H10C22S2O11F2
_chemical_formula_sum   'Al2 H10 C22 S2 O11 F2'
_cell_volume   1080.72454974
_cell_formula_units_Z   1
loop_
 _symmetry_equiv_pos_site_id
 _symmetry_equiv_pos_as_xyz
  1  'x, y, z'
loop_
 _atom_site_type_symbol
 _atom_site_label
 _atom_site_symmetry_multiplicity
 _atom_site_fract_x
 _atom_site_fract_y
 _atom_site_fract_z
 _atom_site_occupancy
  Al  Al0  1  0.49631663  0.99406787  0.50324638  1.0
  Al  Al1  1  0.99822673  0.99872658  0.49952852  1.0
  H  H2  1  0.25750691  0.02509142  0.62939358  1.0
  H  H3  1  0.75550324  0.06966951  0.42117783  1.0
  H  H4  1  0.19290312  0.27535659  0.75519077  1.0
  H  H5  1  0.87623871  0.80803611  0.19998817  1.0
  H  H6  1  0.38620942  0.66171809  0.25438948  1.0
  H  H7  1  0.28867045  0.49293877  0.08922390  1.0
  H  H8  1  0.54870036  0.26142878  0.79538035  1.0
  H  H9  1  0.64521455  0.43350506  0.95760697  1.0
  H  H10  1  0.31102435  0.68839644  0.55266723  1.0
  H  H11  1  0.86791791  0.34356910  0.44432570  1.0
  C  C12  1  0.69167175  0.81310002  0.52407734  1.0
  C  C13  1  0.80647585  0.14919737  0.66909110  1.0
  C  C14  1  0.31236309  0.17863274  0.47425652  1.0
  C  C15  1  0.19231321  0.84589250  0.33727242  1.0
  C  C16  1  0.86323786  0.25500941  0.76560445  1.0
  C  C17  1  0.13843392  0.74554051  0.23758827  1.0
  C  C18  1  0.07173207  0.30879567  0.79943718  1.0
  C  C19  1  0.12150699  0.40713975  0.88903901  1.0
  C  C20  1  0.96870013  0.74001918  0.17572483  1.0
  C  C21  1  0.92173696  0.64740231  0.08265434  1.0
  C  C22  1  0.25478622  0.65672970  0.20550826  1.0
  C  C23  1  0.20055424  0.56309122  0.11278884  1.0
  C  C24  1  0.71066024  0.30232415  0.82266998  1.0
  C  C25  1  0.76550798  0.39938002  0.91343262  1.0
  C  C26  1  0.97364565  0.45493043  0.95008167  1.0
  C  C27  1  0.03243300  0.55557168  0.04786787  1.0
  C  C28  1  0.58344457  0.35238300  0.46637790  1.0
  C  C29  1  0.43188663  0.63784027  0.53138310  1.0
  C  C30  1  0.38665306  0.30039851  0.48047166  1.0
  C  C31  1  0.62589268  0.68911510  0.51669780  1.0
  C  C32  1  0.41698358  0.51586991  0.51355462  1.0
  C  C33  1  0.59961833  0.47592589  0.48512700  1.0
  S  S34  1  0.22617112  0.40305056  0.51932682  1.0
  S  S35  1  0.79075857  0.58947233  0.48043543  1.0
  O  O36  1  0.55754114  0.87771728  0.54864337  1.0
  O  O37  1  0.94884969  0.09381840  0.63341426  1.0
  O  O38  1  0.12435766  0.14957530  0.48995008  1.0
  O  O39  1  0.36890928  0.86256946  0.38284610  1.0
  O  O40  1  0.44102043  0.11009046  0.45441144  1.0
  O  O41  1  0.05751557  0.90851519  0.36954031  1.0
  O  O42  1  0.87370252  0.84612967  0.50503991  1.0
  O  O43  1  0.62018094  0.12179935  0.62966122  1.0
  O  O44  1  0.24580705  0.99028873  0.55745360  1.0
  O  O45  1  0.74637853  0.00860011  0.44855435  1.0
  O  O46  1  0.73346578  0.29002202  0.43761736  1.0
  F  F47  1  0.32606246  0.46086014  0.91761309  1.0
  F  F48  1  0.76135495  0.64776624  0.02222937  1.0
