# generated using pymatgen
data_Zn3H12C26(IO6)2
_symmetry_space_group_name_H-M   'P 1'
_cell_length_a   18.51377411
_cell_length_b   18.53424899
_cell_length_c   20.71162872
_cell_angle_alpha   63.44645587
_cell_angle_beta   63.45102141
_cell_angle_gamma   90.02246913
_symmetry_Int_Tables_number   1
_chemical_formula_structural   Zn3H12C26(IO6)2
_chemical_formula_sum   'Zn6 H24 C52 I4 O24'
_cell_volume   5506.07831366
_cell_formula_units_Z   2
loop_
 _symmetry_equiv_pos_site_id
 _symmetry_equiv_pos_as_xyz
  1  'x, y, z'
loop_
 _atom_site_type_symbol
 _atom_site_label
 _atom_site_symmetry_multiplicity
 _atom_site_fract_x
 _atom_site_fract_y
 _atom_site_fract_z
 _atom_site_occupancy
  Zn  Zn0  1  0.57007193  0.49999524  0.00001118  1.0
  Zn  Zn1  1  0.45940457  0.95941205  0.08119944  1.0
  Zn  Zn2  1  0.54064913  0.04058610  0.91878672  1.0
  Zn  Zn3  1  0.42987553  0.50000282  0.99999314  1.0
  Zn  Zn4  1  0.00018007  0.07011869  0.00001027  1.0
  Zn  Zn5  1  0.00019221  0.92986716  0.00000399  1.0
  H  H6  1  0.64728821  0.90138046  0.50750872  1.0
  H  H7  1  0.17069552  0.08954715  0.49247643  1.0
  H  H8  1  0.18559116  0.18142624  0.40184553  1.0
  H  H9  1  0.27123472  0.13811776  0.40210536  1.0
  H  H10  1  0.57625907  0.80672320  0.59816626  1.0
  H  H11  1  0.65748681  0.85834438  0.59788069  1.0
  H  H12  1  0.15312516  0.40780845  0.49253126  1.0
  H  H13  1  0.25370865  0.45569269  0.40215174  1.0
  H  H14  1  0.17333584  0.40348886  0.40186898  1.0
  H  H15  1  0.66139583  0.58292778  0.50748506  1.0
  H  H16  1  0.67157941  0.54056944  0.59784858  1.0
  H  H17  1  0.58612628  0.58449948  0.59814038  1.0
  H  H18  1  0.57018551  0.74627032  0.49108062  1.0
  H  H19  1  0.64186084  0.84051084  0.40083933  1.0
  H  H20  1  0.64611015  0.74483909  0.40080687  1.0
  H  H21  1  0.06139967  0.23535284  0.50893065  1.0
  H  H22  1  0.04751145  0.14400644  0.59918808  1.0
  H  H23  1  0.04224500  0.23964565  0.59919402  1.0
  H  H24  1  0.93048606  0.75409198  0.50816969  1.0
  H  H25  1  0.85489916  0.75561766  0.59864419  1.0
  H  H26  1  0.85913943  0.65962440  0.59862939  1.0
  H  H27  1  0.43860082  0.26427689  0.49181798  1.0
  H  H28  1  0.45828611  0.25997384  0.40134369  1.0
  H  H29  1  0.45298975  0.35591641  0.40136339  1.0
  C  C30  1  0.49999041  0.63974106  0.99997723  1.0
  C  C31  1  0.33693020  0.33683777  0.32629194  1.0
  C  C32  1  0.07456964  0.21169513  0.56058849  1.0
  C  C33  1  0.86592365  0.72633631  0.56028707  1.0
  C  C34  1  0.42619191  0.28820703  0.43970056  1.0
  C  C35  1  0.66321682  0.66307950  0.67371487  1.0
  C  C36  1  0.83677837  0.83691037  0.32613344  1.0
  C  C37  1  0.16290424  0.16306330  0.67388700  1.0
  C  C38  1  0.49999449  0.71747984  0.99995982  1.0
  C  C39  1  0.49997711  0.28252768  0.00001134  1.0
  C  C40  1  0.50002638  0.36026393  0.00000689  1.0
  C  C41  1  0.49992904  0.78302673  0.00004190  1.0
  C  C42  1  0.50003943  0.21697325  0.99995137  1.0
  C  C43  1  0.13984875  0.99998905  0.99999409  1.0
  C  C44  1  0.91942836  0.91948742  0.16079931  1.0
  C  C45  1  0.08027121  0.08043529  0.83921632  1.0
  C  C46  1  0.86037230  0.00003300  0.99998792  1.0
  C  C47  1  0.36095702  0.00002851  0.99990177  1.0
  C  C48  1  0.49999892  0.86061985  0.00006838  1.0
  C  C49  1  0.50011303  0.13936768  0.99993601  1.0
  C  C50  1  0.58029156  0.58036546  0.83908561  1.0
  C  C51  1  0.41943227  0.41957966  0.16092497  1.0
  C  C52  1  0.63921684  0.99998464  0.00007164  1.0
  C  C53  1  0.21764956  0.00001612  0.99998895  1.0
  C  C54  1  0.28332275  0.00002958  0.99992579  1.0
  C  C55  1  0.78256087  0.00000912  0.99997235  1.0
  C  C56  1  0.69452815  0.76096811  0.47188956  1.0
  C  C57  1  0.71687349  0.99999354  0.00004440  1.0
  C  C58  1  0.79549618  0.82437094  0.47275164  1.0
  C  C59  1  0.26759872  0.29744246  0.52728351  1.0
  C  C60  1  0.80074775  0.70600196  0.47269302  1.0
  C  C61  1  0.27411078  0.17911715  0.52728340  1.0
  C  C62  1  0.16647974  0.23210439  0.52813606  1.0
  C  C63  1  0.69818696  0.79454195  0.52820354  1.0
  C  C64  1  0.22577664  0.32231062  0.47184220  1.0
  C  C65  1  0.70354577  0.67416164  0.52814455  1.0
  C  C66  1  0.23241403  0.20197150  0.47183889  1.0
  C  C67  1  0.62507484  0.62502958  0.74970986  1.0
  C  C68  1  0.37478290  0.37485217  0.25029825  1.0
  C  C69  1  0.87446971  0.87483177  0.25022264  1.0
  C  C70  1  0.12470707  0.12510880  0.74979933  1.0
  C  C71  1  0.80602562  0.73875711  0.52876309  1.0
  C  C72  1  0.33479510  0.26826835  0.47123318  1.0
  C  C73  1  0.70747718  0.70712540  0.58582417  1.0
  C  C74  1  0.29335754  0.29294318  0.41417949  1.0
  C  C75  1  0.79345381  0.79314350  0.41380817  1.0
  C  C76  1  0.20726207  0.20696663  0.58621562  1.0
  C  C77  1  0.64167488  0.84272704  0.55965969  1.0
  C  C78  1  0.20003236  0.40149464  0.44038919  1.0
  C  C79  1  0.65283982  0.59115213  0.55962722  1.0
  C  C80  1  0.21392530  0.15008659  0.44033702  1.0
  C  C81  1  0.63505541  0.77383279  0.43943009  1.0
  I  I82  1  0.86740850  0.94204103  0.42854709  1.0
  I  I83  1  0.29438239  0.37144571  0.57144814  1.0
  I  I84  1  0.88099679  0.63738265  0.42844464  1.0
  I  I85  1  0.31108598  0.06690311  0.57154901  1.0
  O  O86  1  0.56183314  0.60942531  0.00000517  1.0
  O  O87  1  0.43819854  0.39060824  0.99998966  1.0
  O  O88  1  0.43812824  0.60941351  0.99996341  1.0
  O  O89  1  0.62403567  0.56236936  0.87511359  1.0
  O  O90  1  0.49922147  0.43758717  0.12491787  1.0
  O  O91  1  0.50050718  0.56243033  0.87502383  1.0
  O  O92  1  0.37563237  0.43758982  0.12495559  1.0
  O  O93  1  0.56190408  0.39056164  0.00002303  1.0
  O  O94  1  0.10955096  0.06178063  0.99998427  1.0
  O  O95  1  0.10953798  0.93816372  0.00000806  1.0
  O  O96  1  0.93742726  0.99913249  0.12490761  1.0
  O  O97  1  0.06240061  0.12420837  0.87509983  1.0
  O  O98  1  0.93745223  0.87570004  0.12492715  1.0
  O  O99  1  0.06242571  0.00078843  0.87510033  1.0
  O  O100  1  0.89065449  0.06186868  0.99997732  1.0
  O  O101  1  0.89065422  0.93823744  0.00000851  1.0
  O  O102  1  0.42721549  0.03570444  0.92853709  1.0
  O  O103  1  0.35583599  0.96435660  0.07126409  1.0
  O  O104  1  0.53573491  0.92681129  0.92872276  1.0
  O  O105  1  0.46436339  0.85546770  0.07143014  1.0
  O  O106  1  0.53584673  0.14451924  0.92857598  1.0
  O  O107  1  0.46446163  0.07317936  0.07128535  1.0
  O  O108  1  0.64434868  0.03564662  0.92870801  1.0
  O  O109  1  0.57296847  0.96431058  0.07143880  1.0
