# generated using pymatgen
data_ZnH13C28I5NO4
_symmetry_space_group_name_H-M   'P 1'
_cell_length_a   10.97656260
_cell_length_b   18.40968304
_cell_length_c   19.56988355
_cell_angle_alpha   92.20712499
_cell_angle_beta   91.39217380
_cell_angle_gamma   92.04253763
_symmetry_Int_Tables_number   1
_chemical_formula_structural   ZnH13C28I5NO4
_chemical_formula_sum   'Zn2 H26 C56 I10 N2 O8'
_cell_volume   3947.83571610
_cell_formula_units_Z   2
loop_
 _symmetry_equiv_pos_site_id
 _symmetry_equiv_pos_as_xyz
  1  'x, y, z'
loop_
 _atom_site_type_symbol
 _atom_site_label
 _atom_site_symmetry_multiplicity
 _atom_site_fract_x
 _atom_site_fract_y
 _atom_site_fract_z
 _atom_site_occupancy
  Zn  Zn0  1  0.49063212  0.42111305  0.49604216  1.0
  Zn  Zn1  1  0.50934597  0.57888994  0.50396038  1.0
  H  H2  1  0.44618051  0.38304450  0.71199811  1.0
  H  H3  1  0.55385598  0.61696138  0.28800364  1.0
  H  H4  1  0.33758323  0.42670062  0.93582767  1.0
  H  H5  1  0.66244071  0.57331170  0.06417973  1.0
  H  H6  1  0.61248799  0.31571980  0.56670036  1.0
  H  H7  1  0.38751192  0.68428441  0.43329071  1.0
  H  H8  1  0.46843317  0.92638551  0.39147844  1.0
  H  H9  1  0.53153838  0.07361089  0.60852590  1.0
  H  H10  1  0.17379765  0.46609803  0.34069658  1.0
  H  H11  1  0.82619562  0.53389420  0.65929972  1.0
  H  H12  1  0.24838080  0.52041787  0.23457942  1.0
  H  H13  1  0.75163155  0.47957190  0.76541806  1.0
  H  H14  1  0.34644332  0.42774107  0.06212966  1.0
  H  H15  1  0.65358861  0.57226424  0.93787407  1.0
  H  H16  1  0.63303808  0.18213606  0.57416260  1.0
  H  H17  1  0.36694990  0.81786265  0.42583586  1.0
  H  H18  1  0.33552051  0.15473137  0.42484353  1.0
  H  H19  1  0.66443931  0.84526818  0.57516485  1.0
  H  H20  1  0.45806978  0.05998966  0.39087570  1.0
  H  H21  1  0.54191199  0.94001289  0.60913300  1.0
  H  H22  1  0.53738224  0.61175879  0.71913576  1.0
  H  H23  1  0.46262052  0.38824720  0.28086459  1.0
  H  H24  1  0.53759084  0.61377130  0.84654590  1.0
  H  H25  1  0.46242463  0.38623215  0.15345607  1.0
  H  H26  1  0.44152726  0.38452407  0.83909464  1.0
  H  H27  1  0.55853004  0.61547504  0.16090973  1.0
  C  C28  1  0.50150820  0.50373312  0.36818059  1.0
  C  C29  1  0.49848613  0.49626354  0.63182147  1.0
  C  C30  1  0.87258910  0.48870446  0.49771229  1.0
  C  C31  1  0.12738776  0.51128757  0.50228485  1.0
  C  C32  1  0.94030531  0.46772414  0.55522115  1.0
  C  C33  1  0.05967810  0.53227397  0.44477775  1.0
  C  C34  1  0.51782856  0.56221817  0.74620976  1.0
  C  C35  1  0.48218770  0.43778302  0.25378449  1.0
  C  C36  1  0.51818602  0.56288608  0.81726103  1.0
  C  C37  1  0.48182954  0.43712117  0.18274052  1.0
  C  C38  1  0.49068672  0.49906592  0.85204657  1.0
  C  C39  1  0.50934883  0.50093887  0.14795565  1.0
  C  C40  1  0.46163995  0.43470096  0.81308400  1.0
  C  C41  1  0.53840908  0.56529639  0.18691819  1.0
  C  C42  1  0.46423345  0.43351659  0.74203919  1.0
  C  C43  1  0.53579842  0.56648496  0.25796905  1.0
  C  C44  1  0.49283421  0.49723781  0.70801690  1.0
  C  C45  1  0.50717951  0.50276676  0.29199069  1.0
  C  C46  1  0.41026701  0.45802086  0.96380173  1.0
  C  C47  1  0.58977298  0.54198015  0.03619789  1.0
  C  C48  1  0.41528829  0.45859394  0.03490006  1.0
  C  C49  1  0.58474268  0.54141075  0.96509854  1.0
  C  C50  1  0.26486630  0.51704438  0.50125016  1.0
  C  C51  1  0.73510546  0.48296017  0.49875389  1.0
  C  C52  1  0.50518392  0.50048916  0.07256428  1.0
  C  C53  1  0.49486065  0.49951297  0.92743389  1.0
  C  C54  1  0.55289753  0.27752320  0.53658139  1.0
  C  C55  1  0.44708873  0.72247878  0.46341969  1.0
  C  C56  1  0.56303722  0.20301533  0.54048833  1.0
  C  C57  1  0.43695079  0.79698397  0.45951372  1.0
  C  C58  1  0.48591763  0.15624560  0.49913577  1.0
  C  C59  1  0.51407041  0.84375530  0.50086377  1.0
  C  C60  1  0.40003132  0.18810267  0.45658884  1.0
  C  C61  1  0.59994773  0.81189987  0.54342137  1.0
  C  C62  1  0.39544295  0.26363307  0.45615992  1.0
  C  C63  1  0.60453062  0.73637305  0.54383755  1.0
  C  C64  1  0.47460082  0.03370565  0.43904513  1.0
  C  C65  1  0.52535803  0.96629380  0.56095506  1.0
  C  C66  1  0.48059646  0.95842962  0.43934471  1.0
  C  C67  1  0.51938716  0.04157561  0.56065847  1.0
  C  C68  1  0.50635359  0.92351510  0.50034195  1.0
  C  C69  1  0.49363820  0.07648913  0.49965976  1.0
  C  C70  1  0.16196538  0.67518863  0.31973086  1.0
  C  C71  1  0.83804228  0.32479722  0.68026136  1.0
  C  C72  1  0.12015561  0.64369889  0.37984612  1.0
  C  C73  1  0.87984932  0.35628693  0.62014760  1.0
  C  C74  1  0.12004463  0.56762948  0.38649300  1.0
  C  C75  1  0.87994398  0.43235941  0.61350214  1.0
  C  C76  1  0.17030505  0.52465695  0.33462768  1.0
  C  C77  1  0.82968539  0.47533250  0.66536648  1.0
  C  C78  1  0.21180248  0.55487953  0.27505440  1.0
  C  C79  1  0.78818135  0.44510216  0.72493386  1.0
  C  C80  1  0.20420273  0.62963533  0.26649474  1.0
  C  C81  1  0.79580777  0.37035384  0.73350015  1.0
  C  C82  1  0.93265612  0.51923836  0.44273443  1.0
  C  C83  1  0.06732092  0.48076074  0.55726289  1.0
  I  I84  1  0.25300537  0.66783414  0.17064374  1.0
  I  I85  1  0.74702351  0.33215810  0.82936115  1.0
  I  I86  1  0.26147384  0.30702417  0.39230413  1.0
  I  I87  1  0.73850994  0.69298706  0.60770074  1.0
  I  I88  1  0.15935162  0.78838654  0.30832038  1.0
  I  I89  1  0.84064994  0.21160801  0.69167966  1.0
  I  I90  1  0.05236480  0.70694240  0.46150384  1.0
  I  I91  1  0.94762407  0.29306152  0.53847432  1.0
  I  I92  1  0.83140816  0.54159851  0.35313235  1.0
  I  I93  1  0.16860801  0.45839941  0.64686079  1.0
  N  N94  1  0.47070525  0.30802826  0.49470735  1.0
  N  N95  1  0.52928009  0.69197422  0.50529067  1.0
  O  O96  1  0.49901154  0.44203600  0.39558969  1.0
  O  O97  1  0.50098009  0.55796067  0.60441694  1.0
  O  O98  1  0.49899333  0.56557830  0.39956617  1.0
  O  O99  1  0.50098839  0.43442679  0.60042727  1.0
  O  O100  1  0.31472271  0.45588197  0.49825355  1.0
  O  O101  1  0.68525190  0.54412801  0.50174709  1.0
  O  O102  1  0.31699990  0.57944168  0.50198431  1.0
  O  O103  1  0.68296373  0.42056653  0.49801616  1.0
