# generated using pymatgen
data_Al6H80(C11O4)9
_symmetry_space_group_name_H-M   'P 1'
_cell_length_a   12.49081353
_cell_length_b   12.80134316
_cell_length_c   27.72089495
_cell_angle_alpha   89.83711974
_cell_angle_beta   88.52430523
_cell_angle_gamma   119.19705265
_symmetry_Int_Tables_number   1
_chemical_formula_structural   Al6H80(C11O4)9
_chemical_formula_sum   'Al6 H80 C99 O36'
_cell_volume   3867.49471214
_cell_formula_units_Z   1
loop_
 _symmetry_equiv_pos_site_id
 _symmetry_equiv_pos_as_xyz
  1  'x, y, z'
loop_
 _atom_site_type_symbol
 _atom_site_label
 _atom_site_symmetry_multiplicity
 _atom_site_fract_x
 _atom_site_fract_y
 _atom_site_fract_z
 _atom_site_occupancy
  Al  Al0  1  0.81885613  0.41023947  0.50460163  1.0
  Al  Al1  1  0.06929473  0.65837994  0.49809398  1.0
  Al  Al2  1  0.08646416  0.43329722  0.50088595  1.0
  Al  Al3  1  0.83527819  0.90233511  0.01597374  1.0
  Al  Al4  1  0.58473759  0.91456363  0.01890490  1.0
  Al  Al5  1  0.56608841  0.67401295  0.01542338  1.0
  H  H6  1  0.32501590  0.50819432  0.21868114  1.0
  H  H7  1  0.94437491  0.77272552  0.12626722  1.0
  H  H8  1  0.59095307  0.55614473  0.24170011  1.0
  H  H9  1  0.55598965  0.56575944  0.15453999  1.0
  H  H10  1  0.20214585  0.48873041  0.72138103  1.0
  H  H11  1  0.00248160  0.15478347  0.72032511  1.0
  H  H12  1  0.97470496  0.12774922  0.81000624  1.0
  H  H13  1  0.44856367  0.97246005  0.70604406  1.0
  H  H14  1  0.56624778  0.93614805  0.69575522  1.0
  H  H15  1  0.44029153  0.88077999  0.65626779  1.0
  H  H16  1  0.46809131  0.48282534  0.78971987  1.0
  H  H17  1  0.40211242  0.85909145  0.29389616  1.0
  H  H18  1  0.46079601  0.56242128  0.84216025  1.0
  H  H19  1  0.55899583  0.49755902  0.84134293  1.0
  H  H20  1  0.99022706  0.66107958  0.85791601  1.0
  H  H21  1  0.97999416  0.53968198  0.82388442  1.0
  H  H22  1  0.08989725  0.68693629  0.80624718  1.0
  H  H23  1  0.90594252  0.49196606  0.67627844  1.0
  H  H24  1  0.96755611  0.45914091  0.72846770  1.0
  H  H25  1  0.06536948  0.53636267  0.67697248  1.0
  H  H26  1  0.44271252  0.96251362  0.36380794  1.0
  H  H27  1  0.31521818  0.89430794  0.40556664  1.0
  H  H28  1  0.23697430  0.47174301  0.37854960  1.0
  H  H29  1  0.45173504  0.89281724  0.41797879  1.0
  H  H30  1  0.29454200  0.40563203  0.15243898  1.0
  H  H31  1  0.26047672  0.45035842  0.09648947  1.0
  H  H32  1  0.41358525  0.49621486  0.10973493  1.0
  H  H33  1  0.14173865  0.77388902  0.25371409  1.0
  H  H34  1  0.16975495  0.85622862  0.19744227  1.0
  H  H35  1  0.21879622  0.93453434  0.25298089  1.0
  H  H36  1  0.26411089  0.81447123  0.06340671  1.0
  H  H37  1  0.14455044  0.78795245  0.10736751  1.0
  H  H38  1  0.24987517  0.93723189  0.08649279  1.0
  H  H39  1  0.07581885  0.26667191  0.37187945  1.0
  H  H40  1  0.32012195  0.37271462  0.34497042  1.0
  H  H41  1  0.45219986  0.47881545  0.31032481  1.0
  H  H42  1  0.34415967  0.33908404  0.28435871  1.0
  H  H43  1  0.35257836  0.96193790  0.81353606  1.0
  H  H44  1  0.50693019  0.05386164  0.83281345  1.0
  H  H45  1  0.41000768  0.91241156  0.86240410  1.0
  H  H46  1  0.00935593  0.36550922  0.12515699  1.0
  H  H47  1  0.99424120  0.24582618  0.08796920  1.0
  H  H48  1  0.88124514  0.29124821  0.08744718  1.0
  H  H49  1  0.02809731  0.12102841  0.25386528  1.0
  H  H50  1  0.96268942  0.31259307  0.20836696  1.0
  H  H51  1  0.11925977  0.27862190  0.25543855  1.0
  H  H52  1  0.13220321  0.18904928  0.30144063  1.0
  H  H53  1  0.59402964  0.80392055  0.19786995  1.0
  H  H54  1  0.55034771  0.86012885  0.14779303  1.0
  H  H55  1  0.66835123  0.82264815  0.14063739  1.0
  H  H56  1  0.61399271  0.34015410  0.35895243  1.0
  H  H57  1  0.73274710  0.36223319  0.39839775  1.0
  H  H58  1  0.63227097  0.41368442  0.41511274  1.0
  H  H59  1  0.17021381  0.49827288  0.85355834  1.0
  H  H60  1  0.11664554  0.40797504  0.80132081  1.0
  H  H61  1  0.69220792  0.95652092  0.25419202  1.0
  H  H62  1  0.25474195  0.43386128  0.82790523  1.0
  H  H63  1  0.71194472  0.35068356  0.29244617  1.0
  H  H64  1  0.58795188  0.37658989  0.28144205  1.0
  H  H65  1  0.71679260  0.43582914  0.24120754  1.0
  H  H66  1  0.93140162  0.93497201  0.31903662  1.0
  H  H67  1  0.01392052  0.90995009  0.27186896  1.0
  H  H68  1  0.85997869  0.87245168  0.26353911  1.0
  H  H69  1  0.12600391  0.93425239  0.33979864  1.0
  H  H70  1  0.13280727  0.82943239  0.38132709  1.0
  H  H71  1  0.14341895  0.96585812  0.40303086  1.0
  H  H72  1  0.66632543  0.12904009  0.30353730  1.0
  H  H73  1  0.75869934  0.41058600  0.82948150  1.0
  H  H74  1  0.76252286  0.30917541  0.87389934  1.0
  H  H75  1  0.62233340  0.30986020  0.86333691  1.0
  H  H76  1  0.71320914  0.27096367  0.67192555  1.0
  H  H77  1  0.59314781  0.19028955  0.71576333  1.0
  H  H78  1  0.69721943  0.34260926  0.72467540  1.0
  H  H79  1  0.56685296  0.66900728  0.71707906  1.0
  H  H80  1  0.68923788  0.75149514  0.67433816  1.0
  H  H81  1  0.60494375  0.59441428  0.67078090  1.0
  H  H82  1  0.70175847  0.18834604  0.39007440  1.0
  H  H83  1  0.98023087  0.75310155  0.21334497  1.0
  H  H84  1  0.61953584  0.27459600  0.53333660  1.0
  H  H85  1  0.03502412  0.98617081  0.98359810  1.0
  C  C86  1  0.89452853  0.62395031  0.56848844  1.0
  C  C87  1  0.93457999  0.16998820  0.73977300  1.0
  C  C88  1  0.92020844  0.15632077  0.78935668  1.0
  C  C89  1  0.21569116  0.61829713  0.56787340  1.0
  C  C90  1  0.76006988  0.21322439  0.78791426  1.0
  C  C91  1  0.77093840  0.22440541  0.73735929  1.0
  C  C92  1  0.85986329  0.20284753  0.71340794  1.0
  C  C93  1  0.83167023  0.17603861  0.81436933  1.0
  C  C94  1  0.81062356  0.14821513  0.86421504  1.0
  C  C95  1  0.87846991  0.22021226  0.66282515  1.0
  C  C96  1  0.79324112  0.11617050  0.90652217  1.0
  C  C97  1  0.26866812  0.58439508  0.78704115  1.0
  C  C98  1  0.87352956  0.65869595  0.61554754  1.0
  C  C99  1  0.73083329  0.65830777  0.72892566  1.0
  C  C100  1  0.71402575  0.64994184  0.77902301  1.0
  C  C101  1  0.91392765  0.28963389  0.57131077  1.0
  C  C102  1  0.90470702  0.64025264  0.78960626  1.0
  C  C103  1  0.91896533  0.64432448  0.73938701  1.0
  C  C104  1  0.83573371  0.65653906  0.70934628  1.0
  C  C105  1  0.80110873  0.64415002  0.80930028  1.0
  C  C106  1  0.78411841  0.64824961  0.85966475  1.0
  C  C107  1  0.85618530  0.66112920  0.65889810  1.0
  C  C108  1  0.26050296  0.57543373  0.73727148  1.0
  C  C109  1  0.76721751  0.65720293  0.90261510  1.0
  C  C110  1  0.29197312  0.65723738  0.38608275  1.0
  C  C111  1  0.34703454  0.77044121  0.36237961  1.0
  C  C112  1  0.36342161  0.77270393  0.31228224  1.0
  C  C113  1  0.88573356  0.60990307  0.43266999  1.0
  C  C114  1  0.33234014  0.67084652  0.28351094  1.0
  C  C115  1  0.29971967  0.56388492  0.31028841  1.0
  C  C116  1  0.27538294  0.55783937  0.35976479  1.0
  C  C117  1  0.32984191  0.58566977  0.20075217  1.0
  C  C118  1  0.33333333  0.58756393  0.15059961  1.0
  C  C119  1  0.32319105  0.67693449  0.70645395  1.0
  C  C120  1  0.32724977  0.77453467  0.15344701  1.0
  C  C121  1  0.32592692  0.77042050  0.20455949  1.0
  C  C122  1  0.33262982  0.67757850  0.22986776  1.0
  C  C123  1  0.34452704  0.69024947  0.12561654  1.0
  C  C124  1  0.89314129  0.23785482  0.38524351  1.0
  C  C125  1  0.23577320  0.63100240  0.43559965  1.0
  C  C126  1  0.98677734  0.23811603  0.35618644  1.0
  C  C127  1  0.96823137  0.20333743  0.30802410  1.0
  C  C128  1  0.85271173  0.16968881  0.28848830  1.0
  C  C129  1  0.75651187  0.16053489  0.31872710  1.0
  C  C130  1  0.34511851  0.69875620  0.80693653  1.0
  C  C131  1  0.77569547  0.19367619  0.36672428  1.0
  C  C132  1  0.89465472  0.22120318  0.19957896  1.0
  C  C133  1  0.87351983  0.18953199  0.15103501  1.0
  C  C134  1  0.71963797  0.98712855  0.17743018  1.0
  C  C135  1  0.74205211  0.02208425  0.22533094  1.0
  C  C136  1  0.82988687  0.13837274  0.23699596  1.0
  C  C137  1  0.91855474  0.29304676  0.43361407  1.0
  C  C138  1  0.78536660  0.07165496  0.14051762  1.0
  C  C139  1  0.84708138  0.62454733  0.38378021  1.0
  C  C140  1  0.76209799  0.52150598  0.35880942  1.0
  C  C141  1  0.36731800  0.70884379  0.85684903  1.0
  C  C142  1  0.75286165  0.53083776  0.30852609  1.0
  C  C143  1  0.80875096  0.64454554  0.28552787  1.0
  C  C144  1  0.87932430  0.74977276  0.31161405  1.0
  C  C145  1  0.90240285  0.73739069  0.35996024  1.0
  C  C146  1  0.88731121  0.71302484  0.20041469  1.0
  C  C147  1  0.86810750  0.72208867  0.15179856  1.0
  C  C148  1  0.64881041  0.60533074  0.16754910  1.0
  C  C149  1  0.27134767  0.64779727  0.61419574  1.0
  C  C150  1  0.66879191  0.60052674  0.21629536  1.0
  C  C151  1  0.78840792  0.65331507  0.23356379  1.0
  C  C152  1  0.30036464  0.66274038  0.65636942  1.0
  C  C153  1  0.74829475  0.66743768  0.13500695  1.0
  C  C154  1  0.76461263  0.05571272  0.95263903  1.0
  C  C155  1  0.44530193  0.73714218  0.94613030  1.0
  C  C156  1  0.74621844  0.69615403  0.94870470  1.0
  C  C157  1  0.76172808  0.02694702  0.08976828  1.0
  C  C158  1  0.40803000  0.72410673  0.07768152  1.0
  C  C159  1  0.72670379  0.68959881  0.08462998  1.0
  C  C160  1  0.39842031  0.79129564  0.72553904  1.0
  C  C161  1  0.40731637  0.80102402  0.77593641  1.0
  C  C162  1  0.46655002  0.90071926  0.69393849  1.0
  C  C163  1  0.39252344  0.71794588  0.89945675  1.0
  C  C164  1  0.52047879  0.54188738  0.81921655  1.0
  C  C165  1  0.99637301  0.63225156  0.82120552  1.0
  C  C166  1  0.98635626  0.52450544  0.69908866  1.0
  C  C167  1  0.39115984  0.88623378  0.38869677  1.0
  C  C168  1  0.32536679  0.47934196  0.12593948  1.0
  C  C169  1  0.20590973  0.85550552  0.23310921  1.0
  C  C170  1  0.23985626  0.84946888  0.09536014  1.0
  C  C171  1  0.35469002  0.41077339  0.30859269  1.0
  C  C172  1  0.43389878  0.96192535  0.82793610  1.0
  C  C173  1  0.94365390  0.27816519  0.11090866  1.0
  C  C174  1  0.89581071  0.24097368  0.61952519  1.0
  C  C175  1  0.06735849  0.19771638  0.27803705  1.0
  C  C176  1  0.62820383  0.86149091  0.16551873  1.0
  C  C177  1  0.68111341  0.40319762  0.38370617  1.0
  C  C178  1  0.19855790  0.47564192  0.81912536  1.0
  C  C179  1  0.68870284  0.41796730  0.27941839  1.0
  C  C180  1  0.92335753  0.87296237  0.29032237  1.0
  C  C181  1  0.10081328  0.89479714  0.37652657  1.0
  C  C182  1  0.70758383  0.32109123  0.84638937  1.0
  C  C183  1  0.68988472  0.25921770  0.71064548  1.0
  C  C184  1  0.64238358  0.66867229  0.69631628  1.0
  O  O185  1  0.83178974  0.31196957  0.55693224  1.0
  O  O186  1  0.46665067  0.65515831  0.96215646  1.0
  O  O187  1  0.64912750  0.62264811  0.97346137  1.0
  O  O188  1  0.82385407  0.51648857  0.55783039  1.0
  O  O189  1  0.81375756  0.77474576  0.06114936  1.0
  O  O190  1  0.83519927  0.99625847  0.07099514  1.0
  O  O191  1  0.66495306  0.01670005  0.06999434  1.0
  O  O192  1  0.45291780  0.83345239  0.06270341  1.0
  O  O193  1  0.42911054  0.64850524  0.05499722  1.0
  O  O194  1  0.61705406  0.62422625  0.06888371  1.0
  O  O195  1  0.66110477  0.83020682  0.01643258  1.0
  O  O196  1  0.20361721  0.70358013  0.45423386  1.0
  O  O197  1  0.98630235  0.70252770  0.54255868  1.0
  O  O198  1  0.18385808  0.68993495  0.54913584  1.0
  O  O199  1  0.19726324  0.51866603  0.55022527  1.0
  O  O200  1  0.01316846  0.31135919  0.54778396  1.0
  O  O201  1  0.83710630  0.31143900  0.45359299  1.0
  O  O202  1  0.81384626  0.51863079  0.45791140  1.0
  O  O203  1  0.99486814  0.68615273  0.44588744  1.0
  O  O204  1  0.61509347  0.65458906  0.79974283  1.0
  O  O205  1  0.01801010  0.63979603  0.71865382  1.0
  O  O206  1  0.32440603  0.86404339  0.22828928  1.0
  O  O207  1  0.21210230  0.53119787  0.45547611  1.0
  O  O208  1  0.32068840  0.86934149  0.13467999  1.0
  O  O209  1  0.28579884  0.46182644  0.28806236  1.0
  O  O210  1  0.48351756  0.91269683  0.79265675  1.0
  O  O211  1  0.97110793  0.83902457  0.38614976  1.0
  O  O212  1  0.67089292  0.23129549  0.80969369  1.0
  O  O213  1  0.02496341  0.32450591  0.45129987  1.0
  O  O214  1  0.99345908  0.50107265  0.50175369  1.0
  O  O215  1  0.82249409  0.80171587  0.96007928  1.0
  O  O216  1  0.83669991  0.02063910  0.96743885  1.0
  O  O217  1  0.66379848  0.03836373  0.97425891  1.0
  O  O218  1  0.47150619  0.83508414  0.96721377  1.0
  O  O219  1  0.65778149  0.32529591  0.50518627  1.0
  O  O220  1  0.99621592  0.96978170  0.01542221  1.0
