# generated using pymatgen
data_CuH8C6N8O
_symmetry_space_group_name_H-M   'P 1'
_cell_length_a   7.85094098
_cell_length_b   12.38219221
_cell_length_c   12.38452744
_cell_angle_alpha   89.99886681
_cell_angle_beta   89.99991415
_cell_angle_gamma   89.99922427
_symmetry_Int_Tables_number   1
_chemical_formula_structural   CuH8C6N8O
_chemical_formula_sum   'Cu4 H32 C24 N32 O4'
_cell_volume   1203.92295033
_cell_formula_units_Z   4
loop_
 _symmetry_equiv_pos_site_id
 _symmetry_equiv_pos_as_xyz
  1  'x, y, z'
loop_
 _atom_site_type_symbol
 _atom_site_label
 _atom_site_symmetry_multiplicity
 _atom_site_fract_x
 _atom_site_fract_y
 _atom_site_fract_z
 _atom_site_occupancy
  Cu  Cu0  1  0.03022493  0.99016968  0.32323607  1.0
  Cu  Cu1  1  0.78015031  0.67685424  0.98989646  1.0
  Cu  Cu2  1  0.53022971  0.00983356  0.67675841  1.0
  Cu  Cu3  1  0.28013996  0.32314521  0.01010666  1.0
  H  H4  1  0.18839444  0.90111918  0.09295437  1.0
  H  H5  1  0.93692282  0.90702692  0.90126982  1.0
  H  H6  1  0.68839553  0.09888833  0.90703834  1.0
  H  H7  1  0.43692986  0.09297682  0.09873154  1.0
  H  H8  1  0.14355158  0.76934672  0.04691922  1.0
  H  H9  1  0.89193170  0.95309216  0.76953888  1.0
  H  H10  1  0.64355487  0.23065634  0.95307919  1.0
  H  H11  1  0.39193431  0.04690390  0.23046090  1.0
  H  H12  1  0.19131455  0.69754719  0.23494565  1.0
  H  H13  1  0.94027829  0.76519701  0.69761306  1.0
  H  H14  1  0.69133841  0.30246192  0.76505190  1.0
  H  H15  1  0.44027040  0.23479863  0.30239475  1.0
  H  H16  1  0.37450850  0.76495182  0.17822008  1.0
  H  H17  1  0.12325963  0.82198144  0.76520288  1.0
  H  H18  1  0.87452475  0.23504116  0.82177326  1.0
  H  H19  1  0.62325551  0.17801534  0.23480443  1.0
  H  H20  1  0.48788120  0.83723154  0.36271566  1.0
  H  H21  1  0.23715994  0.63779152  0.83733901  1.0
  H  H22  1  0.98788411  0.16275804  0.63728323  1.0
  H  H23  1  0.73715083  0.36220669  0.16266658  1.0
  H  H24  1  0.34800483  0.72682653  0.39188466  1.0
  H  H25  1  0.09753635  0.60822091  0.72691933  1.0
  H  H26  1  0.84801567  0.27316749  0.60811355  1.0
  H  H27  1  0.59753273  0.39178094  0.27308558  1.0
  H  H28  1  0.17112536  0.83764657  0.50953610  1.0
  H  H29  1  0.92121707  0.49025409  0.83784964  1.0
  H  H30  1  0.67112735  0.16234898  0.49046389  1.0
  H  H31  1  0.42120625  0.50974899  0.16215173  1.0
  H  H32  1  0.38671219  0.83895353  0.55334953  1.0
  H  H33  1  0.13703637  0.44689844  0.83919164  1.0
  H  H34  1  0.88671304  0.16104742  0.44664865  1.0
  H  H35  1  0.63702579  0.55310145  0.16081081  1.0
  C  C36  1  0.95205256  0.83749171  0.14677663  1.0
  C  C37  1  0.70063969  0.85303249  0.83766125  1.0
  C  C38  1  0.45205127  0.16251918  0.85321664  1.0
  C  C39  1  0.20063907  0.14696524  0.16233871  1.0
  C  C40  1  0.13456093  0.82271383  0.11746963  1.0
  C  C41  1  0.88312070  0.88250562  0.82288437  1.0
  C  C42  1  0.63456806  0.17729334  0.88252878  1.0
  C  C43  1  0.38312195  0.11749456  0.17711784  1.0
  C  C44  1  0.24340305  0.77578943  0.20807261  1.0
  C  C45  1  0.99218635  0.79202648  0.77590078  1.0
  C  C46  1  0.74341450  0.22421276  0.79192489  1.0
  C  C47  1  0.49218302  0.20797436  0.22410536  1.0
  C  C48  1  0.35576858  0.81533514  0.38323590  1.0
  C  C49  1  0.10518110  0.61694140  0.81541434  1.0
  C  C50  1  0.85577490  0.18465962  0.61676069  1.0
  C  C51  1  0.60517405  0.38305554  0.18459299  1.0
  C  C52  1  0.29981156  0.86678645  0.48961170  1.0
  C  C53  1  0.04979644  0.51048421  0.86697169  1.0
  C  C54  1  0.79981539  0.13321122  0.51038656  1.0
  C  C55  1  0.54978854  0.48951240  0.13303489  1.0
  C  C56  1  0.29839390  0.98703820  0.48779292  1.0
  C  C57  1  0.04836206  0.51244149  0.98720799  1.0
  C  C58  1  0.79840409  0.01296029  0.51220050  1.0
  C  C59  1  0.54835575  0.48755837  0.01279940  1.0
  N  N60  1  0.89329194  0.90231896  0.22521744  1.0
  N  N61  1  0.64197358  0.77484723  0.90290233  1.0
  N  N62  1  0.39330113  0.09769889  0.77477426  1.0
  N  N63  1  0.14196637  0.22515261  0.09710092  1.0
  N  N64  1  0.72154700  0.89548731  0.22609853  1.0
  N  N65  1  0.47056740  0.77357606  0.89568617  1.0
  N  N66  1  0.22155477  0.10452477  0.77389819  1.0
  N  N67  1  0.97056129  0.22642174  0.10431758  1.0
  N  N68  1  0.67503999  0.82867134  0.15027799  1.0
  N  N69  1  0.42393915  0.84901188  0.82824242  1.0
  N  N70  1  0.17504363  0.17133145  0.84972765  1.0
  N  N71  1  0.92393830  0.15098310  0.17175895  1.0
  N  N72  1  0.81685530  0.79081686  0.09986943  1.0
  N  N73  1  0.56541215  0.89943486  0.79042692  1.0
  N  N74  1  0.31686184  0.20918147  0.90013285  1.0
  N  N75  1  0.06541495  0.10056000  0.20957237  1.0
  N  N76  1  0.20342291  0.04840499  0.42177793  1.0
  N  N77  1  0.95317247  0.57844969  0.04845085  1.0
  N  N78  1  0.70343352  0.95159109  0.57821396  1.0
  N  N79  1  0.45315275  0.42155876  0.95155210  1.0
  N  N80  1  0.23622167  0.15333676  0.44525536  1.0
  N  N81  1  0.98584893  0.55506574  0.15339653  1.0
  N  N82  1  0.73623709  0.84665823  0.55473165  1.0
  N  N83  1  0.48583788  0.44493920  0.84660639  1.0
  N  N84  1  0.34762984  0.15650457  0.52350049  1.0
  N  N85  1  0.09741612  0.47690166  0.15666794  1.0
  N  N86  1  0.84764424  0.84349349  0.47648642  1.0
  N  N87  1  0.59742623  0.52308969  0.84333616  1.0
  N  N88  1  0.38855593  0.05368388  0.55111417  1.0
  N  N89  1  0.13858612  0.44923696  0.05390287  1.0
  N  N90  1  0.88856440  0.94631464  0.44887835  1.0
  N  N91  1  0.63860050  0.55075242  0.94610281  1.0
  O  O92  1  0.24407215  0.84972052  0.29781854  1.0
  O  O93  1  0.99295272  0.70215151  0.84968971  1.0
  O  O94  1  0.74407135  0.15028086  0.70217977  1.0
  O  O95  1  0.49294640  0.29785094  0.15031967  1.0
