# generated using pymatgen
data_ZnH6C11NO4
_symmetry_space_group_name_H-M   'P 1'
_cell_length_a   10.63350133
_cell_length_b   11.91083275
_cell_length_c   16.03239301
_cell_angle_alpha   89.99993663
_cell_angle_beta   90.00027690
_cell_angle_gamma   89.99665307
_symmetry_Int_Tables_number   1
_chemical_formula_structural   ZnH6C11NO4
_chemical_formula_sum   'Zn2 H12 C22 N2 O8'
_cell_volume   2030.56439035
_cell_formula_units_Z   2
loop_
 _symmetry_equiv_pos_site_id
 _symmetry_equiv_pos_as_xyz
  1  'x, y, z'
loop_
 _atom_site_type_symbol
 _atom_site_label
 _atom_site_symmetry_multiplicity
 _atom_site_fract_x
 _atom_site_fract_y
 _atom_site_fract_z
 _atom_site_occupancy
  Zn  Zn0  1  0.62807729  0.50004445  0.50000040  1.0
  Zn  Zn1  1  0.37188040  0.50004927  0.50000186  1.0
  H  H2  1  0.61201507  0.65170564  0.92708939  1.0
  H  H3  1  0.70141380  0.52690753  0.07310790  1.0
  H  H4  1  0.29686112  0.51158237  0.92691866  1.0
  H  H5  1  0.70141597  0.52690773  0.92689560  1.0
  H  H6  1  0.37401945  0.64272238  0.92704972  1.0
  H  H7  1  0.61201478  0.65170627  0.07291247  1.0
  H  H8  1  0.37401727  0.64272302  0.07294890  1.0
  H  H9  1  0.59076047  0.33740637  0.07294438  1.0
  H  H10  1  0.42492913  0.33119103  0.07292540  1.0
  H  H11  1  0.59076171  0.33740573  0.92705892  1.0
  H  H12  1  0.42493036  0.33119123  0.92707737  1.0
  H  H13  1  0.29685989  0.51158301  0.07308044  1.0
  C  C14  1  0.49998041  0.71939928  0.50000010  1.0
  C  C15  1  0.50000131  0.49945760  0.33798383  1.0
  C  C16  1  0.50000250  0.49945064  0.66201842  1.0
  C  C17  1  0.49997570  0.94335087  0.49999814  1.0
  C  C18  1  0.49995470  0.84062842  0.49999818  1.0
  C  C19  1  0.06428369  0.50003860  0.50000324  1.0
  C  C20  1  0.93567776  0.50003077  0.50000214  1.0
  C  C21  1  0.49996600  0.28065666  0.49999966  1.0
  C  C22  1  0.61545671  0.56567444  0.04826429  1.0
  C  C23  1  0.37882188  0.55676503  0.04826704  1.0
  C  C24  1  0.61545624  0.56567376  0.95173641  1.0
  C  C25  1  0.50004704  0.49886623  0.75192391  1.0
  C  C26  1  0.37882329  0.55676435  0.95173229  1.0
  C  C27  1  0.49994907  0.05670422  0.49999912  1.0
  C  C28  1  0.49994750  0.15944011  0.49999846  1.0
  C  C29  1  0.50004332  0.49887332  0.24807835  1.0
  C  C30  1  0.50001352  0.50022852  0.08174198  1.0
  C  C31  1  0.50001563  0.50022621  0.91826027  1.0
  C  C32  1  0.50579406  0.37810611  0.95171073  1.0
  C  C33  1  0.50579264  0.37810679  0.04829288  1.0
  C  C34  1  0.50010185  0.49937075  0.82775725  1.0
  C  C35  1  0.50009758  0.49937376  0.17224500  1.0
  N  N36  1  0.17349607  0.50004506  0.50000092  1.0
  N  N37  1  0.82646162  0.50002766  0.50000196  1.0
  O  O38  1  0.60738877  0.67190533  0.50000154  1.0
  O  O39  1  0.39257336  0.67189903  0.50000120  1.0
  O  O40  1  0.60723610  0.49977977  0.37388132  1.0
  O  O41  1  0.39275360  0.49977177  0.37386227  1.0
  O  O42  1  0.60723796  0.49977622  0.62611940  1.0
  O  O43  1  0.39275452  0.49976571  0.62614026  1.0
  O  O44  1  0.60736835  0.32813928  0.50000043  1.0
  O  O45  1  0.39255293  0.32815564  0.50000009  1.0
