# generated using pymatgen
data_Cu4SiH8(C5N6)4
_symmetry_space_group_name_H-M   'P 1'
_cell_length_a   25.42129298
_cell_length_b   25.49672856
_cell_length_c   25.52207574
_cell_angle_alpha   88.58042979
_cell_angle_beta   89.81124965
_cell_angle_gamma   89.94350855
_symmetry_Int_Tables_number   1
_chemical_formula_structural   Cu4SiH8(C5N6)4
_chemical_formula_sum   'Cu12 Si3 H24 C60 N72'
_cell_volume   16537.21009315
_cell_formula_units_Z   3
loop_
 _symmetry_equiv_pos_site_id
 _symmetry_equiv_pos_as_xyz
  1  'x, y, z'
loop_
 _atom_site_type_symbol
 _atom_site_label
 _atom_site_symmetry_multiplicity
 _atom_site_fract_x
 _atom_site_fract_y
 _atom_site_fract_z
 _atom_site_occupancy
  Cu  Cu0  1  0.23267770  0.85737844  0.77382665  1.0
  Cu  Cu1  1  0.14394677  0.77019990  0.77607274  1.0
  Cu  Cu2  1  0.22366182  0.77468211  0.87111292  1.0
  Cu  Cu3  1  0.23105947  0.13858374  0.22640365  1.0
  Cu  Cu4  1  0.14331092  0.22701044  0.22652480  1.0
  Cu  Cu5  1  0.22162055  0.22106681  0.12958437  1.0
  Cu  Cu6  1  0.77194030  0.14471101  0.76656077  1.0
  Cu  Cu7  1  0.86392269  0.22987146  0.76839134  1.0
  Cu  Cu8  1  0.76549181  0.23549845  0.84765420  1.0
  Cu  Cu9  1  0.77603349  0.86131534  0.23062303  1.0
  Cu  Cu10  1  0.86512173  0.77201527  0.23253722  1.0
  Cu  Cu11  1  0.76920612  0.76840941  0.15175139  1.0
  Si  Si12  1  0.98801604  0.49900358  0.00157089  1.0
  Si  Si13  1  0.00229511  0.99903578  0.50169778  1.0
  Si  Si14  1  0.50223047  0.99935156  0.99877836  1.0
  H  H15  1  0.19633272  0.92683424  0.67378812  1.0
  H  H16  1  0.07574603  0.80661621  0.67768446  1.0
  H  H17  1  0.31436272  0.81741933  0.94387045  1.0
  H  H18  1  0.33353862  0.92130026  0.80804764  1.0
  H  H19  1  0.07381728  0.67247665  0.81147878  1.0
  H  H20  1  0.18045143  0.67891134  0.94340800  1.0
  H  H21  1  0.19463073  0.06858188  0.32606760  1.0
  H  H22  1  0.07780854  0.19252985  0.32808184  1.0
  H  H23  1  0.31218726  0.17847093  0.05566037  1.0
  H  H24  1  0.33254997  0.07510642  0.19159342  1.0
  H  H25  1  0.07319210  0.32491444  0.19148990  1.0
  H  H26  1  0.17800391  0.31622634  0.05760140  1.0
  H  H27  1  0.80892159  0.07645821  0.67127574  1.0
  H  H28  1  0.93792020  0.18734830  0.67691372  1.0
  H  H29  1  0.66404298  0.19955181  0.91471068  1.0
  H  H30  1  0.67962820  0.07003343  0.80883213  1.0
  H  H31  1  0.93429029  0.32283369  0.81191013  1.0
  H  H32  1  0.79771965  0.33374437  0.91332893  1.0
  H  H33  1  0.81440598  0.93071715  0.32436162  1.0
  H  H34  1  0.93574967  0.81103546  0.32704096  1.0
  H  H35  1  0.66869934  0.80340324  0.08424080  1.0
  H  H36  1  0.68406821  0.93588123  0.18632281  1.0
  H  H37  1  0.93483508  0.67671474  0.19104390  1.0
  H  H38  1  0.80076276  0.66916957  0.08691277  1.0
  C  C39  1  0.17160601  0.89303909  0.68239909  1.0
  C  C40  1  0.12517751  0.87745104  0.65735308  1.0
  C  C41  1  0.10970099  0.83126130  0.68436215  1.0
  C  C42  1  0.31137845  0.83835958  0.90647717  1.0
  C  C43  1  0.34229581  0.87998285  0.88649071  1.0
  C  C44  1  0.32129136  0.89156357  0.83665208  1.0
  C  C45  1  0.10457166  0.68169417  0.83911237  1.0
  C  C46  1  0.11571114  0.65748535  0.88789940  1.0
  C  C47  1  0.15935436  0.68495532  0.90687157  1.0
  C  C48  1  0.17073511  0.10324183  0.31873943  1.0
  C  C49  1  0.12574989  0.12006529  0.34581410  1.0
  C  C50  1  0.11078734  0.16696636  0.31983529  1.0
  C  C51  1  0.30945973  0.15764095  0.09314188  1.0
  C  C52  1  0.34084118  0.11635128  0.11300166  1.0
  C  C53  1  0.32003599  0.10473023  0.16303619  1.0
  C  C54  1  0.10348618  0.31514598  0.16334307  1.0
  C  C55  1  0.11419354  0.33882723  0.11415060  1.0
  C  C56  1  0.15737421  0.31077432  0.09460103  1.0
  C  C57  1  0.83568541  0.10818161  0.67984964  1.0
  C  C58  1  0.88436326  0.12061981  0.65644957  1.0
  C  C59  1  0.90193008  0.16511848  0.68277387  1.0
  C  C60  1  0.67517196  0.17293232  0.88407511  1.0
  C  C61  1  0.65395705  0.12356218  0.87289064  1.0
  C  C62  1  0.68332094  0.10630486  0.82981971  1.0
  C  C63  1  0.89678296  0.31808500  0.83186084  1.0
  C  C64  1  0.87614097  0.34631037  0.87389410  1.0
  C  C65  1  0.82662816  0.32365696  0.88389168  1.0
  C  C66  1  0.83941591  0.89705795  0.31760871  1.0
  C  C67  1  0.88587847  0.88182415  0.34352974  1.0
  C  C68  1  0.90170175  0.83558458  0.31900546  1.0
  C  C69  1  0.67976803  0.83088156  0.11403277  1.0
  C  C70  1  0.65857404  0.88063052  0.12391259  1.0
  C  C71  1  0.68782322  0.89900391  0.16636380  1.0
  C  C72  1  0.89800375  0.68244089  0.17032025  1.0
  C  C73  1  0.87774085  0.65457212  0.12802656  1.0
  C  C74  1  0.82914421  0.67860870  0.11686115  1.0
  C  C75  1  0.09780601  0.90425658  0.61507063  1.0
  C  C76  1  0.04471177  0.95627363  0.54562022  1.0
  C  C77  1  0.09894219  0.09362445  0.38879715  1.0
  C  C78  1  0.04529784  0.04188749  0.45825662  1.0
  C  C79  1  0.91131620  0.09238850  0.61605037  1.0
  C  C80  1  0.96091491  0.04003726  0.54647193  1.0
  C  C81  1  0.91238219  0.90873877  0.38488467  1.0
  C  C82  1  0.96160055  0.95865412  0.45612610  1.0
  C  C83  1  0.38543590  0.90582805  0.91176142  1.0
  C  C84  1  0.45740402  0.95716567  0.95900920  1.0
  C  C85  1  0.61748959  0.90789772  0.09534383  1.0
  C  C86  1  0.54781326  0.95827225  0.04107598  1.0
  C  C87  1  0.38405419  0.09072027  0.08726621  1.0
  C  C88  1  0.45659835  0.04022943  0.03937931  1.0
  C  C89  1  0.61290078  0.09541844  0.90083114  1.0
  C  C90  1  0.54525561  0.04237755  0.95546263  1.0
  C  C91  1  0.08703833  0.61512596  0.91333407  1.0
  C  C92  1  0.03153337  0.54462195  0.96151865  1.0
  C  C93  1  0.90073299  0.38793350  0.90218782  1.0
  C  C94  1  0.94740151  0.45665351  0.95765199  1.0
  C  C95  1  0.90175845  0.61198227  0.10044932  1.0
  C  C96  1  0.94785383  0.54207250  0.04554001  1.0
  C  C97  1  0.08562969  0.38127462  0.08884278  1.0
  C  C98  1  0.03085535  0.45257241  0.04122398  1.0
  N  N99  1  0.14428921  0.82029183  0.72270878  1.0
  N  N100  1  0.18278058  0.85865732  0.72149438  1.0
  N  N101  1  0.28079375  0.85928318  0.82771780  1.0
  N  N102  1  0.27478069  0.82604603  0.87103724  1.0
  N  N103  1  0.17299671  0.72283783  0.87194151  1.0
  N  N104  1  0.13899546  0.72070730  0.82979793  1.0
  N  N105  1  0.14430242  0.17716846  0.28014694  1.0
  N  N106  1  0.18164567  0.13763852  0.27953697  1.0
  N  N107  1  0.27917195  0.13664775  0.17217174  1.0
  N  N108  1  0.27278554  0.16973393  0.12882989  1.0
  N  N109  1  0.17116452  0.27309108  0.12959628  1.0
  N  N110  1  0.13775092  0.27591416  0.17235624  1.0
  N  N111  1  0.86629476  0.17807693  0.71917773  1.0
  N  N112  1  0.82518148  0.14262051  0.71740673  1.0
  N  N113  1  0.71924727  0.14277376  0.81637572  1.0
  N  N114  1  0.71440571  0.18407930  0.85025505  1.0
  N  N115  1  0.81845009  0.28479295  0.85036937  1.0
  N  N116  1  0.86206473  0.28130200  0.81800833  1.0
  N  N117  1  0.86720334  0.82427947  0.28121395  1.0
  N  N118  1  0.82847253  0.86249011  0.28037512  1.0
  N  N119  1  0.72372648  0.86282626  0.18066104  1.0
  N  N120  1  0.71888147  0.82056773  0.14799359  1.0
  N  N121  1  0.82109092  0.71785020  0.15001805  1.0
  N  N122  1  0.86387904  0.72026366  0.18327103  1.0
  N  N123  1  0.11907876  0.94967198  0.59563558  1.0
  N  N124  1  0.05259031  0.88231317  0.59760583  1.0
  N  N125  1  0.02532055  0.90936994  0.56223617  1.0
  N  N126  1  0.09156213  0.97627033  0.56020155  1.0
  N  N127  1  0.11845673  0.04655709  0.40583466  1.0
  N  N128  1  0.05626005  0.11768594  0.40968502  1.0
  N  N129  1  0.02867849  0.09080887  0.44510719  1.0
  N  N130  1  0.09057009  0.02007185  0.44118412  1.0
  N  N131  1  0.88665202  0.05003594  0.59607138  1.0
  N  N132  1  0.96014021  0.10938470  0.60179419  1.0
  N  N133  1  0.98535873  0.08230434  0.56623516  1.0
  N  N134  1  0.91237947  0.02318304  0.56053959  1.0
  N  N135  1  0.95777986  0.88727392  0.40364308  1.0
  N  N136  1  0.89064242  0.95421167  0.40146085  1.0
  N  N137  1  0.91622529  0.97977369  0.43779042  1.0
  N  N138  1  0.98287802  0.91309745  0.44007321  1.0
  N  N139  1  0.41279313  0.94238962  0.88321082  1.0
  N  N140  1  0.39623947  0.89127483  0.96223788  1.0
  N  N141  1  0.43291068  0.91803721  0.98631541  1.0
  N  N142  1  0.44956307  0.96880320  0.90771953  1.0
  N  N143  1  0.60792574  0.95864503  0.10772855  1.0
  N  N144  1  0.59186077  0.88140617  0.05754967  1.0
  N  N145  1  0.55617123  0.90744992  0.02978410  1.0
  N  N146  1  0.57245330  0.98428411  0.07953446  1.0
  N  N147  1  0.39363967  0.10452998  0.03628785  1.0
  N  N148  1  0.41251981  0.05505910  0.11574903  1.0
  N  N149  1  0.44965267  0.02909390  0.09091597  1.0
  N  N150  1  0.43059158  0.07818717  0.01191566  1.0
  N  N151  1  0.58641414  0.12080982  0.93899466  1.0
  N  N152  1  0.60361713  0.04508106  0.88691728  1.0
  N  N153  1  0.56927828  0.01801146  0.91536320  1.0
  N  N154  1  0.55178413  0.09337016  0.96697775  1.0
  N  N155  1  0.10496126  0.59657002  0.96039951  1.0
  N  N156  1  0.04395520  0.59665611  0.88828349  1.0
  N  N157  1  0.01539335  0.56077527  0.91336261  1.0
  N  N158  1  0.07623007  0.56052047  0.98494062  1.0
  N  N159  1  0.94937132  0.40395981  0.88625519  1.0
  N  N160  1  0.87341466  0.40842973  0.94276386  1.0
  N  N161  1  0.89775981  0.44322980  0.97150105  1.0
  N  N162  1  0.97304708  0.43919050  0.91486587  1.0
  N  N163  1  0.94937017  0.59420678  0.11735645  1.0
  N  N164  1  0.87468652  0.59208804  0.05959031  1.0
  N  N165  1  0.89873937  0.55669880  0.03115646  1.0
  N  N166  1  0.97277813  0.55837596  0.08901324  1.0
  N  N167  1  0.04251321  0.39988341  0.11406102  1.0
  N  N168  1  0.10357226  0.39952611  0.04156245  1.0
  N  N169  1  0.07525004  0.43603826  0.01734956  1.0
  N  N170  1  0.01431903  0.43617322  0.08927018  1.0
