# generated using pymatgen
data_AlH7C11N2O5F
_symmetry_space_group_name_H-M   'P 1'
_cell_length_a   6.67166837
_cell_length_b   11.15542227
_cell_length_c   16.87954686
_cell_angle_alpha   78.32574400
_cell_angle_beta   83.72437671
_cell_angle_gamma   73.15163106
_symmetry_Int_Tables_number   1
_chemical_formula_structural   AlH7C11N2O5F
_chemical_formula_sum   'Al2 H14 C22 N4 O10 F2'
_cell_volume   1175.74676615
_cell_formula_units_Z   2
loop_
 _symmetry_equiv_pos_site_id
 _symmetry_equiv_pos_as_xyz
  1  'x, y, z'
loop_
 _atom_site_type_symbol
 _atom_site_label
 _atom_site_symmetry_multiplicity
 _atom_site_fract_x
 _atom_site_fract_y
 _atom_site_fract_z
 _atom_site_occupancy
  Al  Al0  1  0.49624001  0.50206074  0.49988728  1.0
  Al  Al1  1  0.99479952  0.50509776  0.50063392  1.0
  H  H2  1  0.19021393  0.65466694  0.43949055  1.0
  H  H3  1  0.81088344  0.34786268  0.55132505  1.0
  H  H4  1  0.84971658  0.57159749  0.72777211  1.0
  H  H5  1  0.78157986  0.57455441  0.87703712  1.0
  H  H6  1  0.44708306  0.45193043  0.90549184  1.0
  H  H7  1  0.61080465  0.44917213  0.10466790  1.0
  H  H8  1  0.16577573  0.56940704  0.10912025  1.0
  H  H9  1  0.08962895  0.57137350  0.25834381  1.0
  H  H10  1  0.24247872  0.87100060  0.52903039  1.0
  H  H11  1  0.74195959  0.13570220  0.47004564  1.0
  H  H12  1  0.59128386  0.44548277  0.69147242  1.0
  H  H13  1  0.67980227  0.42058634  0.78916320  1.0
  H  H14  1  0.45487704  0.45598986  0.31737189  1.0
  H  H15  1  0.39719015  0.42387449  0.22671576  1.0
  C  C16  1  0.63366657  0.73086728  0.49762161  1.0
  C  C17  1  0.78596434  0.51044191  0.35393696  1.0
  C  C18  1  0.35402407  0.27572295  0.50242326  1.0
  C  C19  1  0.20591948  0.49927074  0.64568428  1.0
  C  C20  1  0.18342890  0.50516074  0.73259284  1.0
  C  C21  1  0.97860181  0.54274867  0.76819173  1.0
  C  C22  1  0.93961579  0.54460889  0.84994825  1.0
  C  C23  1  0.11345456  0.50850945  0.89913387  1.0
  C  C24  1  0.31753769  0.47635507  0.86555867  1.0
  C  C25  1  0.35934305  0.47268722  0.78185928  1.0
  C  C26  1  0.71637753  0.47368280  0.13981823  1.0
  C  C27  1  0.89322019  0.50510366  0.10001790  1.0
  C  C28  1  0.03273095  0.54063313  0.14205379  1.0
  C  C29  1  0.98955563  0.54163345  0.22381859  1.0
  C  C30  1  0.81427180  0.50757165  0.26640764  1.0
  C  C31  1  0.67230020  0.47286392  0.22379989  1.0
  C  C32  1  0.42009477  0.13592594  0.50173312  1.0
  C  C33  1  0.56465320  0.87084676  0.49759722  1.0
  C  C34  1  0.28356851  0.05772484  0.51801129  1.0
  C  C35  1  0.70102938  0.94916205  0.48102106  1.0
  C  C36  1  0.35284773  0.92861551  0.51600954  1.0
  C  C37  1  0.63166128  0.07814995  0.48308625  1.0
  N  N38  1  0.09541369  0.50508018  0.98384642  1.0
  N  N39  1  0.91549679  0.50282018  0.01593948  1.0
  N  N40  1  0.56131076  0.43618047  0.75244424  1.0
  N  N41  1  0.50250252  0.43621238  0.26100676  1.0
  O  O42  1  0.48978850  0.67577235  0.50040937  1.0
  O  O43  1  0.94394293  0.51187529  0.38980061  1.0
  O  O44  1  0.15906601  0.33127157  0.50610927  1.0
  O  O45  1  0.38978565  0.48640741  0.61010417  1.0
  O  O46  1  0.50088241  0.32877931  0.49859986  1.0
  O  O47  1  0.04255551  0.50487552  0.61040976  1.0
  O  O48  1  0.82923316  0.67728647  0.49546619  1.0
  O  O49  1  0.60403483  0.51275236  0.38911815  1.0
  O  O50  1  0.22770587  0.56432463  0.46175856  1.0
  O  O51  1  0.76573202  0.44025347  0.53837539  1.0
  F  F52  1  0.07650216  0.10610629  0.53778297  1.0
  F  F53  1  0.90789139  0.90133350  0.46090214  1.0
