# generated using pymatgen
data_Cd3Si2H32(C7O2)8
_symmetry_space_group_name_H-M   'P 1'
_cell_length_a   14.46256181
_cell_length_b   15.17035859
_cell_length_c   23.19310459
_cell_angle_alpha   83.78624855
_cell_angle_beta   71.91632300
_cell_angle_gamma   61.56247736
_symmetry_Int_Tables_number   1
_chemical_formula_structural   Cd3Si2H32(C7O2)8
_chemical_formula_sum   'Cd6 Si4 H64 C112 O32'
_cell_volume   4248.81341227
_cell_formula_units_Z   2
loop_
 _symmetry_equiv_pos_site_id
 _symmetry_equiv_pos_as_xyz
  1  'x, y, z'
loop_
 _atom_site_type_symbol
 _atom_site_label
 _atom_site_symmetry_multiplicity
 _atom_site_fract_x
 _atom_site_fract_y
 _atom_site_fract_z
 _atom_site_occupancy
  Cd  Cd0  1  0.72460321  0.63932776  0.96517096  1.0
  Cd  Cd1  1  0.82949895  0.86072413  0.53464260  1.0
  Cd  Cd2  1  0.27555110  0.36060680  0.03464038  1.0
  Cd  Cd3  1  0.17067619  0.13939437  0.46560200  1.0
  Cd  Cd4  1  0.99979955  0.50002291  0.99989417  1.0
  Cd  Cd5  1  0.99998069  0.99989802  0.50002115  1.0
  Si  Si6  1  0.11221149  0.98597940  0.85860261  1.0
  Si  Si7  1  0.45681692  0.51409397  0.64230821  1.0
  Si  Si8  1  0.88791583  0.01390921  0.14140260  1.0
  Si  Si9  1  0.54348431  0.48598427  0.35760876  1.0
  H  H10  1  0.87252448  0.12845860  0.91954357  1.0
  H  H11  1  0.42023100  0.37143013  0.58143620  1.0
  H  H12  1  0.12762286  0.87120987  0.08050270  1.0
  H  H13  1  0.57992825  0.62884470  0.41848315  1.0
  H  H14  1  0.08229148  0.31884622  0.89357111  1.0
  H  H15  1  0.79477083  0.18121934  0.60689612  1.0
  H  H16  1  0.91736400  0.68130681  0.10632442  1.0
  H  H17  1  0.20525367  0.81859402  0.39315870  1.0
  H  H18  1  0.15774602  0.80296195  0.93142009  1.0
  H  H19  1  0.39270503  0.69652179  0.56893647  1.0
  H  H20  1  0.84213209  0.19697986  0.06871878  1.0
  H  H21  1  0.60754269  0.30349388  0.43081240  1.0
  H  H22  1  0.18263541  0.13559034  0.86877896  1.0
  H  H23  1  0.68686129  0.36424647  0.63232660  1.0
  H  H24  1  0.81727157  0.86453359  0.13120106  1.0
  H  H25  1  0.31344498  0.63560214  0.36765611  1.0
  H  H26  1  0.12472999  0.85454287  0.76597647  1.0
  H  H27  1  0.24550366  0.64573069  0.73471165  1.0
  H  H28  1  0.87561954  0.14513617  0.23407543  1.0
  H  H29  1  0.75463538  0.35453563  0.26504315  1.0
  H  H30  1  0.12943728  0.13689072  0.76724218  1.0
  H  H31  1  0.53359344  0.36359001  0.73388185  1.0
  H  H32  1  0.87061390  0.86294626  0.23270581  1.0
  H  H33  1  0.46624326  0.63655298  0.26612654  1.0
  H  H34  1  0.77358607  0.31171130  0.94466968  1.0
  H  H35  1  0.52984114  0.18840311  0.55573502  1.0
  H  H36  1  0.22630513  0.68798060  0.05532273  1.0
  H  H37  1  0.47002510  0.81183672  0.44427883  1.0
  H  H38  1  0.12606714  0.15724984  0.66021833  1.0
  H  H39  1  0.44340884  0.34320638  0.84078885  1.0
  H  H40  1  0.87386534  0.84249807  0.33974921  1.0
  H  H41  1  0.55602546  0.65703877  0.15916190  1.0
  H  H42  1  0.11646338  0.87838864  0.65981233  1.0
  H  H43  1  0.15483958  0.62181304  0.84074881  1.0
  H  H44  1  0.88376018  0.12120280  0.34025652  1.0
  H  H45  1  0.84486747  0.37853569  0.15892435  1.0
  H  H46  1  0.89856180  0.00381532  0.85397395  1.0
  H  H47  1  0.25580843  0.49686171  0.64712540  1.0
  H  H48  1  0.10171571  0.99615967  0.14590027  1.0
  H  H49  1  0.74469923  0.50306773  0.35290885  1.0
  H  H50  1  0.05975184  0.70211017  0.96936684  1.0
  H  H51  1  0.23218781  0.79718918  0.53058447  1.0
  H  H52  1  0.93995294  0.29794091  0.03067677  1.0
  H  H53  1  0.76787841  0.20267832  0.46927091  1.0
  H  H54  1  0.17029396  0.97475217  0.97044197  1.0
  H  H55  1  0.61536091  0.52536380  0.53059360  1.0
  H  H56  1  0.82988331  0.02506880  0.02955219  1.0
  H  H57  1  0.38498571  0.47511621  0.46943000  1.0
  H  H58  1  0.34301583  0.87559442  0.99961108  1.0
  H  H59  1  0.71811028  0.62442687  0.50162161  1.0
  H  H60  1  0.65722508  0.12417271  0.00032917  1.0
  H  H61  1  0.28203769  0.37626073  0.49873127  1.0
  H  H62  1  0.80014498  0.90335793  0.89448863  1.0
  H  H63  1  0.09773203  0.59719901  0.60631950  1.0
  H  H64  1  0.19995040  0.09674602  0.10530739  1.0
  H  H65  1  0.90261684  0.40255365  0.39381168  1.0
  H  H66  1  0.34907280  0.85625934  0.78540509  1.0
  H  H67  1  0.49116940  0.64374081  0.71567523  1.0
  H  H68  1  0.65098669  0.14373448  0.21454588  1.0
  H  H69  1  0.50884967  0.35605618  0.28453272  1.0
  H  H70  1  0.52154356  0.75876886  0.81564439  1.0
  H  H71  1  0.59633118  0.74118774  0.68564295  1.0
  H  H72  1  0.47857367  0.24116971  0.18426167  1.0
  H  H73  1  0.40344735  0.25885497  0.31488093  1.0
  C  C74  1  0.03467656  0.91273836  0.89097224  1.0
  C  C75  1  0.33844629  0.58729798  0.60977382  1.0
  C  C76  1  0.96540989  0.08719751  0.10903214  1.0
  C  C77  1  0.66193444  0.41267839  0.39008886  1.0
  C  C78  1  0.03490433  0.11874004  0.89072805  1.0
  C  C79  1  0.54420218  0.38120502  0.61025743  1.0
  C  C80  1  0.96513430  0.88115895  0.10926569  1.0
  C  C81  1  0.45604702  0.61886080  0.38969104  1.0
  C  C82  1  0.24711031  0.92107832  0.87588861  1.0
  C  C83  1  0.54414120  0.57899425  0.62515791  1.0
  C  C84  1  0.75301918  0.07882501  0.12408968  1.0
  C  C85  1  0.45605551  0.42114738  0.37493430  1.0
  C  C86  1  0.11875963  0.02018310  0.65431394  1.0
  C  C87  1  0.29323265  0.48008143  0.84637800  1.0
  C  C88  1  0.88127749  0.97950098  0.34571898  1.0
  C  C89  1  0.70633340  0.52021397  0.15343064  1.0
  C  C90  1  0.92202553  0.32640686  0.91949295  1.0
  C  C91  1  0.66799308  0.17365630  0.58082003  1.0
  C  C92  1  0.07773397  0.67352373  0.08043861  1.0
  C  C93  1  0.33193175  0.82638197  0.41921887  1.0
  C  C94  1  0.91943728  0.16948908  0.91324756  1.0
  C  C95  1  0.50198022  0.33048072  0.58759605  1.0
  C  C96  1  0.08059781  0.83029305  0.08676267  1.0
  C  C97  1  0.49814938  0.66969540  0.41235422  1.0
  C  C98  1  0.03727902  0.27657897  0.89850157  1.0
  C  C99  1  0.71236276  0.22343056  0.60205789  1.0
  C  C100  1  0.96248424  0.72346490  0.10142881  1.0
  C  C101  1  0.28769325  0.77649351  0.39796564  1.0
  C  C102  1  0.10288556  0.03989377  0.59190456  1.0
  C  C103  1  0.23449134  0.46021769  0.90857511  1.0
  C  C104  1  0.89703275  0.95980340  0.40815862  1.0
  C  C105  1  0.76493020  0.54007280  0.09119540  1.0
  C  C106  1  0.07915051  0.82649242  0.92321223  1.0
  C  C107  1  0.32926779  0.67319389  0.57721436  1.0
  C  C108  1  0.92078506  0.17347627  0.07684477  1.0
  C  C109  1  0.67101486  0.32675796  0.42260063  1.0
  C  C110  1  0.09275125  0.17371720  0.88465099  1.0
  C  C111  1  0.65098911  0.32620380  0.61625957  1.0
  C  C112  1  0.90715460  0.82630981  0.11531731  1.0
  C  C113  1  0.34922454  0.67373785  0.38372365  1.0
  C  C114  1  0.12606733  0.92090249  0.74307841  1.0
  C  C115  1  0.29021252  0.57939111  0.75765977  1.0
  C  C116  1  0.87416956  0.07880262  0.25695550  1.0
  C  C117  1  0.70977626  0.42087423  0.24214480  1.0
  C  C118  1  0.12698013  0.99425054  0.77489983  1.0
  C  C119  1  0.39622842  0.50606199  0.72599450  1.0
  C  C120  1  0.87317578  0.00553678  0.22510471  1.0
  C  C121  1  0.60379212  0.49413678  0.27389812  1.0
  C  C122  1  0.12859155  0.07865982  0.74392687  1.0
  C  C123  1  0.45122770  0.42175951  0.75706839  1.0
  C  C124  1  0.87147963  0.92113323  0.25605284  1.0
  C  C125  1  0.54859061  0.57842777  0.24287215  1.0
  C  C126  1  0.86315458  0.27228004  0.92749330  1.0
  C  C127  1  0.56284802  0.22777929  0.57302273  1.0
  C  C128  1  0.13673899  0.72751528  0.07248770  1.0
  C  C129  1  0.43711611  0.77238160  0.42697651  1.0
  C  C130  1  0.86183335  0.43614550  0.93390324  1.0
  C  C131  1  0.73200849  0.06398428  0.56604419  1.0
  C  C132  1  0.13782074  0.56379449  0.06599509  1.0
  C  C133  1  0.26772055  0.93604404  0.43404647  1.0
  C  C134  1  0.12587045  0.09134358  0.68397696  1.0
  C  C135  1  0.40117475  0.40904113  0.81693796  1.0
  C  C136  1  0.87413913  0.90839934  0.31601509  1.0
  C  C137  1  0.59841572  0.59120052  0.18296609  1.0
  C  C138  1  0.12119868  0.93365803  0.68345718  1.0
  C  C139  1  0.23842421  0.56660392  0.81719782  1.0
  C  C140  1  0.87896975  0.06599618  0.31658871  1.0
  C  C141  1  0.76132261  0.43370374  0.18256433  1.0
  C  C142  1  0.93333561  0.93948310  0.88095415  1.0
  C  C143  1  0.25353521  0.56090197  0.61991900  1.0
  C  C144  1  0.06680830  0.06050958  0.11896015  1.0
  C  C145  1  0.74688127  0.43899532  0.38005602  1.0
  C  C146  1  0.02445231  0.76937571  0.94502869  1.0
  C  C147  1  0.23946405  0.73022594  0.55519811  1.0
  C  C148  1  0.97539081  0.23065692  0.05497313  1.0
  C  C149  1  0.76071608  0.26964261  0.44468511  1.0
  C  C150  1  0.92366968  0.79735340  0.93510635  1.0
  C  C151  1  0.15641759  0.70261358  0.56525675  1.0
  C  C152  1  0.07624235  0.20272241  0.06479385  1.0
  C  C153  1  0.84378625  0.29718796  0.43474454  1.0
  C  C154  1  0.44108261  0.81071657  0.90944598  1.0
  C  C155  1  0.66136251  0.68938564  0.59177717  1.0
  C  C156  1  0.55907041  0.18915903  0.09046561  1.0
  C  C157  1  0.33857449  0.31097445  0.40867887  1.0
  C  C158  1  0.86792082  0.73288600  0.95772970  1.0
  C  C159  1  0.05903147  0.76704460  0.54238862  1.0
  C  C160  1  0.13195031  0.26721053  0.04207458  1.0
  C  C161  1  0.94103050  0.23270273  0.45773501  1.0
  C  C162  1  0.24667008  0.92701134  0.93617115  1.0
  C  C163  1  0.60980298  0.57307896  0.56492025  1.0
  C  C164  1  0.75349315  0.07284169  0.06380437  1.0
  C  C165  1  0.39042522  0.42729416  0.43521126  1.0
  C  C166  1  0.34254257  0.87222405  0.95299188  1.0
  C  C167  1  0.66772782  0.62784942  0.54820968  1.0
  C  C168  1  0.65764458  0.12760690  0.04695311  1.0
  C  C169  1  0.33238846  0.37262695  0.45210550  1.0
  C  C170  1  0.54121705  0.75024431  0.92898021  1.0
  C  C171  1  0.72043140  0.75000202  0.57217849  1.0
  C  C172  1  0.45894251  0.24962048  0.07090203  1.0
  C  C173  1  0.27939853  0.25045702  0.42840973  1.0
  C  C174  1  0.87770321  0.88307999  0.90299135  1.0
  C  C175  1  0.16369473  0.61724995  0.59770778  1.0
  C  C176  1  0.12234759  0.11698493  0.09687333  1.0
  C  C177  1  0.83663295  0.38255575  0.40233217  1.0
  C  C178  1  0.34704198  0.86066799  0.83250799  1.0
  C  C179  1  0.54050869  0.63934660  0.66858864  1.0
  C  C180  1  0.65305922  0.13927702  0.16743859  1.0
  C  C181  1  0.45953201  0.36066155  0.33164944  1.0
  C  C182  1  0.44367626  0.80595694  0.84895105  1.0
  C  C183  1  0.59888102  0.69406703  0.65225148  1.0
  C  C184  1  0.55644818  0.19396449  0.15096566  1.0
  C  C185  1  0.40102622  0.30606383  0.34816693  1.0
  O  O186  1  0.91347286  0.48623706  0.93225701  1.0
  O  O187  1  0.83230374  0.01398771  0.56731241  1.0
  O  O188  1  0.08616404  0.51381554  0.06743807  1.0
  O  O189  1  0.16746210  0.98592493  0.43276499  1.0
  O  O190  1  0.07011063  0.98567792  0.57472738  1.0
  O  O191  1  0.13050523  0.51474634  0.92574102  1.0
  O  O192  1  0.92982696  0.01399837  0.42534874  1.0
  O  O193  1  0.86886332  0.48523139  0.07382815  1.0
  O  O194  1  0.90010726  0.67028345  0.99737856  1.0
  O  O195  1  0.06851335  0.82945804  0.50266570  1.0
  O  O196  1  0.09962013  0.32978854  0.00244536  1.0
  O  O197  1  0.93132264  0.17029920  0.49740318  1.0
  O  O198  1  0.75689990  0.48063965  0.94744285  1.0
  O  O199  1  0.68499528  0.01939422  0.55265684  1.0
  O  O200  1  0.24274261  0.51922287  0.05264829  1.0
  O  O201  1  0.31464801  0.98070289  0.44748222  1.0
  O  O202  1  0.12269474  0.10859048  0.56409683  1.0
  O  O203  1  0.29496610  0.39100810  0.93626978  1.0
  O  O204  1  0.87708961  0.89119628  0.43599567  1.0
  O  O205  1  0.70445915  0.60957640  0.06363217  1.0
  O  O206  1  0.79151030  0.74678230  0.93596973  1.0
  O  O207  1  0.97468553  0.75333936  0.56398394  1.0
  O  O208  1  0.20847747  0.25331091  0.06373327  1.0
  O  O209  1  0.02538134  0.24642830  0.43628689  1.0
  O  O210  1  0.53529260  0.74783379  0.98520253  1.0
  O  O211  1  0.76780430  0.75237548  0.51585856  1.0
  O  O212  1  0.46489895  0.25207366  0.01467009  1.0
  O  O213  1  0.23171643  0.24838336  0.48470203  1.0
  O  O214  1  0.63468511  0.69933298  0.88973618  1.0
  O  O215  1  0.72418526  0.80097060  0.61123399  1.0
  O  O216  1  0.36544956  0.30047991  0.11013430  1.0
  O  O217  1  0.27592160  0.19916629  0.38939738  1.0
