# generated using pymatgen
data_CuH16C16(N5O2)2
_symmetry_space_group_name_H-M   'P 1'
_cell_length_a   7.99974052
_cell_length_b   13.01440990
_cell_length_c   13.01460680
_cell_angle_alpha   79.90056350
_cell_angle_beta   79.78473099
_cell_angle_gamma   79.78487596
_symmetry_Int_Tables_number   1
_chemical_formula_structural   CuH16C16(N5O2)2
_chemical_formula_sum   'Cu2 H32 C32 N20 O8'
_cell_volume   1297.79303988
_cell_formula_units_Z   2
loop_
 _symmetry_equiv_pos_site_id
 _symmetry_equiv_pos_as_xyz
  1  'x, y, z'
loop_
 _atom_site_type_symbol
 _atom_site_label
 _atom_site_symmetry_multiplicity
 _atom_site_fract_x
 _atom_site_fract_y
 _atom_site_fract_z
 _atom_site_occupancy
  Cu  Cu0  1  0.99999965  0.00000019  0.00000141  1.0
  Cu  Cu1  1  0.49999814  0.00000044  0.99999824  1.0
  H  H2  1  0.07765685  0.27179491  0.99981710  1.0
  H  H3  1  0.42233274  0.00017839  0.72821924  1.0
  H  H4  1  0.92233647  0.72820412  0.00019314  1.0
  H  H5  1  0.57766594  0.99982469  0.27178363  1.0
  H  H6  1  0.05995533  0.25411865  0.13919241  1.0
  H  H7  1  0.44004005  0.86079767  0.74588646  1.0
  H  H8  1  0.94004833  0.74587962  0.86081452  1.0
  H  H9  1  0.55995518  0.13920389  0.25411395  1.0
  H  H10  1  0.23119670  0.39038734  0.20945652  1.0
  H  H11  1  0.26881648  0.79053887  0.60960782  1.0
  H  H12  1  0.76881670  0.60961262  0.79054293  1.0
  H  H13  1  0.73119291  0.20946192  0.39038963  1.0
  H  H14  1  0.38061362  0.58054878  0.18821463  1.0
  H  H15  1  0.11940022  0.81179211  0.41944878  1.0
  H  H16  1  0.61939411  0.41945360  0.81178198  1.0
  H  H17  1  0.88061007  0.18821021  0.58055064  1.0
  H  H18  1  0.44439557  0.63594376  0.05540390  1.0
  H  H19  1  0.05562174  0.94460796  0.36405513  1.0
  H  H20  1  0.55559838  0.36405786  0.94459357  1.0
  H  H21  1  0.94438658  0.05539201  0.63594410  1.0
  H  H22  1  0.03183074  0.64834922  0.26123336  1.0
  H  H23  1  0.46818172  0.73876944  0.35164583  1.0
  H  H24  1  0.96817161  0.35164921  0.73876523  1.0
  H  H25  1  0.53181628  0.26122597  0.64834680  1.0
  H  H26  1  0.85525110  0.85051892  0.21247177  1.0
  H  H27  1  0.64474798  0.78752978  0.14947749  1.0
  H  H28  1  0.14474491  0.14947947  0.78752982  1.0
  H  H29  1  0.35524441  0.21246254  0.85051239  1.0
  H  H30  1  0.30244559  0.80584768  0.98659210  1.0
  H  H31  1  0.19756691  0.01341418  0.19415546  1.0
  H  H32  1  0.69755454  0.19415465  0.01340842  1.0
  H  H33  1  0.80244249  0.98658658  0.80584353  1.0
  C  C34  1  0.31135227  0.19333049  0.06129609  1.0
  C  C35  1  0.18863815  0.93869052  0.80667135  1.0
  C  C36  1  0.68864785  0.80667187  0.93870289  1.0
  C  C37  1  0.81136040  0.06130784  0.19333150  1.0
  C  C38  1  0.14517849  0.27457108  0.06508645  1.0
  C  C39  1  0.35481687  0.93490564  0.72543472  1.0
  C  C40  1  0.85481950  0.72542958  0.93491995  1.0
  C  C41  1  0.64517945  0.06509668  0.27456698  1.0
  C  C42  1  0.22958055  0.42782124  0.12841169  1.0
  C  C43  1  0.27043328  0.87158914  0.57217879  1.0
  C  C44  1  0.77042328  0.57217632  0.87159072  1.0
  C  C45  1  0.72957630  0.12841084  0.42781953  1.0
  C  C46  1  0.27378314  0.52261895  0.07373855  1.0
  C  C47  1  0.22622924  0.92627148  0.47738064  1.0
  C  C48  1  0.72621230  0.47738178  0.92626427  1.0
  C  C49  1  0.77377939  0.07373244  0.52261793  1.0
  C  C50  1  0.33624025  0.60861168  0.11162565  1.0
  C  C51  1  0.16378299  0.88838398  0.39138432  1.0
  C  C52  1  0.66376189  0.39138758  0.88837053  1.0
  C  C53  1  0.83622420  0.11162067  0.60861737  1.0
  C  C54  1  0.06047707  0.71185897  0.19811760  1.0
  C  C55  1  0.43953874  0.80188703  0.28813534  1.0
  C  C56  1  0.93952693  0.28813788  0.80188106  1.0
  C  C57  1  0.56045310  0.19810757  0.71185885  1.0
  C  C58  1  0.97347202  0.81144721  0.17263958  1.0
  C  C59  1  0.52653809  0.82736859  0.18854798  1.0
  C  C60  1  0.02652780  0.18855117  0.82736237  1.0
  C  C61  1  0.47346176  0.17262441  0.81144636  1.0
  C  C62  1  0.20101063  0.79219100  0.05271406  1.0
  C  C63  1  0.29899281  0.94729562  0.20780770  1.0
  C  C64  1  0.79898931  0.20781211  0.94728713  1.0
  C  C65  1  0.70100845  0.05270206  0.79218882  1.0
  N  N66  1  0.06226103  0.86042519  0.08156155  1.0
  N  N67  1  0.43773926  0.91844489  0.13957088  1.0
  N  N68  1  0.93773223  0.13957400  0.91843945  1.0
  N  N69  1  0.56226255  0.08155046  0.86042364  1.0
  N  N70  1  0.20399122  0.70151021  0.12176264  1.0
  N  N71  1  0.29602975  0.87824547  0.29848872  1.0
  N  N72  1  0.79601200  0.29848982  0.87823406  1.0
  N  N73  1  0.70397457  0.12175531  0.70151006  1.0
  N  N74  1  0.18236613  0.38086367  0.05551284  1.0
  N  N75  1  0.31762831  0.94448451  0.61914425  1.0
  N  N76  1  0.81762551  0.61913701  0.94449348  1.0
  N  N77  1  0.68236420  0.05551780  0.38085864  1.0
  N  N78  1  0.19804656  0.44209871  0.95938962  1.0
  N  N79  1  0.30195538  0.04061119  0.55791333  1.0
  N  N80  1  0.80193706  0.55790358  0.04061579  1.0
  N  N81  1  0.69803947  0.95939192  0.44208841  1.0
  N  N82  1  0.25245094  0.52832250  0.97074471  1.0
  N  N83  1  0.24755027  0.02926806  0.47168551  1.0
  N  N84  1  0.74753267  0.47167982  0.02925916  1.0
  N  N85  1  0.75245055  0.97073666  0.52831380  1.0
  O  O86  1  0.44210159  0.21406491  0.08808350  1.0
  O  O87  1  0.05788521  0.91190475  0.78593712  1.0
  O  O88  1  0.55789959  0.78593830  0.91191216  1.0
  O  O89  1  0.94210800  0.08809991  0.21406610  1.0
  O  O90  1  0.29433243  0.10836608  0.02850006  1.0
  O  O91  1  0.20566030  0.97149148  0.89163029  1.0
  O  O92  1  0.70567248  0.89163225  0.97150365  1.0
  O  O93  1  0.79433659  0.02850847  0.10837173  1.0
