# generated using pymatgen
data_FeH14(C11N6)2
_symmetry_space_group_name_H-M   'P 1'
_cell_length_a   8.73083198
_cell_length_b   16.36923599
_cell_length_c   16.36895186
_cell_angle_alpha   116.90917760
_cell_angle_beta   100.25426273
_cell_angle_gamma   100.23875782
_symmetry_Int_Tables_number   1
_chemical_formula_structural   FeH14(C11N6)2
_chemical_formula_sum   'Fe3 H42 C66 N36'
_cell_volume   1961.81855823
_cell_formula_units_Z   3
loop_
 _symmetry_equiv_pos_site_id
 _symmetry_equiv_pos_as_xyz
  1  'x, y, z'
loop_
 _atom_site_type_symbol
 _atom_site_label
 _atom_site_symmetry_multiplicity
 _atom_site_fract_x
 _atom_site_fract_y
 _atom_site_fract_z
 _atom_site_occupancy
  Fe  Fe0  1  0.50000150  0.50000021  0.00000017  1.0
  Fe  Fe1  1  0.49999961  0.00000043  0.50000072  1.0
  Fe  Fe2  1  0.99999807  0.49999920  0.49999934  1.0
  H  H3  1  0.47857623  0.40355640  0.12588932  1.0
  H  H4  1  0.35262463  0.87399672  0.27757506  1.0
  H  H5  1  0.07502260  0.72231230  0.59636346  1.0
  H  H6  1  0.52142381  0.59644335  0.87411029  1.0
  H  H7  1  0.64737424  0.12600303  0.72242689  1.0
  H  H8  1  0.92497511  0.27768746  0.40363593  1.0
  H  H9  1  0.62617618  0.29412055  0.15211832  1.0
  H  H10  1  0.47413003  0.84781501  0.14199200  1.0
  H  H11  1  0.33208869  0.85799268  0.70580385  1.0
  H  H12  1  0.37382431  0.70587777  0.84788069  1.0
  H  H13  1  0.52586813  0.15218331  0.85800862  1.0
  H  H14  1  0.66790901  0.14200708  0.29419615  1.0
  H  H15  1  0.89666958  0.31058892  0.97210218  1.0
  H  H16  1  0.92450661  0.02809162  0.33870476  1.0
  H  H17  1  0.58598781  0.66152349  0.68972830  1.0
  H  H18  1  0.10333394  0.68941084  0.02789899  1.0
  H  H19  1  0.07548940  0.97191172  0.66129609  1.0
  H  H20  1  0.41400802  0.33847483  0.31027149  1.0
  H  H21  1  0.01965838  0.37221311  0.58310696  1.0
  H  H22  1  0.43672033  0.41692368  0.78918942  1.0
  H  H23  1  0.64727144  0.21089260  0.62774464  1.0
  H  H24  1  0.98034130  0.62778592  0.41689168  1.0
  H  H25  1  0.56328392  0.58307751  0.21081124  1.0
  H  H26  1  0.35272851  0.78910931  0.37225655  1.0
  H  H27  1  0.95101552  0.36277003  0.72042756  1.0
  H  H28  1  0.23070564  0.27954991  0.64238861  1.0
  H  H29  1  0.58812990  0.35763230  0.63704797  1.0
  H  H30  1  0.04898569  0.63722972  0.27957155  1.0
  H  H31  1  0.76929708  0.72045056  0.35761220  1.0
  H  H32  1  0.41186934  0.64236817  0.36295067  1.0
  H  H33  1  0.90609382  0.62853733  0.66362914  1.0
  H  H34  1  0.24278890  0.33634748  0.96499124  1.0
  H  H35  1  0.27749496  0.03500356  0.37129732  1.0
  H  H36  1  0.09390398  0.37146028  0.33636990  1.0
  H  H37  1  0.75721382  0.66365299  0.03500957  1.0
  H  H38  1  0.72250624  0.96499620  0.62870240  1.0
  H  H39  1  0.82509848  0.62607630  0.80063000  1.0
  H  H40  1  0.02463544  0.19935003  0.82550291  1.0
  H  H41  1  0.19875355  0.17443943  0.37373553  1.0
  H  H42  1  0.17490120  0.37392274  0.19936926  1.0
  H  H43  1  0.97536532  0.80065116  0.17449742  1.0
  H  H44  1  0.80124613  0.82555961  0.62626311  1.0
  C  C45  1  0.57271970  0.38256989  0.09190612  1.0
  C  C46  1  0.48076803  0.90804060  0.29063256  1.0
  C  C47  1  0.19014377  0.70933370  0.61743338  1.0
  C  C48  1  0.42727998  0.61742915  0.90809375  1.0
  C  C49  1  0.51923353  0.09195987  0.70936874  1.0
  C  C50  1  0.80985394  0.29066605  0.38256662  1.0
  C  C51  1  0.65507551  0.32200266  0.10564669  1.0
  C  C52  1  0.54945340  0.89432497  0.21637036  1.0
  C  C53  1  0.33306718  0.78363526  0.67799013  1.0
  C  C54  1  0.34492497  0.67799566  0.89435232  1.0
  C  C55  1  0.45054395  0.10567407  0.78363051  1.0
  C  C56  1  0.66693250  0.21636378  0.32200913  1.0
  C  C57  1  0.80251745  0.32982709  0.00675590  1.0
  C  C58  1  0.79569285  0.99335478  0.32321208  1.0
  C  C59  1  0.47262388  0.67692864  0.67038430  1.0
  C  C60  1  0.19748492  0.67017266  0.99324394  1.0
  C  C61  1  0.20430396  0.00664785  0.67678913  1.0
  C  C62  1  0.52737311  0.32306968  0.32961559  1.0
  C  C63  1  0.72151283  0.39002443  0.99067259  1.0
  C  C64  1  0.73075223  0.00937341  0.39945164  1.0
  C  C65  1  0.33146120  0.60062651  0.61010749  1.0
  C  C66  1  0.27848990  0.60997604  0.00932761  1.0
  C  C67  1  0.26924808  0.99062921  0.60054990  1.0
  C  C68  1  0.66853615  0.39937252  0.38989154  1.0
  C  C69  1  0.74919571  0.43103512  0.93152704  1.0
  C  C70  1  0.81762228  0.06850449  0.49959092  1.0
  C  C71  1  0.31809856  0.50046479  0.56906106  1.0
  C  C72  1  0.25080665  0.56896464  0.06847341  1.0
  C  C73  1  0.18237884  0.93149742  0.50041038  1.0
  C  C74  1  0.68189915  0.49953496  0.43093833  1.0
  C  C75  1  0.81496028  0.48156053  0.84235497  1.0
  C  C76  1  0.97268285  0.15766403  0.63925736  1.0
  C  C77  1  0.33328540  0.36074735  0.51835288  1.0
  C  C78  1  0.18504173  0.51843850  0.15764511  1.0
  C  C79  1  0.02731826  0.84233788  0.36074394  1.0
  C  C80  1  0.66666667  0.63925168  0.48164515  1.0
  C  C81  1  0.87765195  0.49231051  0.77038873  1.0
  C  C82  1  0.10742921  0.22960584  0.72200400  1.0
  C  C83  1  0.38516411  0.27799258  0.50750375  1.0
  C  C84  1  0.12234890  0.50768853  0.22961003  1.0
  C  C85  1  0.89257271  0.77039535  0.27799645  1.0
  C  C86  1  0.61483593  0.72200717  0.49249465  1.0
  C  C87  1  0.97792471  0.42778127  0.63336089  1.0
  C  C88  1  0.34483145  0.36661860  0.79448663  1.0
  C  C89  1  0.55002180  0.20555326  0.57211782  1.0
  C  C90  1  0.02207613  0.57221777  0.36663725  1.0
  C  C91  1  0.65517244  0.63338187  0.20551367  1.0
  C  C92  1  0.44997779  0.79444793  0.42788239  1.0
  C  C93  1  0.93933393  0.42251299  0.70960611  1.0
  C  C94  1  0.22991662  0.29032771  0.71294578  1.0
  C  C95  1  0.51671813  0.28705460  0.57731062  1.0
  C  C96  1  0.06066808  0.57748605  0.29039398  1.0
  C  C97  1  0.77008646  0.70967348  0.28705538  1.0
  C  C98  1  0.48328227  0.71294587  0.42268875  1.0
  C  C99  1  0.91295544  0.57034845  0.67794315  1.0
  C  C100  1  0.23531357  0.32201680  0.89248809  1.0
  C  C101  1  0.34247696  0.10751497  0.42949841  1.0
  C  C102  1  0.08704577  0.42965130  0.32205535  1.0
  C  C103  1  0.76468799  0.67798367  0.10751260  1.0
  C  C104  1  0.65752460  0.89248550  0.57050167  1.0
  C  C105  1  0.86843039  0.56874795  0.75422657  1.0
  C  C106  1  0.11439605  0.24572877  0.81457706  1.0
  C  C107  1  0.29946521  0.18538661  0.43106365  1.0
  C  C108  1  0.13157010  0.43125037  0.24577305  1.0
  C  C109  1  0.88560622  0.75427313  0.18542374  1.0
  C  C110  1  0.70053599  0.81461315  0.56893547  1.0
  N  N111  1  0.60410542  0.41692079  0.03380680  1.0
  N  N112  1  0.57015850  0.96617859  0.38312373  1.0
  N  N113  1  0.18715043  0.61687552  0.58315480  1.0
  N  N114  1  0.39589811  0.58307896  0.96619376  1.0
  N  N115  1  0.42983688  0.03382116  0.61687605  1.0
  N  N116  1  0.81284576  0.38312352  0.41684413  1.0
  N  N117  1  0.77004317  0.29492487  0.06356354  1.0
  N  N118  1  0.70651044  0.93651785  0.23145995  1.0
  N  N119  1  0.47506497  0.76863776  0.70520789  1.0
  N  N120  1  0.22995651  0.70507417  0.93643693  1.0
  N  N121  1  0.29348835  0.06348406  0.76854112  1.0
  N  N122  1  0.52493238  0.23136128  0.29479236  1.0
  N  N123  1  0.66229315  0.49276060  0.93321729  1.0
  N  N124  1  0.72905975  0.06689618  0.55965657  1.0
  N  N125  1  0.16945558  0.44046278  0.50726599  1.0
  N  N126  1  0.33771038  0.50723915  0.06678388  1.0
  N  N127  1  0.27094020  0.93310572  0.44034523  1.0
  N  N128  1  0.83054293  0.55953625  0.49273316  1.0
  N  N129  1  0.70517813  0.52670263  0.87710353  1.0
  N  N130  1  0.82811219  0.12298281  0.64969121  1.0
  N  N131  1  0.17838159  0.35039698  0.47319734  1.0
  N  N132  1  0.29482388  0.47329640  0.12289595  1.0
  N  N133  1  0.17189008  0.87701909  0.35031142  1.0
  N  N134  1  0.82161657  0.64960134  0.52680084  1.0
  N  N135  1  0.84578503  0.42096183  0.87441201  1.0
  N  N136  1  0.97138902  0.12561933  0.54663284  1.0
  N  N137  1  0.42472608  0.45338000  0.57908973  1.0
  N  N138  1  0.15421617  0.57903792  0.12558772  1.0
  N  N139  1  0.02860976  0.87438258  0.45336702  1.0
  N  N140  1  0.57527280  0.54661976  0.42090977  1.0
  N  N141  1  0.96279500  0.49968030  0.61576457  1.0
  N  N142  1  0.34724984  0.38419496  0.88396962  1.0
  N  N143  1  0.46299284  0.11603837  0.50021830  1.0
  N  N144  1  0.03720315  0.50031802  0.38423421  1.0
  N  N145  1  0.65275324  0.61580623  0.11603154  1.0
  N  N146  1  0.53700791  0.88396282  0.49978264  1.0
