# generated using pymatgen
data_Zn2H17C30N3O10
_symmetry_space_group_name_H-M   'P 1'
_cell_length_a   9.74128354
_cell_length_b   11.04399742
_cell_length_c   16.08627889
_cell_angle_alpha   85.75346335
_cell_angle_beta   89.48209817
_cell_angle_gamma   89.46951844
_symmetry_Int_Tables_number   1
_chemical_formula_structural   Zn2H17C30N3O10
_chemical_formula_sum   'Zn2 H17 C30 N3 O10'
_cell_volume   1725.71986412
_cell_formula_units_Z   1
loop_
 _symmetry_equiv_pos_site_id
 _symmetry_equiv_pos_as_xyz
  1  'x, y, z'
loop_
 _atom_site_type_symbol
 _atom_site_label
 _atom_site_symmetry_multiplicity
 _atom_site_fract_x
 _atom_site_fract_y
 _atom_site_fract_z
 _atom_site_occupancy
  Zn  Zn0  1  0.63822591  0.51101128  0.49755564  1.0
  Zn  Zn1  1  0.35374872  0.51348343  0.50022540  1.0
  H  H2  1  0.37577285  0.28372535  0.97530573  1.0
  H  H3  1  0.25899738  0.48614390  0.04994706  1.0
  H  H4  1  0.38714423  0.64536059  0.92541177  1.0
  H  H5  1  0.62126713  0.65555063  0.02954842  1.0
  H  H6  1  0.73780277  0.45245891  0.95484267  1.0
  H  H7  1  0.27628638  0.12598056  0.51189613  1.0
  H  H8  1  0.27641120  0.90001385  0.51974337  1.0
  H  H9  1  0.82630011  0.89589318  0.52817843  1.0
  H  H10  1  0.80011582  0.89727550  0.41841671  1.0
  H  H11  1  0.82775277  0.12490824  0.51688428  1.0
  H  H12  1  0.79706583  0.12554781  0.40771505  1.0
  H  H13  1  0.12632619  0.62385534  0.38772213  1.0
  H  H14  1  0.86691855  0.62138498  0.38650724  1.0
  H  H15  1  0.86182203  0.41500528  0.68753149  1.0
  H  H16  1  0.86642500  0.28407095  0.62900473  1.0
  H  H17  1  0.12433985  0.41646898  0.68856770  1.0
  H  H18  1  0.12779010  0.28598248  0.62961584  1.0
  C  C19  1  0.49361040  0.27772936  0.49163468  1.0
  C  C20  1  0.49799449  0.47348487  0.66341510  1.0
  C  C21  1  0.49351173  0.74622917  0.50561541  1.0
  C  C22  1  0.49850655  0.53188136  0.33473544  1.0
  C  C23  1  0.55867132  0.37440830  0.04062248  1.0
  C  C24  1  0.42855669  0.36776734  0.98639724  1.0
  C  C25  1  0.49959604  0.45516563  0.75354362  1.0
  C  C26  1  0.49663157  0.51930883  0.24573950  1.0
  C  C27  1  0.63114226  0.46226500  0.97499305  1.0
  C  C28  1  0.50067853  0.45617952  0.91708845  1.0
  C  C29  1  0.56627380  0.57378176  0.01574015  1.0
  C  C30  1  0.49403815  0.48701675  0.08542803  1.0
  C  C31  1  0.43596358  0.56827305  0.96035143  1.0
  C  C32  1  0.36475339  0.47969917  0.02737050  1.0
  C  C33  1  0.50115427  0.44911673  0.82951929  1.0
  C  C34  1  0.49533092  0.50242158  0.17176835  1.0
  C  C35  1  0.61458060  0.07502647  0.48514476  1.0
  C  C36  1  0.49451258  0.14279854  0.49353072  1.0
  C  C37  1  0.37237112  0.07583528  0.50585608  1.0
  C  C38  1  0.37242287  0.94925685  0.51018575  1.0
  C  C39  1  0.49466489  0.88129083  0.50223565  1.0
  C  C40  1  0.61467818  0.94818590  0.48954254  1.0
  C  C41  1  0.76851452  0.93926255  0.47548869  1.0
  C  C42  1  0.76806607  0.08286831  0.46916962  1.0
  C  C43  1  0.06709539  0.45451675  0.55688285  1.0
  C  C44  1  0.06794820  0.57470168  0.43731656  1.0
  C  C45  1  0.92468618  0.57337355  0.43664407  1.0
  C  C46  1  0.92397105  0.45327285  0.55628313  1.0
  C  C47  1  0.91341124  0.37264461  0.63605026  1.0
  C  C48  1  0.07695709  0.37380886  0.63659790  1.0
  N  N49  1  0.14246547  0.51440789  0.49859742  1.0
  N  N50  1  0.84938597  0.51174814  0.49721338  1.0
  N  N51  1  0.62316585  0.27225037  0.08920977  1.0
  O  O52  1  0.61039828  0.32912623  0.49185548  1.0
  O  O53  1  0.37730143  0.33169579  0.49087003  1.0
  O  O54  1  0.61444224  0.48445323  0.62718884  1.0
  O  O55  1  0.38056534  0.47892288  0.62925054  1.0
  O  O56  1  0.61001828  0.69289671  0.50232428  1.0
  O  O57  1  0.37729976  0.69381740  0.51086267  1.0
  O  O58  1  0.61633579  0.53116383  0.36831960  1.0
  O  O59  1  0.38242691  0.54042764  0.37094520  1.0
  O  O60  1  0.74757492  0.28021083  0.10363153  1.0
  O  O61  1  0.54727259  0.18782654  0.11513724  1.0
