# generated using pymatgen
data_AlH9C27(BrO)6
_symmetry_space_group_name_H-M   'P 1'
_cell_length_a   4.04787815
_cell_length_b   16.03885487
_cell_length_c   16.20336623
_cell_angle_alpha   60.33461907
_cell_angle_beta   89.51760004
_cell_angle_gamma   89.04756430
_symmetry_Int_Tables_number   1
_chemical_formula_structural   AlH9C27(BrO)6
_chemical_formula_sum   'Al1 H9 C27 Br6 O6'
_cell_volume   913.96837923
_cell_formula_units_Z   1
loop_
 _symmetry_equiv_pos_site_id
 _symmetry_equiv_pos_as_xyz
  1  'x, y, z'
loop_
 _atom_site_type_symbol
 _atom_site_label
 _atom_site_symmetry_multiplicity
 _atom_site_fract_x
 _atom_site_fract_y
 _atom_site_fract_z
 _atom_site_occupancy
  Al  Al0  1  0.00005828  0.50115539  0.99777880  1.0
  H  H1  1  0.49998566  0.92043224  0.15920311  1.0
  H  H2  1  0.52821939  0.92197878  0.42340068  1.0
  H  H3  1  0.47169263  0.65466644  0.42341393  1.0
  H  H4  1  0.26362190  0.84323740  0.10490993  1.0
  H  H5  1  0.72601185  0.59860816  0.34342421  1.0
  H  H6  1  0.73624661  0.05192475  0.10488752  1.0
  H  H7  1  0.27384927  0.05803136  0.34345352  1.0
  H  H8  1  0.23767709  0.84071746  0.55463296  1.0
  H  H9  1  0.76246583  0.60479525  0.55461788  1.0
  C  C10  1  0.50353317  0.35313998  0.07276243  1.0
  C  C11  1  0.50010598  0.57450458  0.85118837  1.0
  C  C12  1  0.49646834  0.57415926  0.07278624  1.0
  C  C13  1  0.50378789  0.93392092  0.28490967  1.0
  C  C14  1  0.49995517  0.88178659  0.23650711  1.0
  C  C15  1  0.49614206  0.78122881  0.28492743  1.0
  C  C16  1  0.49140615  0.73256893  0.38448482  1.0
  C  C17  1  0.49992601  0.78247951  0.43507781  1.0
  C  C18  1  0.50851306  0.88303046  0.38448132  1.0
  C  C19  1  0.37865798  0.72184996  0.08834738  1.0
  C  C20  1  0.37126499  0.77129959  0.13871318  1.0
  C  C21  1  0.49461247  0.72827592  0.23167924  1.0
  C  C22  1  0.61924405  0.63397874  0.27249055  1.0
  C  C23  1  0.61437662  0.58458029  0.22200955  1.0
  C  C24  1  0.49712949  0.62701160  0.12840781  1.0
  C  C25  1  0.62862694  0.09007823  0.13868475  1.0
  C  C26  1  0.62119976  0.18987747  0.08831565  1.0
  C  C27  1  0.50273504  0.24467229  0.12836854  1.0
  C  C28  1  0.38546083  0.19348392  0.22200203  1.0
  C  C29  1  0.38063971  0.09360847  0.27248181  1.0
  C  C30  1  0.50529267  0.04012381  0.23168851  1.0
  C  C31  1  0.35713351  0.77033752  0.59143353  1.0
  C  C32  1  0.35539596  0.72058474  0.69029523  1.0
  C  C33  1  0.50023376  0.62789317  0.74441530  1.0
  C  C34  1  0.64502136  0.58931739  0.69030007  1.0
  C  C35  1  0.64310937  0.63837108  0.59142913  1.0
  C  C36  1  0.50002056  0.73003616  0.54004685  1.0
  Br  Br37  1  0.77385335  0.45588567  0.28394028  1.0
  Br  Br38  1  0.21881191  0.78616959  0.96181884  1.0
  Br  Br39  1  0.78108200  0.25208978  0.96177133  1.0
  Br  Br40  1  0.22597019  0.26027478  0.28390513  1.0
  Br  Br41  1  0.15283705  0.79057789  0.74415112  1.0
  Br  Br42  1  0.84781507  0.46550450  0.74414197  1.0
  O  O43  1  0.73219141  0.59097697  0.01466939  1.0
  O  O44  1  0.73993643  0.39470856  0.08783628  1.0
  O  O45  1  0.73886928  0.51660052  0.89344179  1.0
  O  O46  1  0.26003874  0.51749665  0.08786380  1.0
  O  O47  1  0.26135859  0.59012244  0.89346280  1.0
  O  O48  1  0.26787974  0.39446403  0.01461587  1.0
