# generated using pymatgen
data_AlH3C24(N2O5)6
_symmetry_space_group_name_H-M   'P 1'
_cell_length_a   4.44014595
_cell_length_b   28.76613849
_cell_length_c   28.76653958
_cell_angle_alpha   60.00046079
_cell_angle_beta   89.99869388
_cell_angle_gamma   89.99936480
_symmetry_Int_Tables_number   1
_chemical_formula_structural   AlH3C24(N2O5)6
_chemical_formula_sum   'Al2 H6 C48 N24 O60'
_cell_volume   3181.99199878
_cell_formula_units_Z   2
loop_
 _symmetry_equiv_pos_site_id
 _symmetry_equiv_pos_as_xyz
  1  'x, y, z'
loop_
 _atom_site_type_symbol
 _atom_site_label
 _atom_site_symmetry_multiplicity
 _atom_site_fract_x
 _atom_site_fract_y
 _atom_site_fract_z
 _atom_site_occupancy
  Al  Al0  1  0.93123838  0.99999699  0.50000438  1.0
  Al  Al1  1  0.93127294  0.66666546  0.16666402  1.0
  H  H2  1  0.47365641  0.33585075  0.27882363  1.0
  H  H3  1  0.47374761  0.33080605  0.38787388  1.0
  H  H4  1  0.47363245  0.77881639  0.38532528  1.0
  H  H5  1  0.47378038  0.88787160  0.28132533  1.0
  H  H6  1  0.47357502  0.88532458  0.83585584  1.0
  H  H7  1  0.47386965  0.78132090  0.83080456  1.0
  C  C8  1  0.43675295  0.94511057  0.57976059  1.0
  C  C9  1  0.43674911  0.07975643  0.47513380  1.0
  C  C10  1  0.43675283  0.97513074  0.44511380  1.0
  C  C11  1  0.43679247  0.58690318  0.19154401  1.0
  C  C12  1  0.43676172  0.69154533  0.22154535  1.0
  C  C13  1  0.43680214  0.72154784  0.08690739  1.0
  C  C14  1  0.46998730  0.52578322  0.22142633  1.0
  C  C15  1  0.52384510  0.49620305  0.27684318  1.0
  C  C16  1  0.55345219  0.44048524  0.30438913  1.0
  C  C17  1  0.49039411  0.40936774  0.28014006  1.0
  C  C18  1  0.44091681  0.43990486  0.22417417  1.0
  C  C19  1  0.45213053  0.49577118  0.19533234  1.0
  C  C20  1  0.48719616  0.35088781  0.30662330  1.0
  C  C21  1  0.48721823  0.31577179  0.36007033  1.0
  C  C22  1  0.44092630  0.22674994  0.44251646  1.0
  C  C23  1  0.49039844  0.25729188  0.38654972  1.0
  C  C24  1  0.55341730  0.22617678  0.36229541  1.0
  C  C25  1  0.52380787  0.17045857  0.38983610  1.0
  C  C26  1  0.46996426  0.14087559  0.44525559  1.0
  C  C27  1  0.45212400  0.17088281  0.47135240  1.0
  C  C28  1  0.46996671  0.72142534  0.25278519  1.0
  C  C29  1  0.52381827  0.77684198  0.22695119  1.0
  C  C30  1  0.55342684  0.80438939  0.25512254  1.0
  C  C31  1  0.49038064  0.78013793  0.31049012  1.0
  C  C32  1  0.44091167  0.72417002  0.33591420  1.0
  C  C33  1  0.45210127  0.69532808  0.30888992  1.0
  C  C34  1  0.48718373  0.80661923  0.34248659  1.0
  C  C35  1  0.48722821  0.86006916  0.32415821  1.0
  C  C36  1  0.44093350  0.94251635  0.33073490  1.0
  C  C37  1  0.49041173  0.88654603  0.35616071  1.0
  C  C38  1  0.55344472  0.86229298  0.41152851  1.0
  C  C39  1  0.52381649  0.88983515  0.43970467  1.0
  C  C40  1  0.46996909  0.94525393  0.41386912  1.0
  C  C41  1  0.45212830  0.97135146  0.35776673  1.0
  C  C42  1  0.47000716  0.75278698  0.02578720  1.0
  C  C43  1  0.52387573  0.72695110  0.99620548  1.0
  C  C44  1  0.55347247  0.75512313  0.94048756  1.0
  C  C45  1  0.49041179  0.81048967  0.90937198  1.0
  C  C46  1  0.44093502  0.83591724  0.93991149  1.0
  C  C47  1  0.45214095  0.80889326  0.99577699  1.0
  C  C48  1  0.48718986  0.84248749  0.85089235  1.0
  C  C49  1  0.48726293  0.82415559  0.81577512  1.0
  C  C50  1  0.44093973  0.83073226  0.72675293  1.0
  C  C51  1  0.49041691  0.85615863  0.75729530  1.0
  C  C52  1  0.55344218  0.91152839  0.72617963  1.0
  C  C53  1  0.52381114  0.93970442  0.67046294  1.0
  C  C54  1  0.46997368  0.91386862  0.64088068  1.0
  C  C55  1  0.45213847  0.85776347  0.67088690  1.0
  N  N56  1  0.46655918  0.52266507  0.13581710  1.0
  N  N57  1  0.38148957  0.41107333  0.19429671  1.0
  N  N58  1  0.56777732  0.52493583  0.30709472  1.0
  N  N59  1  0.66867721  0.41363266  0.36034395  1.0
  N  N60  1  0.66860588  0.25303378  0.30633936  1.0
  N  N61  1  0.56771961  0.14173382  0.35957657  1.0
  N  N62  1  0.38153312  0.25557584  0.47240042  1.0
  N  N63  1  0.46652099  0.14398008  0.53086992  1.0
  N  N64  1  0.46648810  0.63581071  0.34150672  1.0
  N  N65  1  0.38150719  0.69428481  0.39462317  1.0
  N  N66  1  0.56776625  0.80709782  0.16796657  1.0
  N  N67  1  0.66859437  0.86034682  0.22602118  1.0
  N  N68  1  0.66862997  0.80633514  0.44062550  1.0
  N  N69  1  0.56772843  0.85957423  0.49868996  1.0
  N  N70  1  0.38149278  0.97239834  0.27202844  1.0
  N  N71  1  0.46651324  0.03087137  0.32514863  1.0
  N  N72  1  0.46653360  0.84151334  0.02267535  1.0
  N  N73  1  0.38152034  0.89462635  0.91108549  1.0
  N  N74  1  0.56781335  0.66796591  0.02493282  1.0
  N  N75  1  0.66865414  0.72602148  0.91363154  1.0
  N  N76  1  0.66863582  0.94062804  0.75303659  1.0
  N  N77  1  0.56773088  0.99869010  0.64173834  1.0
  N  N78  1  0.38150922  0.77202435  0.75557958  1.0
  N  N79  1  0.46653755  0.82514467  0.64398647  1.0
  O  O80  1  0.66088631  0.00137011  0.44652746  1.0
  O  O81  1  0.66088722  0.94652126  0.55210654  1.0
  O  O82  1  0.66088043  0.05210037  0.50137671  1.0
  O  O83  1  0.18070354  0.97104738  0.46597951  1.0
  O  O84  1  0.18069987  0.06297105  0.47105261  1.0
  O  O85  1  0.18070556  0.96597407  0.56297831  1.0
  O  O86  1  0.66094593  0.72013956  0.11455563  1.0
  O  O87  1  0.66092794  0.61455524  0.16530023  1.0
  O  O88  1  0.66090630  0.66530115  0.22013505  1.0
  O  O89  1  0.18076502  0.70068232  0.10369193  1.0
  O  O90  1  0.18072424  0.69562225  0.20068098  1.0
  O  O91  1  0.18074593  0.60369136  0.19562088  1.0
  O  O92  1  0.70036730  0.54822145  0.11671467  1.0
  O  O93  1  0.25730906  0.51581278  0.11192641  1.0
  O  O94  1  0.14753559  0.38426128  0.20681130  1.0
  O  O95  1  0.57008027  0.41581086  0.16092879  1.0
  O  O96  1  0.37231907  0.55806531  0.30070557  1.0
  O  O97  1  0.79432000  0.51316878  0.33545875  1.0
  O  O98  1  0.92242816  0.39392351  0.36608170  1.0
  O  O99  1  0.50439853  0.41192619  0.39553562  1.0
  O  O100  1  0.92234951  0.27275098  0.30059496  1.0
  O  O101  1  0.50431203  0.25473302  0.27115223  1.0
  O  O102  1  0.37222900  0.10861356  0.36595971  1.0
  O  O103  1  0.79429942  0.15349928  0.33121393  1.0
  O  O104  1  0.14760834  0.28239992  0.45988307  1.0
  O  O105  1  0.57011246  0.25082226  0.50577397  1.0
  O  O106  1  0.70033713  0.11843055  0.54996568  1.0
  O  O107  1  0.25722855  0.15082956  0.55476066  1.0
  O  O108  1  0.70030139  0.61670838  0.33505750  1.0
  O  O109  1  0.25720527  0.61192551  0.37224114  1.0
  O  O110  1  0.14756743  0.70679608  0.40893151  1.0
  O  O111  1  0.57008340  0.66091309  0.42324699  1.0
  O  O112  1  0.37231993  0.80070753  0.14123036  1.0
  O  O113  1  0.79431757  0.83546369  0.15136952  1.0
  O  O114  1  0.92233704  0.86609475  0.23998929  1.0
  O  O115  1  0.50430144  0.89553288  0.19253452  1.0
  O  O116  1  0.92236837  0.80059245  0.42665005  1.0
  O  O117  1  0.50433460  0.77114989  0.47411407  1.0
  O  O118  1  0.37223941  0.86595890  0.52542619  1.0
  O  O119  1  0.79429735  0.83121400  0.51528166  1.0
  O  O120  1  0.14754477  0.95987944  0.25773447  1.0
  O  O121  1  0.57006859  0.00577168  0.24340176  1.0
  O  O122  1  0.70031746  0.04997373  0.33159910  1.0
  O  O123  1  0.25721749  0.05475656  0.29441112  1.0
  O  O124  1  0.70032381  0.83505931  0.04822854  1.0
  O  O125  1  0.25725610  0.87225322  0.01582144  1.0
  O  O126  1  0.14757455  0.90892631  0.88427255  1.0
  O  O127  1  0.57011186  0.92325252  0.91582740  1.0
  O  O128  1  0.37237009  0.64122630  0.05806463  1.0
  O  O129  1  0.79437269  0.65137233  0.01316307  1.0
  O  O130  1  0.92240352  0.73999076  0.89391753  1.0
  O  O131  1  0.50435231  0.69253547  0.91193234  1.0
  O  O132  1  0.92237652  0.92665515  0.77274978  1.0
  O  O133  1  0.50434259  0.97411444  0.75473930  1.0
  O  O134  1  0.37224780  0.02542567  0.60861723  1.0
  O  O135  1  0.79428953  0.01528208  0.65350704  1.0
  O  O136  1  0.14755823  0.75773000  0.78239193  1.0
  O  O137  1  0.57009674  0.74339739  0.75083323  1.0
  O  O138  1  0.70034009  0.83160071  0.61843180  1.0
  O  O139  1  0.25726350  0.79440478  0.65084182  1.0
