# generated using pymatgen
data_Zr6H13C52S10O32F7
_symmetry_space_group_name_H-M   'P 1'
_cell_length_a   16.45045159
_cell_length_b   16.44807560
_cell_length_c   16.45374461
_cell_angle_alpha   119.75076487
_cell_angle_beta   119.75199721
_cell_angle_gamma   88.69445205
_symmetry_Int_Tables_number   1
_chemical_formula_structural   Zr6H13C52S10O32F7
_chemical_formula_sum   'Zr6 H13 C52 S10 O32 F7'
_cell_volume   3204.83697335
_cell_formula_units_Z   1
loop_
 _symmetry_equiv_pos_site_id
 _symmetry_equiv_pos_as_xyz
  1  'x, y, z'
loop_
 _atom_site_type_symbol
 _atom_site_label
 _atom_site_symmetry_multiplicity
 _atom_site_fract_x
 _atom_site_fract_y
 _atom_site_fract_z
 _atom_site_occupancy
  Zr  Zr0  1  0.90250698  0.40240444  0.51452928  1.0
  Zr  Zr1  1  0.10176468  0.60157329  0.48998797  1.0
  Zr  Zr2  1  0.89320425  0.39280092  0.29046986  1.0
  Zr  Zr3  1  0.11099895  0.61048668  0.71329640  1.0
  Zr  Zr4  1  0.89268472  0.61089447  0.50190752  1.0
  Zr  Zr5  1  0.11106523  0.39227116  0.50187374  1.0
  H  H6  1  0.75235515  0.42324929  0.34535109  1.0
  H  H7  1  0.08066249  0.75154645  0.65895963  1.0
  H  H8  1  0.08135278  0.40982003  0.32684188  1.0
  H  H9  1  0.09396659  0.42237060  0.67758087  1.0
  H  H10  1  0.61096889  0.63795313  0.51229268  1.0
  H  H11  1  0.12700340  0.10050496  0.49052592  1.0
  H  H12  1  0.12557010  0.88274097  0.01424782  1.0
  H  H13  1  0.39447055  0.63586759  0.01320343  1.0
  H  H14  1  0.63561128  0.12865415  0.02640340  1.0
  H  H15  1  0.65454372  0.14813017  0.30691028  1.0
  H  H16  1  0.37546882  0.86866423  0.97842996  1.0
  H  H17  1  0.35595840  0.84931527  0.69781381  1.0
  H  H18  1  0.87611472  0.38911781  0.76781670  1.0
  C  C19  1  0.73859523  0.51532571  0.52104621  1.0
  C  C20  1  0.98775208  0.76484230  0.48310746  1.0
  C  C21  1  0.27205920  0.49478695  0.49744753  1.0
  C  C22  1  0.00826618  0.23156749  0.50708172  1.0
  C  C23  1  0.74053280  0.23445922  0.25337388  1.0
  C  C24  1  0.00630836  0.51366286  0.78254398  1.0
  C  C25  1  0.26966211  0.76350963  0.75159082  1.0
  C  C26  1  0.99094318  0.49848683  0.22286211  1.0
  C  C27  1  0.73016618  0.50394681  0.23129337  1.0
  C  C28  1  0.99714770  0.22242904  0.23204159  1.0
  C  C29  1  0.28109754  0.50607603  0.77212728  1.0
  C  C30  1  0.99952844  0.77346033  0.77296942  1.0
  C  C31  1  0.42255194  0.43720660  0.51017489  1.0
  C  C32  1  0.59220602  0.57639978  0.51447148  1.0
  C  C33  1  0.36380990  0.49862697  0.50364366  1.0
  C  C34  1  0.64891032  0.51357772  0.52002020  1.0
  C  C35  1  0.50973936  0.54832138  0.51137825  1.0
  C  C36  1  0.50601269  0.46441292  0.51462100  1.0
  C  C37  1  0.92673822  0.91225296  0.48910288  1.0
  C  C38  1  0.06527846  0.08147754  0.49227884  1.0
  C  C39  1  0.98823967  0.85359292  0.48284407  1.0
  C  C40  1  0.00342937  0.13904664  0.49988699  1.0
  C  C41  1  0.03669022  0.99838618  0.48795289  1.0
  C  C42  1  0.95328448  0.99508048  0.49217121  1.0
  C  C43  1  0.93019678  0.08324070  0.02644921  1.0
  C  C44  1  0.06333157  0.90725488  0.97778686  1.0
  C  C45  1  0.99586071  0.13290729  0.14270470  1.0
  C  C46  1  0.99716637  0.85999646  0.86236935  1.0
  C  C47  1  0.03834418  0.98864482  0.03739012  1.0
  C  C48  1  0.95326125  0.00108649  0.96525349  1.0
  C  C49  1  0.59457692  0.44019389  0.02545269  1.0
  C  C50  1  0.41915212  0.57381804  0.97667692  1.0
  C  C51  1  0.64405349  0.50576382  0.14171033  1.0
  C  C52  1  0.37096053  0.50681732  0.86127627  1.0
  C  C53  1  0.50100553  0.54930181  0.03631195  1.0
  C  C54  1  0.51301902  0.46379311  0.96418983  1.0
  C  C55  1  0.60725970  0.10032134  0.05761892  1.0
  C  C56  1  0.61784360  0.11118673  0.21618832  1.0
  C  C57  1  0.53709049  0.03079865  0.14192468  1.0
  C  C58  1  0.48668252  0.98004453  0.02304158  1.0
  C  C59  1  0.40381210  0.89691362  0.94716122  1.0
  C  C60  1  0.39293037  0.88607436  0.78855394  1.0
  C  C61  1  0.47335660  0.96686911  0.86278662  1.0
  C  C62  1  0.52412231  0.01741109  0.98172165  1.0
  C  C63  1  0.65319239  0.14611732  0.17274661  1.0
  C  C64  1  0.35797083  0.85082038  0.83201960  1.0
  C  C65  1  0.05665432  0.56915772  0.15176530  1.0
  C  C66  1  0.93509057  0.44836261  0.85214231  1.0
  C  C67  1  0.99065220  0.50273235  0.13600202  1.0
  C  C68  1  0.00281171  0.51465598  0.87049653  1.0
  C  C69  1  0.95475182  0.46878318  0.95524337  1.0
  C  C70  1  0.03736077  0.55082034  0.04975263  1.0
  S  S71  1  0.41139216  0.59184067  0.50315039  1.0
  S  S72  1  0.60343566  0.42024407  0.52175729  1.0
  S  S73  1  0.08033239  0.90011322  0.48006985  1.0
  S  S74  1  0.91000578  0.09332389  0.50129170  1.0
  S  S75  1  0.08791916  0.07773885  0.17806295  1.0
  S  S76  1  0.90397202  0.91323843  0.82489667  1.0
  S  S77  1  0.58991508  0.59879509  0.17702415  1.0
  S  S78  1  0.42440850  0.41378467  0.82383929  1.0
  S  S79  1  0.90267189  0.41630665  0.99347218  1.0
  S  S80  1  0.09057448  0.60263593  0.01232911  1.0
  O  O81  1  0.77671949  0.44749415  0.52470842  1.0
  O  O82  1  0.05633122  0.72766279  0.48040683  1.0
  O  O83  1  0.23317233  0.56157438  0.49123966  1.0
  O  O84  1  0.94224913  0.27134658  0.51422693  1.0
  O  O85  1  0.77069730  0.26542435  0.21287920  1.0
  O  O86  1  0.07455621  0.57950900  0.81341298  1.0
  O  O87  1  0.23876869  0.73335774  0.79226089  1.0
  O  O88  1  0.92477331  0.43003445  0.19119982  1.0
  O  O89  1  0.76242106  0.57310930  0.33333083  1.0
  O  O90  1  0.06798598  0.25656069  0.33399456  1.0
  O  O91  1  0.24623951  0.43531552  0.67013180  1.0
  O  O92  1  0.93044214  0.74041440  0.67083619  1.0
  O  O93  1  0.92817951  0.25986492  0.20050048  1.0
  O  O94  1  0.24454323  0.57566768  0.80474900  1.0
  O  O95  1  0.07147760  0.73941974  0.80539137  1.0
  O  O96  1  0.76520885  0.43264746  0.20004488  1.0
  O  O97  1  0.77766817  0.27346670  0.35830251  1.0
  O  O98  1  0.05992901  0.56430489  0.32475068  1.0
  O  O99  1  0.23058793  0.72633932  0.64674495  1.0
  O  O100  1  0.94002507  0.44439890  0.68109262  1.0
  O  O101  1  0.07744907  0.26486737  0.50673293  1.0
  O  O102  1  0.76966075  0.58202406  0.51586948  1.0
  O  O103  1  0.92142631  0.73308163  0.48837474  1.0
  O  O104  1  0.23798775  0.42587179  0.49769098  1.0
  O  O105  1  0.06873780  0.44544129  0.62822418  1.0
  O  O106  1  0.05836461  0.43505503  0.37628303  1.0
  O  O107  1  0.05788480  0.68052944  0.61423871  1.0
  O  O108  1  0.82337541  0.44611645  0.39054057  1.0
  O  O109  1  0.95286521  0.54321565  0.40962877  1.0
  O  O110  1  0.96064971  0.55129409  0.59531354  1.0
  O  O111  1  0.13392414  0.54269036  0.58481819  1.0
  O  O112  1  0.96099458  0.36992524  0.41966823  1.0
  F  F113  1  0.40334514  0.35916804  0.51173579  1.0
  F  F114  1  0.84990772  0.89414923  0.49303485  1.0
  F  F115  1  0.85234148  0.10949883  0.97494978  1.0
  F  F116  1  0.61982654  0.36132751  0.97403493  1.0
  F  F117  1  0.13242857  0.64358279  0.25260455  1.0
  F  F118  1  0.50731923  0.00152151  0.82199539  1.0
  F  F119  1  0.50227132  0.99670235  0.18262297  1.0
