# generated using pymatgen
data_Zn2H8C29I4(ClO2)4
_symmetry_space_group_name_H-M   'P 1'
_cell_length_a   12.30033574
_cell_length_b   12.39582487
_cell_length_c   23.20417793
_cell_angle_alpha   89.26964457
_cell_angle_beta   89.64130793
_cell_angle_gamma   88.96396222
_symmetry_Int_Tables_number   1
_chemical_formula_structural   Zn2H8C29I4(ClO2)4
_chemical_formula_sum   'Zn4 H16 C58 I8 Cl8 O16'
_cell_volume   3537.07603863
_cell_formula_units_Z   2
loop_
 _symmetry_equiv_pos_site_id
 _symmetry_equiv_pos_as_xyz
  1  'x, y, z'
loop_
 _atom_site_type_symbol
 _atom_site_label
 _atom_site_symmetry_multiplicity
 _atom_site_fract_x
 _atom_site_fract_y
 _atom_site_fract_z
 _atom_site_occupancy
  Zn  Zn0  1  0.49946803  0.10433309  0.49894245  1.0
  Zn  Zn1  1  0.50055044  0.89565048  0.50105108  1.0
  Zn  Zn2  1  0.89452360  0.50071713  0.99929972  1.0
  Zn  Zn3  1  0.10546659  0.49929469  0.00071392  1.0
  H  H4  1  0.80457868  0.14611886  0.58841224  1.0
  H  H5  1  0.17701419  0.12248264  0.25380895  1.0
  H  H6  1  0.18117963  0.13238975  0.74722331  1.0
  H  H7  1  0.81874079  0.86771725  0.25274023  1.0
  H  H8  1  0.19945353  0.85839313  0.59524758  1.0
  H  H9  1  0.80062987  0.14163325  0.40476925  1.0
  H  H10  1  0.85507600  0.80573708  0.91086089  1.0
  H  H11  1  0.14501361  0.19422071  0.08914476  1.0
  H  H12  1  0.19536737  0.85382193  0.41158775  1.0
  H  H13  1  0.88055965  0.20573897  0.74952750  1.0
  H  H14  1  0.11933797  0.79422361  0.25048406  1.0
  H  H15  1  0.14174060  0.84299764  0.76360867  1.0
  H  H16  1  0.85838087  0.15711994  0.23642296  1.0
  H  H17  1  0.12891087  0.03087208  0.84429669  1.0
  H  H18  1  0.87113827  0.96921720  0.15567709  1.0
  H  H19  1  0.82305661  0.87743882  0.74619052  1.0
  C  C20  1  0.35372298  0.99113661  0.42027809  1.0
  C  C21  1  0.92302205  0.89826256  0.16266419  1.0
  C  C22  1  0.07921702  0.18401030  0.87757219  1.0
  C  C23  1  0.92073119  0.81603459  0.12242535  1.0
  C  C24  1  0.81846440  0.93887570  0.71244830  1.0
  C  C25  1  0.18156731  0.06104979  0.28755122  1.0
  C  C26  1  0.73377477  0.93400401  0.67300423  1.0
  C  C27  1  0.26626493  0.06588516  0.32699422  1.0
  C  C28  1  0.18386487  0.07079701  0.71427654  1.0
  C  C29  1  0.81608971  0.92930597  0.28569861  1.0
  C  C30  1  0.26963692  0.07291034  0.67467110  1.0
  C  C31  1  0.64630265  0.00867913  0.57971487  1.0
  C  C32  1  0.73030989  0.92721845  0.32529957  1.0
  C  C33  1  0.99791829  0.00810785  0.75119389  1.0
  C  C34  1  0.00208331  0.99190720  0.24880549  1.0
  C  C35  1  0.35642846  0.99766207  0.58197635  1.0
  C  C36  1  0.64355820  0.00246270  0.41800376  1.0
  C  C37  1  0.90055583  0.01575708  0.70917032  1.0
  C  C38  1  0.09943351  0.98421681  0.29083109  1.0
  C  C39  1  0.72851038  0.00843678  0.62695992  1.0
  C  C40  1  0.27150671  0.99144513  0.37303260  1.0
  C  C41  1  0.09964977  0.99667143  0.71145229  1.0
  C  C42  1  0.08504112  0.75102885  0.83549489  1.0
  C  C43  1  0.90034890  0.00337186  0.28854086  1.0
  C  C44  1  0.27421471  0.99822991  0.62972400  1.0
  C  C45  1  0.72578049  0.00187228  0.37025798  1.0
  C  C46  1  0.00553580  0.10774834  0.79057681  1.0
  C  C47  1  0.99442837  0.89226831  0.20942133  1.0
  C  C48  1  0.01228237  0.27706717  0.87203961  1.0
  C  C49  1  0.98759438  0.72292525  0.12797135  1.0
  C  C50  1  0.99128229  0.91157336  0.79456731  1.0
  C  C51  1  0.00877450  0.08844332  0.20544101  1.0
  C  C52  1  0.00394876  0.73943771  0.87777456  1.0
  C  C53  1  0.91507492  0.24903627  0.16451729  1.0
  C  C54  1  0.99618510  0.26058545  0.12224349  1.0
  C  C55  1  0.00407506  0.65422369  0.92393697  1.0
  C  C56  1  0.99609304  0.34579545  0.07607846  1.0
  C  C57  1  0.01094972  0.36154674  0.91770579  1.0
  C  C58  1  0.98887669  0.63843921  0.08231349  1.0
  C  C59  1  0.89334848  0.09075008  0.66287194  1.0
  C  C60  1  0.10660254  0.90922784  0.33713511  1.0
  C  C61  1  0.80841828  0.08704275  0.62349565  1.0
  C  C62  1  0.19154996  0.91288514  0.37650525  1.0
  C  C63  1  0.10887286  0.91794867  0.66796074  1.0
  C  C64  1  0.91111846  0.90025922  0.83826040  1.0
  C  C65  1  0.89117750  0.08206317  0.33205150  1.0
  C  C66  1  0.19438762  0.91952538  0.62845343  1.0
  C  C67  1  0.80566139  0.08051712  0.37155386  1.0
  C  C68  1  0.93923796  0.19960304  0.78421110  1.0
  C  C69  1  0.06066758  0.80037002  0.21580339  1.0
  C  C70  1  0.94410985  0.28340000  0.82365705  1.0
  C  C71  1  0.05576575  0.71656500  0.17636014  1.0
  C  C72  1  0.07692568  0.83545061  0.79534846  1.0
  C  C73  1  0.92317147  0.16462257  0.20467060  1.0
  C  C74  1  0.08893987  0.09971953  0.16174473  1.0
  C  C75  1  0.91760418  0.81476507  0.87781080  1.0
  C  C76  1  0.08249703  0.18522258  0.12220282  1.0
  C  C77  1  0.07696834  0.10179040  0.83732503  1.0
  I  I78  1  0.77721223  0.00629669  0.85273606  1.0
  I  I79  1  0.22274603  0.99356179  0.14724250  1.0
  I  I80  1  0.84666084  0.42108984  0.80480482  1.0
  I  I81  1  0.15318110  0.57885012  0.19520786  1.0
  I  I82  1  0.21829292  0.64415764  0.82423056  1.0
  I  I83  1  0.78179436  0.35588970  0.17575034  1.0
  I  I84  1  0.61592509  0.81626792  0.68947579  1.0
  I  I85  1  0.38413778  0.18359706  0.31052840  1.0
  Cl  Cl86  1  0.01901523  0.81292179  0.66076909  1.0
  Cl  Cl87  1  0.98109444  0.18704328  0.33926061  1.0
  Cl  Cl88  1  0.16272921  0.16334170  0.93667262  1.0
  Cl  Cl89  1  0.83725837  0.83673224  0.06331259  1.0
  Cl  Cl90  1  0.36831597  0.16825535  0.68397730  1.0
  Cl  Cl91  1  0.63157193  0.83194201  0.31597835  1.0
  Cl  Cl92  1  0.98745854  0.19082706  0.64942162  1.0
  Cl  Cl93  1  0.01243354  0.80921298  0.35059760  1.0
  O  O94  1  0.38422941  0.08241674  0.43833165  1.0
  O  O95  1  0.08914420  0.37842432  0.05885448  1.0
  O  O96  1  0.10216635  0.39743878  0.93357516  1.0
  O  O97  1  0.89764081  0.60257622  0.06644741  1.0
  O  O98  1  0.91762975  0.38917066  0.93726927  1.0
  O  O99  1  0.08217751  0.61079754  0.06274413  1.0
  O  O100  1  0.09610404  0.62242619  0.94296907  1.0
  O  O101  1  0.90408585  0.37760263  0.05704152  1.0
  O  O102  1  0.61584712  0.91741838  0.56165505  1.0
  O  O103  1  0.38670381  0.90491278  0.56378697  1.0
  O  O104  1  0.61332779  0.09524106  0.43620277  1.0
  O  O105  1  0.38667385  0.08867074  0.56207040  1.0
  O  O106  1  0.61326842  0.91148307  0.43790140  1.0
  O  O107  1  0.38442138  0.89875795  0.43982272  1.0
  O  O108  1  0.61555578  0.10108279  0.56017877  1.0
  O  O109  1  0.91104540  0.62157223  0.94116969  1.0
