# generated using pymatgen
data_Al6H26C73O35
_symmetry_space_group_name_H-M   'P 1'
_cell_length_a   12.02728301
_cell_length_b   12.52093862
_cell_length_c   26.91196417
_cell_angle_alpha   82.61804623
_cell_angle_beta   81.96421616
_cell_angle_gamma   68.27582156
_symmetry_Int_Tables_number   1
_chemical_formula_structural   Al6H26C73O35
_chemical_formula_sum   'Al6 H26 C73 O35'
_cell_volume   3714.94542195
_cell_formula_units_Z   1
loop_
 _symmetry_equiv_pos_site_id
 _symmetry_equiv_pos_as_xyz
  1  'x, y, z'
loop_
 _atom_site_type_symbol
 _atom_site_label
 _atom_site_symmetry_multiplicity
 _atom_site_fract_x
 _atom_site_fract_y
 _atom_site_fract_z
 _atom_site_occupancy
  Al  Al0  1  0.59640590  0.61133926  0.48669257  1.0
  Al  Al1  1  0.56557125  0.36503018  0.50378467  1.0
  Al  Al2  1  0.34161996  0.57785137  0.50197786  1.0
  Al  Al3  1  0.06055595  0.07297224  0.02066931  1.0
  Al  Al4  1  0.31824044  0.10132261  0.00401025  1.0
  Al  Al5  1  0.09684780  0.31691167  0.00518880  1.0
  H  H6  1  0.91844962  0.15754492  0.71377534  1.0
  H  H7  1  0.75133262  0.52109321  0.79340570  1.0
  H  H8  1  0.92200195  0.47602798  0.70724912  1.0
  H  H9  1  0.01250532  0.83032910  0.75657997  1.0
  H  H10  1  0.00294657  0.96786782  0.72545134  1.0
  H  H11  1  0.91033228  0.95995210  0.78344849  1.0
  H  H12  1  0.71796406  0.10512447  0.75014924  1.0
  H  H13  1  0.58751993  0.22274653  0.77146976  1.0
  H  H14  1  0.63699013  0.09111087  0.81060864  1.0
  H  H15  1  0.13321349  0.24968144  0.71392852  1.0
  H  H16  1  0.17503168  0.57144693  0.78625818  1.0
  H  H17  1  0.17117541  0.50200659  0.22518989  1.0
  H  H18  1  0.14304514  0.70341388  0.81481769  1.0
  H  H19  1  0.28862538  0.59248001  0.81630443  1.0
  H  H20  1  0.56851870  0.64062493  0.78095476  1.0
  H  H21  1  0.34892662  0.13588823  0.72053815  1.0
  H  H22  1  0.52873665  0.43833012  0.78933368  1.0
  H  H23  1  0.14125828  0.33697460  0.30338573  1.0
  H  H24  1  0.37229451  0.50317992  0.26862571  1.0
  H  H25  1  0.52554803  0.32330022  0.20917879  1.0
  H  H26  1  0.49566947  0.15828591  0.28731627  1.0
  H  H27  1  0.29462684  0.15702223  0.24394745  1.0
  H  H28  1  0.18378305  0.03049529  0.69648769  1.0
  H  H29  1  0.52250473  0.82293506  0.70927368  1.0
  H  H30  1  0.70527246  0.72000829  0.44189450  1.0
  H  H31  1  0.95789548  0.95878397  0.06570492  1.0
  C  C32  1  0.70893629  0.41416581  0.56233140  1.0
  C  C33  1  0.30606685  0.89484071  0.79650413  1.0
  C  C34  1  0.43009557  0.84184094  0.72651123  1.0
  C  C35  1  0.37377444  0.40050296  0.58289565  1.0
  C  C36  1  0.32448423  0.83878677  0.69882252  1.0
  C  C37  1  0.39317813  0.77692233  0.77502629  1.0
  C  C38  1  0.28190838  0.77316676  0.74767444  1.0
  C  C39  1  0.29681851  0.91917292  0.84704087  1.0
  C  C40  1  0.33591331  0.80769375  0.64911789  1.0
  C  C41  1  0.88256954  0.41544344  0.72798346  1.0
  C  C42  1  0.78860801  0.44040283  0.77518235  1.0
  C  C43  1  0.33322691  0.35342538  0.73216204  1.0
  C  C44  1  0.90618519  0.29612599  0.89777413  1.0
  C  C45  1  0.75912228  0.38789062  0.60975501  1.0
  C  C46  1  0.95533558  0.29596558  0.75541176  1.0
  C  C47  1  0.38326805  0.72341594  0.56004039  1.0
  C  C48  1  0.86013489  0.32138677  0.80346522  1.0
  C  C49  1  0.87966182  0.23866507  0.73166795  1.0
  C  C50  1  0.80802542  0.35811797  0.70400783  1.0
  C  C51  1  0.78608840  0.26361643  0.77984219  1.0
  C  C52  1  0.71136172  0.38553158  0.75140581  1.0
  C  C53  1  0.88591336  0.30594186  0.85405570  1.0
  C  C54  1  0.33867264  0.36553219  0.68185851  1.0
  C  C55  1  0.78102102  0.37496784  0.65341695  1.0
  C  C56  1  0.22635619  0.33402472  0.28191362  1.0
  C  C57  1  0.24311372  0.42577903  0.23938439  1.0
  C  C58  1  0.31277138  0.30830721  0.11092705  1.0
  C  C59  1  0.71204632  0.40929022  0.42114877  1.0
  C  C60  1  0.35036648  0.35701252  0.40143718  1.0
  C  C61  1  0.31187345  0.23392895  0.25004966  1.0
  C  C62  1  0.32818552  0.32612115  0.20585305  1.0
  C  C63  1  0.42365872  0.23451049  0.27316790  1.0
  C  C64  1  0.33852950  0.33417226  0.30672177  1.0
  C  C65  1  0.34596485  0.37583570  0.63568804  1.0
  C  C66  1  0.44039605  0.32627140  0.23061830  1.0
  C  C67  1  0.35494323  0.42634621  0.26248227  1.0
  C  C68  1  0.32186053  0.31775743  0.15460412  1.0
  C  C69  1  0.34371134  0.34418432  0.35787119  1.0
  C  C70  1  0.30120360  0.90541143  0.13447070  1.0
  C  C71  1  0.37588622  0.38720211  0.44673231  1.0
  C  C72  1  0.31564266  0.87447286  0.17902757  1.0
  C  C73  1  0.33027358  0.84301849  0.22797500  1.0
  C  C74  1  0.34204233  0.81668776  0.27328397  1.0
  C  C75  1  0.35543367  0.78693144  0.32241560  1.0
  C  C76  1  0.24142666  0.95843064  0.71963300  1.0
  C  C77  1  0.36788508  0.75870190  0.36728887  1.0
  C  C78  1  0.89823117  0.30218060  0.13787628  1.0
  C  C79  1  0.87010533  0.31891093  0.18258829  1.0
  C  C80  1  0.84232353  0.33581575  0.23163429  1.0
  C  C81  1  0.81941968  0.34968316  0.27701431  1.0
  C  C82  1  0.79174448  0.36570892  0.32613022  1.0
  C  C83  1  0.39287837  0.71180911  0.41798752  1.0
  C  C84  1  0.76439411  0.38102773  0.37099743  1.0
  C  C85  1  0.26220919  0.97367767  0.94131118  1.0
  C  C86  1  0.29155651  0.28578815  0.92737370  1.0
  C  C87  1  0.19970624  0.89386250  0.76861090  1.0
  C  C88  1  0.95173956  0.27345191  0.94608390  1.0
  C  C89  1  0.27243863  0.95846204  0.08483533  1.0
  C  C90  1  0.28563503  0.28377283  0.06467464  1.0
  C  C91  1  0.95064195  0.27171761  0.08787731  1.0
  C  C92  1  0.31927808  0.31393595  0.87484542  1.0
  C  C93  1  0.32643629  0.32645137  0.82869558  1.0
  C  C94  1  0.33143658  0.34029004  0.77842897  1.0
  C  C95  1  0.99824180  0.91995923  0.76258419  1.0
  C  C96  1  0.66688886  0.15000662  0.78341580  1.0
  C  C97  1  0.08737880  0.24210146  0.75285131  1.0
  C  C98  1  0.28568299  0.93720300  0.89118960  1.0
  C  C99  1  0.21195199  0.63471611  0.79393820  1.0
  C  C100  1  0.47944734  0.68045130  0.80326083  1.0
  C  C101  1  0.38998632  0.05796590  0.74645292  1.0
  C  C102  1  0.57959563  0.43667229  0.75113158  1.0
  C  C103  1  0.35104583  0.77693435  0.60676173  1.0
  C  C104  1  0.34674404  0.96145975  0.74659019  1.0
  O  O105  1  0.48899785  0.70415175  0.53948950  1.0
  O  O106  1  0.19487571  0.35497903  0.94872021  1.0
  O  O107  1  0.98469421  0.35222338  0.95925269  1.0
  O  O108  1  0.69030920  0.51373792  0.54055418  1.0
  O  O109  1  0.97148276  0.16982774  0.07817368  1.0
  O  O110  1  0.16866010  0.97563488  0.07345411  1.0
  O  O111  1  0.35489539  0.98772964  0.05725500  1.0
  O  O112  1  0.35668667  0.19129682  0.04530449  1.0
  O  O113  1  0.18814295  0.35319434  0.04719117  1.0
  O  O114  1  0.97579638  0.35101991  0.05832469  1.0
  O  O115  1  0.15963797  0.16471779  0.01015263  1.0
  O  O116  1  0.47333657  0.32105476  0.46525352  1.0
  O  O117  1  0.68279189  0.33333333  0.54697307  1.0
  O  O118  1  0.47155403  0.33069101  0.56250176  1.0
  O  O119  1  0.30237585  0.49263516  0.56171581  1.0
  O  O120  1  0.30198246  0.69588068  0.54376413  1.0
  O  O121  1  0.49415855  0.69970744  0.43077757  1.0
  O  O122  1  0.69555358  0.50886733  0.43278034  1.0
  O  O123  1  0.68213249  0.33047754  0.44900063  1.0
  O  O124  1  0.08554811  0.92466599  0.79274801  1.0
  O  O125  1  0.74052277  0.18939062  0.80879153  1.0
  O  O126  1  0.14560844  0.19032427  0.78797236  1.0
  O  O127  1  0.30340974  0.48147347  0.46442130  1.0
  O  O128  1  0.25055111  0.68060027  0.74518810  1.0
  O  O129  1  0.46031203  0.64329205  0.84662322  1.0
  O  O130  1  0.46901480  0.05246541  0.77186143  1.0
  O  O131  1  0.52722492  0.47525201  0.71317458  1.0
  O  O132  1  0.30986547  0.68280078  0.44529383  1.0
  O  O133  1  0.50027911  0.51703413  0.49710875  1.0
  O  O134  1  0.96068940  0.17839024  0.97068257  1.0
  O  O135  1  0.15948534  0.98757524  0.96426431  1.0
  O  O136  1  0.34792861  0.99307393  0.95822756  1.0
  O  O137  1  0.36168699  0.19094841  0.94713349  1.0
  O  O138  1  0.68357985  0.69824302  0.47659690  1.0
  O  O139  1  0.96996224  0.98948003  0.03140796  1.0
