# generated using pymatgen
data_ZnH13C21NO5
_symmetry_space_group_name_H-M   'P 1'
_cell_length_a   8.94628647
_cell_length_b   18.36958816
_cell_length_c   19.68668451
_cell_angle_alpha   88.62992628
_cell_angle_beta   87.24013111
_cell_angle_gamma   82.96457244
_symmetry_Int_Tables_number   1
_chemical_formula_structural   ZnH13C21NO5
_chemical_formula_sum   'Zn2 H26 C42 N2 O10'
_cell_volume   3206.68812895
_cell_formula_units_Z   2
loop_
 _symmetry_equiv_pos_site_id
 _symmetry_equiv_pos_as_xyz
  1  'x, y, z'
loop_
 _atom_site_type_symbol
 _atom_site_label
 _atom_site_symmetry_multiplicity
 _atom_site_fract_x
 _atom_site_fract_y
 _atom_site_fract_z
 _atom_site_occupancy
  Zn  Zn0  1  0.49626084  0.57671906  0.49800422  1.0
  Zn  Zn1  1  0.50379275  0.42327436  0.50199423  1.0
  H  H2  1  0.02150952  0.41567199  0.49438107  1.0
  H  H3  1  0.97855381  0.58433950  0.50564891  1.0
  H  H4  1  0.69738951  0.82290497  0.42583166  1.0
  H  H5  1  0.30274266  0.17707776  0.57422260  1.0
  H  H6  1  0.74453076  0.91991045  0.49062178  1.0
  H  H7  1  0.25547472  0.08008377  0.50936930  1.0
  H  H8  1  0.74148745  0.05422871  0.49131935  1.0
  H  H9  1  0.25852291  0.94576561  0.50865641  1.0
  H  H10  1  0.50906874  0.38684258  0.71784940  1.0
  H  H11  1  0.49092811  0.61314820  0.28216423  1.0
  H  H12  1  0.51065689  0.38426254  0.84438288  1.0
  H  H13  1  0.48927066  0.61573601  0.15563122  1.0
  H  H14  1  0.48350805  0.62014002  0.84287849  1.0
  H  H15  1  0.51641749  0.37986296  0.15712388  1.0
  H  H16  1  0.47880827  0.62156352  0.71628592  1.0
  H  H17  1  0.52117856  0.37842834  0.28371514  1.0
  H  H18  1  0.33540984  0.59725599  0.94037512  1.0
  H  H19  1  0.66448757  0.40275829  0.05964072  1.0
  H  H20  1  0.33748302  0.59552519  0.06561945  1.0
  H  H21  1  0.66238126  0.40447568  0.93439411  1.0
  H  H22  1  0.32500342  0.69950516  0.56167034  1.0
  H  H23  1  0.67496651  0.30048902  0.43827304  1.0
  H  H24  1  0.31359092  0.83537526  0.57018671  1.0
  H  H25  1  0.68631038  0.16462296  0.42973079  1.0
  H  H26  1  0.71079735  0.62024190  0.40667849  1.0
  H  H27  1  0.28932311  0.37976020  0.59332229  1.0
  C  C28  1  0.50876257  0.49430790  0.36655822  1.0
  C  C29  1  0.49126042  0.50568255  0.63344382  1.0
  C  C30  1  0.40984174  0.55510731  0.96630473  1.0
  C  C31  1  0.59005688  0.44490315  0.03370556  1.0
  C  C32  1  0.41100746  0.55413318  0.03697230  1.0
  C  C33  1  0.58887871  0.44587775  0.96303869  1.0
  C  C34  1  0.50115473  0.49899570  0.07222224  1.0
  C  C35  1  0.49872576  0.50100750  0.92778898  1.0
  C  C36  1  0.40468816  0.72977295  0.53246100  1.0
  C  C37  1  0.59529476  0.27022509  0.46749888  1.0
  C  C38  1  0.39891379  0.80560231  0.53648931  1.0
  C  C39  1  0.60106490  0.19439517  0.46346760  1.0
  C  C40  1  0.50435808  0.84242910  0.49835044  1.0
  C  C41  1  0.49565003  0.15756520  0.50162586  1.0
  C  C42  1  0.61238705  0.79931917  0.45798475  1.0
  C  C43  1  0.38769566  0.20067160  0.54203867  1.0
  C  C44  1  0.61083746  0.72369892  0.45599441  1.0
  C  C45  1  0.38926019  0.27629029  0.54403032  1.0
  C  C46  1  0.63686314  0.95492102  0.49387235  1.0
  C  C47  1  0.36314241  0.04507493  0.50609939  1.0
  C  C48  1  0.63501004  0.03072801  0.49407117  1.0
  C  C49  1  0.36500157  0.96926634  0.50589948  1.0
  C  C50  1  0.79464777  0.47795849  0.49972752  1.0
  C  C51  1  0.20541175  0.52204751  0.50029347  1.0
  C  C52  1  0.49812011  0.07716650  0.50024553  1.0
  C  C53  1  0.50188953  0.92282558  0.49973790  1.0
  C  C54  1  0.96188543  0.47093632  0.49831163  1.0
  C  C55  1  0.03816667  0.52906797  0.50171154  1.0
  C  C56  1  0.50343399  0.43760495  0.74590853  1.0
  C  C57  1  0.49653737  0.56238895  0.25410545  1.0
  C  C58  1  0.50566313  0.43650357  0.81652236  1.0
  C  C59  1  0.49427896  0.56349892  0.18349296  1.0
  C  C60  1  0.49712820  0.50207417  0.85282217  1.0
  C  C61  1  0.50278336  0.49792978  0.14719006  1.0
  C  C62  1  0.48679991  0.56882519  0.81572812  1.0
  C  C63  1  0.51313389  0.43117620  0.18427466  1.0
  C  C64  1  0.48515248  0.56997883  0.74511267  1.0
  C  C65  1  0.51482230  0.43001183  0.25489115  1.0
  C  C66  1  0.49303803  0.50438763  0.70943275  1.0
  C  C67  1  0.50696229  0.49560376  0.29057065  1.0
  C  C68  1  0.72476423  0.67901063  0.41037183  1.0
  C  C69  1  0.27544185  0.32097973  0.58968365  1.0
  N  N70  1  0.50805170  0.68923645  0.49278895  1.0
  N  N71  1  0.49200859  0.31075701  0.50720990  1.0
  O  O72  1  0.50188462  0.55622964  0.39555918  1.0
  O  O73  1  0.49819653  0.44375680  0.60444301  1.0
  O  O74  1  0.51704676  0.43205120  0.39696965  1.0
  O  O75  1  0.48296048  0.56793969  0.60303162  1.0
  O  O76  1  0.72331981  0.54248909  0.50158815  1.0
  O  O77  1  0.27672847  0.45751683  0.49843557  1.0
  O  O78  1  0.73530221  0.41831666  0.49896733  1.0
  O  O79  1  0.26477124  0.58168682  0.50102097  1.0
  O  O80  1  0.82540942  0.70693591  0.37908578  1.0
  O  O81  1  0.17488771  0.29304101  0.62104671  1.0
