# generated using pymatgen
data_Ni2H76C53(NO)12
_symmetry_space_group_name_H-M   'P 1'
_cell_length_a   8.95596800
_cell_length_b   18.88961880
_cell_length_c   23.40614808
_cell_angle_alpha   88.71003967
_cell_angle_beta   78.96089893
_cell_angle_gamma   76.27938780
_symmetry_Int_Tables_number   1
_chemical_formula_structural   Ni2H76C53(NO)12
_chemical_formula_sum   'Ni4 H152 C106 N24 O24'
_cell_volume   3774.46884347
_cell_formula_units_Z   2
loop_
 _symmetry_equiv_pos_site_id
 _symmetry_equiv_pos_as_xyz
  1  'x, y, z'
loop_
 _atom_site_type_symbol
 _atom_site_label
 _atom_site_symmetry_multiplicity
 _atom_site_fract_x
 _atom_site_fract_y
 _atom_site_fract_z
 _atom_site_occupancy
  Ni  Ni0  1  0.50000059  0.49999905  0.00000058  1.0
  Ni  Ni1  1  0.49999794  0.00000244  0.50000104  1.0
  Ni  Ni2  1  0.50000208  0.99999975  0.99999930  1.0
  Ni  Ni3  1  0.00000097  0.49999960  0.49999926  1.0
  H  H4  1  0.33934056  0.61656836  0.04949609  1.0
  H  H5  1  0.23156155  0.47254348  0.02922200  1.0
  H  H6  1  0.50123861  0.52353587  0.13407781  1.0
  H  H7  1  0.35099841  0.60512732  0.15433236  1.0
  H  H8  1  0.22960828  0.41533472  0.12382496  1.0
  H  H9  1  0.43331307  0.41602064  0.11335905  1.0
  H  H10  1  0.66299941  0.58493779  0.07216181  1.0
  H  H11  1  0.53429585  0.67330134  0.07680422  1.0
  H  H12  1  0.28627526  0.34301403  0.01938253  1.0
  H  H13  1  0.47981499  0.33934269  0.02918434  1.0
  H  H14  1  0.10163839  0.58014729  0.08516977  1.0
  H  H15  1  0.08365073  0.60445877  0.15947438  1.0
  H  H16  1  0.03479074  0.52268120  0.14160129  1.0
  H  H17  1  0.55843343  0.08771226  0.92219698  1.0
  H  H18  1  0.69707889  0.05386284  0.03784864  1.0
  H  H19  1  0.47364597  0.01415489  0.13503408  1.0
  H  H20  1  0.66776850  0.02117123  0.13762972  1.0
  H  H21  1  0.37428016  0.12665684  0.09158059  1.0
  H  H22  1  0.54344742  0.15708772  0.10131399  1.0
  H  H23  1  0.33601522  0.10871175  0.87400247  1.0
  H  H24  1  0.22638437  0.08007226  0.93846632  1.0
  H  H25  1  0.36928809  0.20597295  0.95169626  1.0
  H  H26  1  0.27251872  0.15722018  0.00780670  1.0
  H  H27  1  0.72009124  0.13935404  0.96863609  1.0
  H  H28  1  0.68881779  0.21058107  0.02200017  1.0
  H  H29  1  0.61429643  0.22855886  0.95698431  1.0
  H  H30  1  0.52883696  0.86629569  0.76849330  1.0
  H  H31  1  0.43404935  0.82569235  0.72141603  1.0
  H  H32  1  0.73442966  0.79159431  0.81290490  1.0
  H  H33  1  0.62194354  0.72779021  0.84196204  1.0
  H  H34  1  0.96343500  0.71780413  0.96953282  1.0
  H  H35  1  0.00010466  0.01300221  0.80808002  1.0
  H  H36  1  0.25607220  0.93086210  0.76163968  1.0
  H  H37  1  0.78709529  0.75114674  0.89823368  1.0
  H  H38  1  0.09673457  0.58519407  0.77860727  1.0
  H  H39  1  0.26738097  0.55009365  0.85308647  1.0
  H  H40  1  0.94826926  0.86307384  0.94624376  1.0
  H  H41  1  0.20047471  0.77863678  0.89961685  1.0
  H  H42  1  0.50544347  0.88341089  0.45057249  1.0
  H  H43  1  0.23292556  0.02730310  0.47103994  1.0
  H  H44  1  0.65831327  0.97655203  0.36591382  1.0
  H  H45  1  0.61014003  0.89489251  0.34571187  1.0
  H  H46  1  0.26766729  0.08445254  0.37641560  1.0
  H  H47  1  0.46157067  0.08401125  0.38672364  1.0
  H  H48  1  0.82007026  0.91513984  0.42761051  1.0
  H  H49  1  0.78448774  0.82675072  0.42306762  1.0
  H  H50  1  0.14796973  0.15681605  0.48087461  1.0
  H  H51  1  0.34764408  0.16057308  0.47085404  1.0
  H  H52  1  0.26668034  0.91961728  0.41490367  1.0
  H  H53  1  0.34744531  0.89540854  0.34058377  1.0
  H  H54  1  0.19868952  0.97711422  0.35851065  1.0
  H  H55  1  0.06853252  0.41226820  0.57776052  1.0
  H  H56  1  0.28894140  0.44604984  0.46205496  1.0
  H  H57  1  0.12276202  0.48573163  0.36494706  1.0
  H  H58  1  0.32648554  0.47877823  0.36229424  1.0
  H  H59  1  0.09260376  0.37328497  0.40839000  1.0
  H  H60  1  0.30196036  0.34280468  0.39866917  1.0
  H  H61  1  0.81896285  0.39137640  0.62609146  1.0
  H  H62  1  0.74496648  0.41998282  0.56167704  1.0
  H  H63  1  0.02694258  0.29404892  0.54833882  1.0
  H  H64  1  0.93746467  0.34280692  0.49223365  1.0
  H  H65  1  0.32820860  0.36055776  0.53129702  1.0
  H  H66  1  0.42143909  0.28934030  0.47789029  1.0
  H  H67  1  0.30000943  0.27134513  0.54293563  1.0
  H  H68  1  0.66323036  0.63343031  0.73151838  1.0
  H  H69  1  0.48098925  0.67419524  0.77873056  1.0
  H  H70  1  0.83924734  0.70813949  0.68708130  1.0
  H  H71  1  0.69162402  0.77172006  0.65799194  1.0
  H  H72  1  0.15033572  0.78214478  0.53029554  1.0
  H  H73  1  0.32062841  0.48685577  0.69193919  1.0
  H  H74  1  0.44793153  0.56895255  0.73845103  1.0
  H  H75  1  0.93595391  0.74881653  0.60158299  1.0
  H  H76  1  0.95990731  0.91474954  0.72122024  1.0
  H  H77  1  0.16998676  0.94982721  0.64676490  1.0
  H  H78  1  0.25722638  0.63689092  0.55382871  1.0
  H  H79  1  0.37824334  0.72126889  0.60051694  1.0
  H  H80  1  0.66066227  0.38343031  0.95050294  1.0
  H  H81  1  0.76844025  0.52745681  0.97077842  1.0
  H  H82  1  0.49876072  0.47646388  0.86592193  1.0
  H  H83  1  0.64900437  0.39487189  0.84566761  1.0
  H  H84  1  0.77038965  0.58466612  0.87617566  1.0
  H  H85  1  0.56668550  0.58397856  0.88664290  1.0
  H  H86  1  0.33700228  0.41506359  0.92784050  1.0
  H  H87  1  0.46570251  0.32669950  0.92319597  1.0
  H  H88  1  0.71372612  0.65698627  0.98061832  1.0
  H  H89  1  0.52018787  0.66065761  0.97081617  1.0
  H  H90  1  0.89836272  0.41985355  0.91483109  1.0
  H  H91  1  0.91635044  0.39554153  0.84052553  1.0
  H  H92  1  0.96520855  0.47732074  0.85839857  1.0
  H  H93  1  0.44156124  0.91228749  0.07780057  1.0
  H  H94  1  0.30292571  0.94613528  0.96215003  1.0
  H  H95  1  0.52635323  0.98584759  0.86496443  1.0
  H  H96  1  0.33223210  0.97882852  0.86236873  1.0
  H  H97  1  0.62572833  0.87334400  0.90841854  1.0
  H  H98  1  0.45656415  0.84291204  0.89868254  1.0
  H  H99  1  0.66398468  0.89128855  0.12599642  1.0
  H  H100  1  0.77361447  0.91992804  0.06153249  1.0
  H  H101  1  0.63071336  0.79402844  0.04830282  1.0
  H  H102  1  0.72748337  0.84278121  0.99219289  1.0
  H  H103  1  0.27991418  0.86064245  0.03136024  1.0
  H  H104  1  0.31118968  0.78941760  0.97799645  1.0
  H  H105  1  0.38570738  0.77144036  0.04301114  1.0
  H  H106  1  0.47116744  0.13370078  0.23150986  1.0
  H  H107  1  0.56595381  0.17430904  0.27858594  1.0
  H  H108  1  0.26557887  0.20840436  0.18709180  1.0
  H  H109  1  0.37806123  0.27221172  0.15803917  1.0
  H  H110  1  0.03657232  0.28218908  0.03046668  1.0
  H  H111  1  0.99990382  0.98699373  0.19192157  1.0
  H  H112  1  0.74393985  0.06913764  0.23836562  1.0
  H  H113  1  0.21291163  0.24884975  0.10176691  1.0
  H  H114  1  0.90326551  0.41480296  0.22139191  1.0
  H  H115  1  0.73262035  0.44990011  0.14691077  1.0
  H  H116  1  0.05172888  0.13692536  0.05375631  1.0
  H  H117  1  0.79952469  0.22135916  0.10038589  1.0
  H  H118  1  0.49455205  0.11659595  0.54942876  1.0
  H  H119  1  0.76706612  0.97270756  0.52896216  1.0
  H  H120  1  0.34168091  0.02345535  0.63408736  1.0
  H  H121  1  0.38985507  0.10511433  0.65428981  1.0
  H  H122  1  0.73232858  0.91555484  0.62358617  1.0
  H  H123  1  0.53842287  0.91599614  0.61327703  1.0
  H  H124  1  0.17992138  0.08486918  0.57239012  1.0
  H  H125  1  0.21550842  0.17325775  0.57693331  1.0
  H  H126  1  0.85203263  0.84319351  0.51912640  1.0
  H  H127  1  0.65235861  0.83943375  0.52914684  1.0
  H  H128  1  0.73331333  0.08038737  0.58509823  1.0
  H  H129  1  0.65255441  0.10459666  0.65941633  1.0
  H  H130  1  0.80130352  0.02289207  0.64148992  1.0
  H  H131  1  0.93147038  0.58772992  0.42223756  1.0
  H  H132  1  0.71106334  0.55394719  0.53794411  1.0
  H  H133  1  0.87724503  0.51426540  0.63505081  1.0
  H  H134  1  0.67352264  0.52121989  0.63770424  1.0
  H  H135  1  0.90739739  0.62671370  0.59160843  1.0
  H  H136  1  0.69804261  0.65719290  0.60132796  1.0
  H  H137  1  0.18103969  0.60862117  0.37390610  1.0
  H  H138  1  0.25503375  0.58001639  0.43832090  1.0
  H  H139  1  0.97305793  0.70594975  0.45165911  1.0
  H  H140  1  0.06253810  0.65719229  0.50776402  1.0
  H  H141  1  0.67178784  0.63944145  0.46870247  1.0
  H  H142  1  0.57856439  0.71065672  0.52211006  1.0
  H  H143  1  0.69998728  0.72865353  0.45706385  1.0
  H  H144  1  0.33677036  0.36656671  0.26848131  1.0
  H  H145  1  0.51900923  0.32580287  0.22127086  1.0
  H  H146  1  0.16074952  0.29186136  0.31291694  1.0
  H  H147  1  0.30837440  0.22828024  0.34200961  1.0
  H  H148  1  0.84965317  0.21786424  0.46970442  1.0
  H  H149  1  0.67937464  0.51313962  0.30806241  1.0
  H  H150  1  0.55207040  0.43104502  0.26155062  1.0
  H  H151  1  0.06403940  0.25118758  0.39841839  1.0
  H  H152  1  0.04008445  0.08525021  0.27878491  1.0
  H  H153  1  0.83000284  0.05017636  0.35323938  1.0
  H  H154  1  0.74277464  0.36310556  0.44617326  1.0
  H  H155  1  0.62175661  0.27872759  0.39948265  1.0
  C  C156  1  0.39332168  0.55803623  0.12331316  1.0
  C  C157  1  0.31849632  0.44491078  0.10446307  1.0
  C  C158  1  0.56592394  0.61946477  0.05424918  1.0
  C  C159  1  0.38131957  0.37187603  0.01106518  1.0
  C  C160  1  0.11641575  0.55797251  0.12844971  1.0
  C  C161  1  0.59333500  0.00671532  0.10954420  1.0
  C  C162  1  0.49334217  0.13011800  0.07085298  1.0
  C  C163  1  0.34473922  0.07267506  0.91169928  1.0
  C  C164  1  0.38691065  0.15964242  0.98155131  1.0
  C  C165  1  0.63508770  0.18785334  0.99059203  1.0
  C  C166  1  0.48956729  0.81716288  0.75991306  1.0
  C  C167  1  0.95876082  0.94345593  0.87995791  1.0
  C  C168  1  0.70340942  0.74053294  0.80379502  1.0
  C  C169  1  0.93214803  0.66985241  0.83366944  1.0
  C  C170  1  0.99076738  0.68874403  0.92767736  1.0
  C  C171  1  0.12548534  0.63201010  0.91609057  1.0
  C  C172  1  0.04616636  0.96165973  0.82791499  1.0
  C  C173  1  0.24385218  0.85023981  0.82889171  1.0
  C  C174  1  0.18898460  0.91574532  0.80201908  1.0
  C  C175  1  0.89319824  0.70793034  0.88722160  1.0
  C  C176  1  0.80364328  0.99222399  0.90713945  1.0
  C  C177  1  0.06830059  0.61338851  0.82085764  1.0
  C  C178  1  0.16264078  0.59457944  0.86208027  1.0
  C  C179  1  0.01624957  0.87731740  0.90580382  1.0
  C  C180  1  0.22759406  0.61257383  0.96084443  1.0
  C  C181  1  0.15651187  0.83078774  0.88056259  1.0
  C  C182  1  0.57426421  0.94198719  0.37674295  1.0
  C  C183  1  0.36697674  0.05499394  0.39570462  1.0
  C  C184  1  0.73977611  0.88058548  0.44564832  1.0
  C  C185  1  0.26370323  0.12802128  0.48906936  1.0
  C  C186  1  0.30251316  0.94185750  0.37164644  1.0
  C  C187  1  0.20952673  0.49318608  0.39041353  1.0
  C  C188  1  0.19438874  0.36980167  0.42911703  1.0
  C  C189  1  0.82927272  0.42739944  0.58837602  1.0
  C  C190  1  0.02806814  0.34036417  0.51846540  1.0
  C  C191  1  0.31363737  0.31207300  0.50934511  1.0
  C  C192  1  0.56636452  0.68262397  0.74015069  1.0
  C  C193  1  0.28163372  0.55650338  0.62011876  1.0
  C  C194  1  0.74778413  0.75913007  0.69614259  1.0
  C  C195  1  0.93518274  0.83006545  0.66616690  1.0
  C  C196  1  0.10674581  0.81119503  0.57215848  1.0
  C  C197  1  0.17315480  0.86791944  0.58375632  1.0
  C  C198  1  0.33514533  0.53822491  0.67216002  1.0
  C  C199  1  0.42243519  0.64960976  0.67123214  1.0
  C  C200  1  0.40614447  0.58409938  0.69808116  1.0
  C  C201  1  0.98788154  0.79199637  0.61261477  1.0
  C  C202  1  0.20280576  0.50769041  0.59284584  1.0
  C  C203  1  0.00202392  0.88653013  0.67898033  1.0
  C  C204  1  0.11881421  0.90533974  0.63776337  1.0
  C  C205  1  0.29884919  0.62264064  0.59429641  1.0
  C  C206  1  0.30093567  0.88726826  0.53911262  1.0
  C  C207  1  0.36733959  0.66911747  0.61956182  1.0
  C  C208  1  0.60667787  0.44196352  0.87668752  1.0
  C  C209  1  0.68150317  0.55508951  0.89553856  1.0
  C  C210  1  0.43407582  0.38053662  0.94575162  1.0
  C  C211  1  0.61868237  0.62812318  0.98893565  1.0
  C  C212  1  0.88358472  0.44202833  0.87155064  1.0
  C  C213  1  0.40666476  0.99328607  0.89045429  1.0
  C  C214  1  0.50666589  0.86988121  0.92914509  1.0
  C  C215  1  0.65526040  0.92732578  0.08829962  1.0
  C  C216  1  0.61309290  0.84035734  0.01844645  1.0
  C  C217  1  0.36491725  0.81214533  0.00940485  1.0
  C  C218  1  0.51043408  0.18283578  0.24008862  1.0
  C  C219  1  0.04124319  0.05653838  0.12004095  1.0
  C  C220  1  0.29659470  0.25946573  0.19620502  1.0
  C  C221  1  0.06785537  0.33014352  0.16633038  1.0
  C  C222  1  0.00923677  0.31125082  0.07232108  1.0
  C  C223  1  0.87451430  0.36798366  0.08390838  1.0
  C  C224  1  0.95383389  0.03833947  0.17208524  1.0
  C  C225  1  0.75615334  0.14975776  0.17110976  1.0
  C  C226  1  0.81102468  0.08425443  0.19798326  1.0
  C  C227  1  0.10680557  0.29206397  0.11277862  1.0
  C  C228  1  0.19636135  0.00777195  0.09285680  1.0
  C  C229  1  0.93170851  0.38661234  0.17913739  1.0
  C  C230  1  0.83736434  0.40541268  0.13791854  1.0
  C  C231  1  0.98375586  0.12267909  0.09419482  1.0
  C  C232  1  0.77240535  0.38741830  0.03915441  1.0
  C  C233  1  0.84348829  0.16920874  0.11943794  1.0
  C  C234  1  0.42572997  0.05802019  0.62325823  1.0
  C  C235  1  0.63301681  0.94501344  0.60429835  1.0
  C  C236  1  0.26022139  0.11942245  0.55435268  1.0
  C  C237  1  0.73629771  0.87198774  0.51093105  1.0
  C  C238  1  0.69748277  0.05814934  0.62835438  1.0
  C  C239  1  0.79047921  0.50681150  0.60958520  1.0
  C  C240  1  0.80561204  0.63019645  0.57088089  1.0
  C  C241  1  0.17072801  0.57259922  0.41162285  1.0
  C  C242  1  0.97193441  0.65963340  0.48153216  1.0
  C  C243  1  0.68636400  0.68792567  0.49065426  1.0
  C  C244  1  0.43363601  0.31737470  0.25984954  1.0
  C  C245  1  0.71836582  0.44349310  0.37988356  1.0
  C  C246  1  0.25221641  0.24087023  0.30385681  1.0
  C  C247  1  0.06481098  0.16993538  0.33383570  1.0
  C  C248  1  0.89324096  0.18881072  0.42784296  1.0
  C  C249  1  0.82683116  0.13208630  0.41624827  1.0
  C  C250  1  0.66485499  0.46177375  0.32784157  1.0
  C  C251  1  0.57757152  0.35038672  0.32876750  1.0
  C  C252  1  0.59386068  0.41589601  0.30191831  1.0
  C  C253  1  0.01211008  0.20800611  0.38738684  1.0
  C  C254  1  0.79719722  0.49230553  0.40715441  1.0
  C  C255  1  0.99796522  0.11347016  0.32102373  1.0
  C  C256  1  0.88117433  0.09466219  0.36224165  1.0
  C  C257  1  0.70114915  0.37735693  0.40570312  1.0
  C  C258  1  0.69904345  0.11274130  0.46088893  1.0
  C  C259  1  0.63265946  0.33088120  0.38043876  1.0
  C  C260  1  0.62758676  0.74984514  0.74999488  1.0
  C  C261  1  0.37241482  0.25015516  0.25000461  1.0
  N  N262  1  0.43581106  0.58307751  0.06330186  1.0
  N  N263  1  0.33516531  0.44469390  0.03977555  1.0
  N  N264  1  0.27501699  0.51662262  0.13103302  1.0
  N  N265  1  0.44854429  0.09001755  0.94813611  1.0
  N  N266  1  0.58534280  0.05366749  0.05838279  1.0
  N  N267  1  0.48539290  0.17414591  0.01988890  1.0
  N  N268  1  0.58213045  0.91694059  0.43673429  1.0
  N  N269  1  0.31911543  0.05519272  0.46039091  1.0
  N  N270  1  0.42210361  0.98330606  0.36910638  1.0
  N  N271  1  0.98678162  0.41001188  0.55185999  1.0
  N  N272  1  0.19745646  0.44624651  0.44157836  1.0
  N  N273  1  0.17942970  0.32581697  0.48010045  1.0
  N  N274  1  0.56419171  0.41692169  0.93669812  1.0
  N  N275  1  0.66483700  0.55530585  0.96022579  1.0
  N  N276  1  0.72498228  0.48337768  0.86896767  1.0
  N  N277  1  0.55145455  0.90998275  0.05186271  1.0
  N  N278  1  0.41466168  0.94633335  0.94161695  1.0
  N  N279  1  0.51461156  0.82585330  0.98010936  1.0
  N  N280  1  0.41786459  0.08306679  0.56326833  1.0
  N  N281  1  0.68087784  0.94481685  0.53960895  1.0
  N  N282  1  0.57788987  0.01670023  0.63089606  1.0
  N  N283  1  0.01322141  0.58998515  0.44813850  1.0
  N  N284  1  0.80254763  0.55375051  0.55842021  1.0
  N  N285  1  0.82057243  0.67418061  0.51989753  1.0
  O  O286  1  0.38264519  0.80131520  0.80944171  1.0
  O  O287  1  0.73311678  0.96799059  0.95405550  1.0
  O  O288  1  0.75334708  0.05101608  0.88273161  1.0
  O  O289  1  0.33434135  0.55287253  0.95036576  1.0
  O  O290  1  0.20217910  0.65507452  0.00448081  1.0
  O  O291  1  0.84196499  0.68276592  0.79183282  1.0
  O  O292  1  0.49283358  0.69851639  0.69069973  1.0
  O  O293  1  0.15484747  0.53198739  0.54596715  1.0
  O  O294  1  0.18726948  0.44878250  0.61714933  1.0
  O  O295  1  0.33788335  0.94682424  0.54972372  1.0
  O  O296  1  0.36163666  0.84482703  0.49543688  1.0
  O  O297  1  0.81622499  0.81705430  0.70803032  1.0
  O  O298  1  0.61735781  0.19868237  0.19056002  1.0
  O  O299  1  0.26689748  0.03200971  0.04594265  1.0
  O  O300  1  0.24662965  0.94896898  0.11725452  1.0
  O  O301  1  0.66565786  0.44711959  0.04963445  1.0
  O  O302  1  0.79782999  0.34491978  0.99551751  1.0
  O  O303  1  0.15803771  0.31723056  0.20816744  1.0
  O  O304  1  0.50716511  0.30148172  0.30930032  1.0
  O  O305  1  0.84515249  0.46800908  0.45403474  1.0
  O  O306  1  0.81273300  0.55121235  0.38285082  1.0
  O  O307  1  0.66210316  0.05318205  0.45028003  1.0
  O  O308  1  0.63833280  0.15518527  0.50456041  1.0
  O  O309  1  0.18377002  0.18294273  0.29196940  1.0
