# generated using pymatgen
data_CuSiH24C28(N2F3)2
_symmetry_space_group_name_H-M   'P 1'
_cell_length_a   8.01609500
_cell_length_b   13.72361088
_cell_length_c   13.72332434
_cell_angle_alpha   90.01349061
_cell_angle_beta   89.86125089
_cell_angle_gamma   89.86180362
_symmetry_Int_Tables_number   1
_chemical_formula_structural   CuSiH24C28(N2F3)2
_chemical_formula_sum   'Cu1 Si1 H24 C28 N4 F6'
_cell_volume   1509.69087243
_cell_formula_units_Z   1
loop_
 _symmetry_equiv_pos_site_id
 _symmetry_equiv_pos_as_xyz
  1  'x, y, z'
loop_
 _atom_site_type_symbol
 _atom_site_label
 _atom_site_symmetry_multiplicity
 _atom_site_fract_x
 _atom_site_fract_y
 _atom_site_fract_z
 _atom_site_occupancy
  Cu  Cu0  1  0.50001463  0.50000622  0.49999267  1.0
  Si  Si1  1  0.00001858  0.49999872  0.50000260  1.0
  H  H2  1  0.24147002  0.65806025  0.49994294  1.0
  H  H3  1  0.23750021  0.83979377  0.50002336  1.0
  H  H4  1  0.76010868  0.65321052  0.49994849  1.0
  H  H5  1  0.23989598  0.34678590  0.49988749  1.0
  H  H6  1  0.75853661  0.34193546  0.50014736  1.0
  H  H7  1  0.76250752  0.16020341  0.50013251  1.0
  H  H8  1  0.24148243  0.49994264  0.65806530  1.0
  H  H9  1  0.23751130  0.49994362  0.83979605  1.0
  H  H10  1  0.76011329  0.50012454  0.65321257  1.0
  H  H11  1  0.23991564  0.50003583  0.34678810  1.0
  H  H12  1  0.75855576  0.49995978  0.34193752  1.0
  H  H13  1  0.76253197  0.49991288  0.16020530  1.0
  H  H14  1  0.89976572  0.82232173  0.56427477  1.0
  H  H15  1  0.81947859  0.92532571  0.49979696  1.0
  H  H16  1  0.90028171  0.82196149  0.43585567  1.0
  H  H17  1  0.10004229  0.17762378  0.56439684  1.0
  H  H18  1  0.18053305  0.07466848  0.49968487  1.0
  H  H19  1  0.09992660  0.17808520  0.43597392  1.0
  H  H20  1  0.89995640  0.43559143  0.82236107  1.0
  H  H21  1  0.81948778  0.50029161  0.92532748  1.0
  H  H22  1  0.90011179  0.56401165  0.82191856  1.0
  H  H23  1  0.10024696  0.43573674  0.17766283  1.0
  H  H24  1  0.18055787  0.50022653  0.07466812  1.0
  H  H25  1  0.09976565  0.56415751  0.17804637  1.0
  C  C26  1  0.35677101  0.69984913  0.49998063  1.0
  C  C27  1  0.35589498  0.80070083  0.50000267  1.0
  C  C28  1  0.50768911  0.85255776  0.50004363  1.0
  C  C29  1  0.65883436  0.79903754  0.50002593  1.0
  C  C30  1  0.64708248  0.69741425  0.49996020  1.0
  C  C31  1  0.50467526  0.95560717  0.50007836  1.0
  C  C32  1  0.49533373  0.04438782  0.50007096  1.0
  C  C33  1  0.49231126  0.14744234  0.50004958  1.0
  C  C34  1  0.34116500  0.20096036  0.49995871  1.0
  C  C35  1  0.35293072  0.30258217  0.49996541  1.0
  C  C36  1  0.64324693  0.30013783  0.50007395  1.0
  C  C37  1  0.64411162  0.19929562  0.50010074  1.0
  C  C38  1  0.35677183  0.49999013  0.69985619  1.0
  C  C39  1  0.35590633  0.49995678  0.80069978  1.0
  C  C40  1  0.50771006  0.49997703  0.85255590  1.0
  C  C41  1  0.65885807  0.50004865  0.79902831  1.0
  C  C42  1  0.64708815  0.50005577  0.69740952  1.0
  C  C43  1  0.50467679  0.49994108  0.95561112  1.0
  C  C44  1  0.49536522  0.49992708  0.04438659  1.0
  C  C45  1  0.49233684  0.49994287  0.14744181  1.0
  C  C46  1  0.34118489  0.49996452  0.20096723  1.0
  C  C47  1  0.35293846  0.50001935  0.30258531  1.0
  C  C48  1  0.64325752  0.49995746  0.30014883  1.0
  C  C49  1  0.64413934  0.49994417  0.19930667  1.0
  C  C50  1  0.82823430  0.84558543  0.49999925  1.0
  C  C51  1  0.17179003  0.15440807  0.49997444  1.0
  C  C52  1  0.82824392  0.50001007  0.84558473  1.0
  C  C53  1  0.17179403  0.50001184  0.15441373  1.0
  N  N54  1  0.50134751  0.64906238  0.49996859  1.0
  N  N55  1  0.49866683  0.35093550  0.50001021  1.0
  N  N56  1  0.50134616  0.50002951  0.64906142  1.0
  N  N57  1  0.49868682  0.49998439  0.35093777  1.0
  F  F58  1  0.21560042  0.50203572  0.50203758  1.0
  F  F59  1  0.78442759  0.49796143  0.49796598  1.0
  F  F60  1  0.00001556  0.58828214  0.41172462  1.0
  F  F61  1  0.00001163  0.41171894  0.58827986  1.0
  F  F62  1  0.99493327  0.58828884  0.58829104  1.0
  F  F63  1  0.00508850  0.41171196  0.41170889  1.0
