# generated using pymatgen
data_AlH7C14N2Cl2O5
_symmetry_space_group_name_H-M   'P 1'
_cell_length_a   6.67231658
_cell_length_b   16.97953933
_cell_length_c   16.97980923
_cell_angle_alpha   87.11888811
_cell_angle_beta   82.40757447
_cell_angle_gamma   82.40940155
_symmetry_Int_Tables_number   1
_chemical_formula_structural   AlH7C14N2Cl2O5
_chemical_formula_sum   'Al2 H14 C28 N4 Cl4 O10'
_cell_volume   1889.06296952
_cell_formula_units_Z   2
loop_
 _symmetry_equiv_pos_site_id
 _symmetry_equiv_pos_as_xyz
  1  'x, y, z'
loop_
 _atom_site_type_symbol
 _atom_site_label
 _atom_site_symmetry_multiplicity
 _atom_site_fract_x
 _atom_site_fract_y
 _atom_site_fract_z
 _atom_site_occupancy
  Al  Al0  1  0.49999473  0.50000252  0.50000025  1.0
  Al  Al1  1  0.99999789  0.49999804  0.49999810  1.0
  H  H2  1  0.74998859  0.42403545  0.57597645  1.0
  H  H3  1  0.24999760  0.57597491  0.42402928  1.0
  H  H4  1  0.38130488  0.73829289  0.46659288  1.0
  H  H5  1  0.31735121  0.88717542  0.46355329  1.0
  H  H6  1  0.87101842  0.89222913  0.56650497  1.0
  H  H7  1  0.12907898  0.10776493  0.43346505  1.0
  H  H8  1  0.68265118  0.11283186  0.53647294  1.0
  H  H9  1  0.61867434  0.26171137  0.53343646  1.0
  H  H10  1  0.88128348  0.46657335  0.73829629  1.0
  H  H11  1  0.81731239  0.46353180  0.88717283  1.0
  H  H12  1  0.37097042  0.56650074  0.89222575  1.0
  H  H13  1  0.62894637  0.43352265  0.10777479  1.0
  H  H14  1  0.18268252  0.53643882  0.11281772  1.0
  H  H15  1  0.11874149  0.53339788  0.26169738  1.0
  C  C16  1  0.19421474  0.50783467  0.64290118  1.0
  C  C17  1  0.30577717  0.35709097  0.49215737  1.0
  C  C18  1  0.80578044  0.49216683  0.35709564  1.0
  C  C19  1  0.69421357  0.64290574  0.50784402  1.0
  C  C20  1  0.66445061  0.73123549  0.51449472  1.0
  C  C21  1  0.48913783  0.77315476  0.48689725  1.0
  C  C22  1  0.45249767  0.85528151  0.48549935  1.0
  C  C23  1  0.59392512  0.89828025  0.51323152  1.0
  C  C24  1  0.76597748  0.85790903  0.54348908  1.0
  C  C25  1  0.80136971  0.77504331  0.54441036  1.0
  C  C26  1  0.23410043  0.14208912  0.45648884  1.0
  C  C27  1  0.40613380  0.10171601  0.48676044  1.0
  C  C28  1  0.54751762  0.14471874  0.51451179  1.0
  C  C29  1  0.51086971  0.22684608  0.51311427  1.0
  C  C30  1  0.33556544  0.26876244  0.48550765  1.0
  C  C31  1  0.19867993  0.22495356  0.45557793  1.0
  C  C32  1  0.16442159  0.51448498  0.73123393  1.0
  C  C33  1  0.98910165  0.48688742  0.77315812  1.0
  C  C34  1  0.95246071  0.48548635  0.85528455  1.0
  C  C35  1  0.09387962  0.51322318  0.89827964  1.0
  C  C36  1  0.26591933  0.54348608  0.85790531  1.0
  C  C37  1  0.30133157  0.54440487  0.77503953  1.0
  C  C38  1  0.73401866  0.45652367  0.14209355  1.0
  C  C39  1  0.90607134  0.48677945  0.10171945  1.0
  C  C40  1  0.04752533  0.51449730  0.14471237  1.0
  C  C41  1  0.01089396  0.51309923  0.22683757  1.0
  C  C42  1  0.83556098  0.48551354  0.26876310  1.0
  C  C43  1  0.69862034  0.45560846  0.22496021  1.0
  N  N44  1  0.57721074  0.98208645  0.51437468  1.0
  N  N45  1  0.42285858  0.01791041  0.48561906  1.0
  N  N46  1  0.07716029  0.51436536  0.98208378  1.0
  N  N47  1  0.92278490  0.48563191  0.01791526  1.0
  Cl  Cl48  1  0.01108150  0.73021496  0.58671605  1.0
  Cl  Cl49  1  0.98898124  0.26977428  0.41325776  1.0
  Cl  Cl50  1  0.51105370  0.58671143  0.73021426  1.0
  Cl  Cl51  1  0.48889513  0.41330661  0.26979132  1.0
  O  O52  1  0.37579818  0.49392353  0.60845794  1.0
  O  O53  1  0.12417339  0.39153835  0.50607744  1.0
  O  O54  1  0.96711000  0.48669972  0.39057573  1.0
  O  O55  1  0.53290220  0.60941970  0.51330410  1.0
  O  O56  1  0.62420075  0.50608033  0.39154211  1.0
  O  O57  1  0.87581229  0.60845541  0.49392023  1.0
  O  O58  1  0.03288664  0.51329288  0.60941905  1.0
  O  O59  1  0.46707468  0.39058233  0.48670072  1.0
  O  O60  1  0.74999504  0.46535773  0.53463382  1.0
  O  O61  1  0.24999619  0.53464200  0.46536093  1.0
