# generated using pymatgen
data_MgH2(C2O)3
_symmetry_space_group_name_H-M   'P 1'
_cell_length_a   6.87257040
_cell_length_b   19.46169251
_cell_length_c   19.47449943
_cell_angle_alpha   118.62248053
_cell_angle_beta   96.74568880
_cell_angle_gamma   96.75102319
_symmetry_Int_Tables_number   1
_chemical_formula_structural   MgH2(C2O)3
_chemical_formula_sum   'Mg6 H12 C36 O18'
_cell_volume   2225.00901084
_cell_formula_units_Z   6
loop_
 _symmetry_equiv_pos_site_id
 _symmetry_equiv_pos_as_xyz
  1  'x, y, z'
loop_
 _atom_site_type_symbol
 _atom_site_label
 _atom_site_symmetry_multiplicity
 _atom_site_fract_x
 _atom_site_fract_y
 _atom_site_fract_z
 _atom_site_occupancy
  Mg  Mg0  1  0.30151805  0.67533330  0.28377049  1.0
  Mg  Mg1  1  0.01756020  0.71609861  0.39137313  1.0
  Mg  Mg2  1  0.62620519  0.60833575  0.32447492  1.0
  Mg  Mg3  1  0.69848224  0.32466724  0.71622980  1.0
  Mg  Mg4  1  0.98243677  0.28390064  0.60862766  1.0
  Mg  Mg5  1  0.37379459  0.39166368  0.67552545  1.0
  H  H6  1  0.11358477  0.91073443  0.42155791  1.0
  H  H7  1  0.69200939  0.57836404  0.48883955  1.0
  H  H8  1  0.20304717  0.51106233  0.08944076  1.0
  H  H9  1  0.84549886  0.93967242  0.50480490  1.0
  H  H10  1  0.34097673  0.49508992  0.43502201  1.0
  H  H11  1  0.90589162  0.56486731  0.06001300  1.0
  H  H12  1  0.88642513  0.08926957  0.57844345  1.0
  H  H13  1  0.30799320  0.42163586  0.51116010  1.0
  H  H14  1  0.79694907  0.48894000  0.91056132  1.0
  H  H15  1  0.15450573  0.06032424  0.49519032  1.0
  H  H16  1  0.65902151  0.50490827  0.56497652  1.0
  H  H17  1  0.09409450  0.43513225  0.93998631  1.0
  C  C18  1  0.35393921  0.84918835  0.41431411  1.0
  C  C19  1  0.93984752  0.58559629  0.43474549  1.0
  C  C20  1  0.50498128  0.56514820  0.15075184  1.0
  C  C21  1  0.27431122  0.91781415  0.43986657  1.0
  C  C22  1  0.83450881  0.56005873  0.47775069  1.0
  C  C23  1  0.35666788  0.52215167  0.08224103  1.0
  C  C24  1  0.39415710  0.99525404  0.48783920  1.0
  C  C25  1  0.90626778  0.51214385  0.50733757  1.0
  C  C26  1  0.39892755  0.49264279  0.00480115  1.0
  C  C27  1  0.60585546  0.00474495  0.51216372  1.0
  C  C28  1  0.09372698  0.48785234  0.49265897  1.0
  C  C29  1  0.60106278  0.50735628  0.99519826  1.0
  C  C30  1  0.68584890  0.93495161  0.48681770  1.0
  C  C31  1  0.19932202  0.51315559  0.44824095  1.0
  C  C32  1  0.75100705  0.55172435  0.06488114  1.0
  C  C33  1  0.56785361  0.85889156  0.43926105  1.0
  C  C34  1  0.12894410  0.56067472  0.41965231  1.0
  C  C35  1  0.70919669  0.58026330  0.14095320  1.0
  C  C36  1  0.67070812  0.79048275  0.41597914  1.0
  C  C37  1  0.25504618  0.58386151  0.37442992  1.0
  C  C38  1  0.88040525  0.62536597  0.20932318  1.0
  C  C39  1  0.72569868  0.08218866  0.56013599  1.0
  C  C40  1  0.16549171  0.43993792  0.52224809  1.0
  C  C41  1  0.64332030  0.47784994  0.91776033  1.0
  C  C42  1  0.64606072  0.15081358  0.58568697  1.0
  C  C43  1  0.06015072  0.41440280  0.56525216  1.0
  C  C44  1  0.49501163  0.43485493  0.84924864  1.0
  C  C45  1  0.43215319  0.14110816  0.56073842  1.0
  C  C46  1  0.87105746  0.43932446  0.58034602  1.0
  C  C47  1  0.29079930  0.41974321  0.85905007  1.0
  C  C48  1  0.31416299  0.06504585  0.51318249  1.0
  C  C49  1  0.80067518  0.48684157  0.55175656  1.0
  C  C50  1  0.24898585  0.44827789  0.93512025  1.0
  C  C51  1  0.32929358  0.20951892  0.58401989  1.0
  C  C52  1  0.74494925  0.41613680  0.62556874  1.0
  C  C53  1  0.11959416  0.37463664  0.79067619  1.0
  O  O54  1  0.85600246  0.80127673  0.44305723  1.0
  O  O55  1  0.41324953  0.55674169  0.35812547  1.0
  O  O56  1  0.05494012  0.64167390  0.19854800  1.0
  O  O57  1  0.56749664  0.71966451  0.36627780  1.0
  O  O58  1  0.20124307  0.63349073  0.35323426  1.0
  O  O59  1  0.84776218  0.64646781  0.28008380  1.0
  O  O60  1  0.23207060  0.77700421  0.36786789  1.0
  O  O61  1  0.86431621  0.63195403  0.40889916  1.0
  O  O62  1  0.45529547  0.59093918  0.22290430  1.0
  O  O63  1  0.14400102  0.19872379  0.55694065  1.0
  O  O64  1  0.58674782  0.44325708  0.64187365  1.0
  O  O65  1  0.94505812  0.35832489  0.80144995  1.0
  O  O66  1  0.43250366  0.28033574  0.63372279  1.0
  O  O67  1  0.79875545  0.36651126  0.64676688  1.0
  O  O68  1  0.15224271  0.35353206  0.71991463  1.0
  O  O69  1  0.76793161  0.22299648  0.63213314  1.0
  O  O70  1  0.13568536  0.36804455  0.59109977  1.0
  O  O71  1  0.54469973  0.40906033  0.77709854  1.0
