# generated using pymatgen
data_ZnH14C24N5O8
_symmetry_space_group_name_H-M   'P 1'
_cell_length_a   17.15113672
_cell_length_b   17.81094223
_cell_length_c   19.23765936
_cell_angle_alpha   85.96743645
_cell_angle_beta   89.97956261
_cell_angle_gamma   89.94561599
_symmetry_Int_Tables_number   1
_chemical_formula_structural   ZnH14C24N5O8
_chemical_formula_sum   'Zn2 H28 C48 N10 O16'
_cell_volume   5862.12776838
_cell_formula_units_Z   2
loop_
 _symmetry_equiv_pos_site_id
 _symmetry_equiv_pos_as_xyz
  1  'x, y, z'
loop_
 _atom_site_type_symbol
 _atom_site_label
 _atom_site_symmetry_multiplicity
 _atom_site_fract_x
 _atom_site_fract_y
 _atom_site_fract_z
 _atom_site_occupancy
  Zn  Zn0  1  0.58433058  0.50175088  0.49771814  1.0
  Zn  Zn1  1  0.41447933  0.50305366  0.49862207  1.0
  H  H2  1  0.62124635  0.49180270  0.27987119  1.0
  H  H3  1  0.37471072  0.87300395  0.54856274  1.0
  H  H4  1  0.62571855  0.87976646  0.54439316  1.0
  H  H5  1  0.37543237  0.12327350  0.51628189  1.0
  H  H6  1  0.86715642  0.54988237  0.39059223  1.0
  H  H7  1  0.13036983  0.45593536  0.60436528  1.0
  H  H8  1  0.86868282  0.45375986  0.60353813  1.0
  H  H9  1  0.13228037  0.54619967  0.38958345  1.0
  H  H10  1  0.69420009  0.23167579  0.50742233  1.0
  H  H11  1  0.64764745  0.31902892  0.49006494  1.0
  H  H12  1  0.31227389  0.75978043  0.53602998  1.0
  H  H13  1  0.36976951  0.50121284  0.72367876  1.0
  H  H14  1  0.36211373  0.67670145  0.51857027  1.0
  H  H15  1  0.69452284  0.76799891  0.53717813  1.0
  H  H16  1  0.64826098  0.68081458  0.52461025  1.0
  H  H17  1  0.31289785  0.23824528  0.49997134  1.0
  H  H18  1  0.36232253  0.32420832  0.49264475  1.0
  H  H19  1  0.64742917  0.64434049  0.35064330  1.0
  H  H20  1  0.34611504  0.35994059  0.65086195  1.0
  H  H21  1  0.64879964  0.36033023  0.64709769  1.0
  H  H22  1  0.34962440  0.64376647  0.34931113  1.0
  H  H23  1  0.62045140  0.49289787  0.71843109  1.0
  H  H24  1  0.37049610  0.48347963  0.27731727  1.0
  H  H25  1  0.62423270  0.47047278  0.15337169  1.0
  H  H26  1  0.37292391  0.48437459  0.85318987  1.0
  H  H27  1  0.62386250  0.47770391  0.84787125  1.0
  H  H28  1  0.37328359  0.46280349  0.15057864  1.0
  H  H29  1  0.62645833  0.11832115  0.52196274  1.0
  C  C30  1  0.50613565  0.64784079  0.51227469  1.0
  C  C31  1  0.15975784  0.47563735  0.55637165  1.0
  C  C32  1  0.83932088  0.47456237  0.55586097  1.0
  C  C33  1  0.16078761  0.52653198  0.43801661  1.0
  C  C34  1  0.75739303  0.53006005  0.44209362  1.0
  C  C35  1  0.24086939  0.47416405  0.55398500  1.0
  C  C36  1  0.75826722  0.47294068  0.55311642  1.0
  C  C37  1  0.24179595  0.52858575  0.44189028  1.0
  C  C38  1  0.88180317  0.50160624  0.49689246  1.0
  C  C39  1  0.11732489  0.50104631  0.49687347  1.0
  C  C40  1  0.96400892  0.50148500  0.49652204  1.0
  C  C41  1  0.50589901  0.35502008  0.49410787  1.0
  C  C42  1  0.03512963  0.50117459  0.49647517  1.0
  C  C43  1  0.49381009  0.50284697  0.36273375  1.0
  C  C44  1  0.49273424  0.49583328  0.63453870  1.0
  C  C45  1  0.56708661  0.48571452  0.25140112  1.0
  C  C46  1  0.42521427  0.49526438  0.75094921  1.0
  C  C47  1  0.56634177  0.49067716  0.74797839  1.0
  C  C48  1  0.42583878  0.48094493  0.24993345  1.0
  C  C49  1  0.56886699  0.47391082  0.18074765  1.0
  C  C50  1  0.42690842  0.48636147  0.82328098  1.0
  C  C51  1  0.56840661  0.48250351  0.82032460  1.0
  C  C52  1  0.50431441  0.27203368  0.49746010  1.0
  C  C53  1  0.42728593  0.46946433  0.17925843  1.0
  C  C54  1  0.49887812  0.46600891  0.14389409  1.0
  C  C55  1  0.49850187  0.47795838  0.85859886  1.0
  C  C56  1  0.49563665  0.48980956  0.28653427  1.0
  C  C57  1  0.49477511  0.49488519  0.71257269  1.0
  C  C58  1  0.49981382  0.46265720  0.93445775  1.0
  C  C59  1  0.50005841  0.45562387  0.06900984  1.0
  C  C60  1  0.57230053  0.15029721  0.51683810  1.0
  C  C61  1  0.43037996  0.84403240  0.54459939  1.0
  C  C62  1  0.57171046  0.84777914  0.54249959  1.0
  C  C63  1  0.50415583  0.72770410  0.52761133  1.0
  C  C64  1  0.43092997  0.15311322  0.51363607  1.0
  C  C65  1  0.57514852  0.22872331  0.50218558  1.0
  C  C66  1  0.43140142  0.76628120  0.53600078  1.0
  C  C67  1  0.57486293  0.77007124  0.53377011  1.0
  C  C68  1  0.43168470  0.23162556  0.50010966  1.0
  C  C69  1  0.71811396  0.56625208  0.37817497  1.0
  C  C70  1  0.27741457  0.43849418  0.61950853  1.0
  C  C71  1  0.72025699  0.43729392  0.61784629  1.0
  C  C72  1  0.28000887  0.56504313  0.37754116  1.0
  C  C73  1  0.50070185  0.11264289  0.52328750  1.0
  C  C74  1  0.49999399  0.88511936  0.54554773  1.0
  C  C75  1  0.49904762  0.03337514  0.53677711  1.0
  C  C76  1  0.49850265  0.96477966  0.54473775  1.0
  C  C77  1  0.83844207  0.52873018  0.43847757  1.0
  N  N78  1  0.43154337  0.44415875  0.03634751  1.0
  N  N79  1  0.36197137  0.26766340  0.48761299  1.0
  N  N80  1  0.56944686  0.45509421  0.96746210  1.0
  N  N81  1  0.43139621  0.44755443  0.96785953  1.0
  N  N82  1  0.56961537  0.45131892  0.03603666  1.0
  N  N83  1  0.71574495  0.50140363  0.49782479  1.0
  N  N84  1  0.28348996  0.50164022  0.49832163  1.0
  N  N85  1  0.64649521  0.26172529  0.49196617  1.0
  N  N86  1  0.36178549  0.72894058  0.53693309  1.0
  N  N87  1  0.64631840  0.73738169  0.52909515  1.0
  O  O88  1  0.57212942  0.61289356  0.51340200  1.0
  O  O89  1  0.67594223  0.62660917  0.39284878  1.0
  O  O90  1  0.26020094  0.45824677  0.67693641  1.0
  O  O91  1  0.32193115  0.37890906  0.60687056  1.0
  O  O92  1  0.73427598  0.45855714  0.67540740  1.0
  O  O93  1  0.67687647  0.37741751  0.60445967  1.0
  O  O94  1  0.26545560  0.54582617  0.31939527  1.0
  O  O95  1  0.32329392  0.62474907  0.39224914  1.0
  O  O96  1  0.44164012  0.39069902  0.50228106  1.0
  O  O97  1  0.57158322  0.38968076  0.48550129  1.0
  O  O98  1  0.44214892  0.61518132  0.49674279  1.0
  O  O99  1  0.55845065  0.51628524  0.39217804  1.0
  O  O100  1  0.42634529  0.50455372  0.60499942  1.0
  O  O101  1  0.55720333  0.48560377  0.60354473  1.0
  O  O102  1  0.42730478  0.50000324  0.39270950  1.0
  O  O103  1  0.73028322  0.54510491  0.32024766  1.0
