# generated using pymatgen
data_ZnH8(C7O3)2
_symmetry_space_group_name_H-M   'P 1'
_cell_length_a   6.15079573
_cell_length_b   10.85883938
_cell_length_c   34.73476213
_cell_angle_alpha   87.57053826
_cell_angle_beta   87.34864829
_cell_angle_gamma   83.21741477
_symmetry_Int_Tables_number   1
_chemical_formula_structural   ZnH8(C7O3)2
_chemical_formula_sum   'Zn4 H32 C56 O24'
_cell_volume   2299.65474363
_cell_formula_units_Z   4
loop_
 _symmetry_equiv_pos_site_id
 _symmetry_equiv_pos_as_xyz
  1  'x, y, z'
loop_
 _atom_site_type_symbol
 _atom_site_label
 _atom_site_symmetry_multiplicity
 _atom_site_fract_x
 _atom_site_fract_y
 _atom_site_fract_z
 _atom_site_occupancy
  Zn  Zn0  1  0.71883347  0.01752060  0.49270929  1.0
  Zn  Zn1  1  0.14931791  0.98701081  0.50295482  1.0
  Zn  Zn2  1  0.87159035  0.97886446  0.00749208  1.0
  Zn  Zn3  1  0.44139752  0.00923828  0.99704617  1.0
  H  H4  1  0.10870815  0.04536897  0.11372356  1.0
  H  H5  1  0.05516450  0.05152767  0.18478225  1.0
  H  H6  1  0.75294581  0.95942435  0.19594379  1.0
  H  H7  1  0.80152190  0.95625423  0.12518280  1.0
  H  H8  1  0.83582799  0.03803225  0.30415745  1.0
  H  H9  1  0.53347894  0.94525495  0.31529058  1.0
  H  H10  1  0.48000824  0.95156595  0.38634541  1.0
  H  H11  1  0.78735447  0.04141090  0.37493484  1.0
  H  H12  1  0.35236876  0.04278815  0.87026101  1.0
  H  H13  1  0.44332870  0.04369110  0.79963382  1.0
  H  H14  1  0.12873505  0.96513350  0.82282791  1.0
  H  H15  1  0.03550713  0.96438916  0.89307124  1.0
  H  H16  1  0.46539147  0.02875199  0.67751862  1.0
  H  H17  1  0.15161878  0.95104009  0.70020972  1.0
  H  H18  1  0.24079394  0.95221987  0.62949066  1.0
  H  H19  1  0.55693156  0.02984701  0.60720343  1.0
  H  H20  1  0.19855524  0.72184912  0.44738561  1.0
  H  H21  1  0.49055137  0.59587547  0.41162010  1.0
  H  H22  1  0.19910964  0.26545848  0.44563101  1.0
  H  H23  1  0.49104892  0.36505101  0.41071651  1.0
  H  H24  1  0.39139090  0.73072266  0.05462711  1.0
  H  H25  1  0.09959517  0.63085455  0.08951397  1.0
  H  H26  1  0.39106307  0.27446673  0.05233364  1.0
  H  H27  1  0.09956839  0.40010869  0.08832226  1.0
  H  H28  1  0.65106189  0.08657904  0.23652087  1.0
  H  H29  1  0.93740371  0.91047909  0.26358636  1.0
  H  H30  1  0.09226868  0.10600411  0.77624698  1.0
  H  H31  1  0.50295677  0.88804829  0.72385631  1.0
  H  H32  1  0.49608257  0.32056811  0.51235100  1.0
  H  H33  1  0.49671376  0.73542689  0.51495419  1.0
  H  H34  1  0.09343890  0.26102342  0.98508297  1.0
  H  H35  1  0.09451629  0.67574377  0.98787174  1.0
  C  C36  1  0.84742008  0.77438467  0.49292508  1.0
  C  C37  1  0.09134853  0.99919537  0.42757328  1.0
  C  C38  1  0.85246131  0.24337657  0.49169416  1.0
  C  C39  1  0.95148209  0.99317226  0.57178565  1.0
  C  C40  1  0.73800805  0.75301759  0.00856793  1.0
  C  C41  1  0.49789913  0.99805812  0.07248990  1.0
  C  C42  1  0.74245229  0.22205194  0.00694724  1.0
  C  C43  1  0.64021716  0.00208303  0.92826364  1.0
  C  C44  1  0.45860685  0.00018380  0.11497181  1.0
  C  C45  1  0.24825571  0.02596682  0.13214941  1.0
  C  C46  1  0.21881857  0.02913091  0.17204935  1.0
  C  C47  1  0.39911084  0.00652537  0.19614096  1.0
  C  C48  1  0.61010452  0.98101819  0.17836391  1.0
  C  C49  1  0.63882956  0.97773878  0.13859276  1.0
  C  C50  1  0.38112603  0.01222574  0.23825920  1.0
  C  C51  1  0.20745232  0.98474083  0.26184102  1.0
  C  C52  1  0.97865506  0.01632003  0.32173729  1.0
  C  C53  1  0.18957765  0.99051801  0.30395827  1.0
  C  C54  1  0.36989075  0.96781171  0.32803081  1.0
  C  C55  1  0.34047640  0.97107075  0.36791940  1.0
  C  C56  1  0.13023403  0.99709142  0.38510352  1.0
  C  C57  1  0.94995104  0.01973916  0.36150328  1.0
  C  C58  1  0.68818761  0.00340610  0.88600940  1.0
  C  C59  1  0.52175515  0.02512624  0.85947286  1.0
  C  C60  1  0.57275872  0.02636442  0.82009356  1.0
  C  C61  1  0.79235624  0.00710691  0.80593774  1.0
  C  C62  1  0.95833001  0.98517020  0.83298932  1.0
  C  C63  1  0.90717979  0.98287980  0.87230392  1.0
  C  C64  1  0.85621677  0.01394598  0.76484337  1.0
  C  C65  1  0.73902358  0.98012428  0.73525979  1.0
  C  C66  1  0.63560206  0.00894798  0.66722866  1.0
  C  C67  1  0.80235051  0.98716172  0.69414207  1.0
  C  C68  1  0.02167963  0.96821561  0.67984413  1.0
  C  C69  1  0.07165460  0.96960645  0.64043036  1.0
  C  C70  1  0.90447011  0.99123521  0.61404341  1.0
  C  C71  1  0.68569694  0.01140715  0.62788754  1.0
  C  C72  1  0.84603816  0.64026356  0.48780098  1.0
  C  C73  1  0.02502767  0.56759980  0.46784561  1.0
  C  C74  1  0.66701035  0.58458716  0.50356395  1.0
  C  C75  1  0.19566261  0.62209305  0.44709898  1.0
  C  C76  1  0.36039415  0.55105167  0.42689601  1.0
  C  C77  1  0.84793503  0.37942807  0.48693818  1.0
  C  C78  1  0.66729224  0.45265352  0.50299623  1.0
  C  C79  1  0.02558996  0.43564945  0.46739498  1.0
  C  C80  1  0.19624729  0.36561217  0.44612235  1.0
  C  C81  1  0.36056300  0.42170415  0.42636634  1.0
  C  C82  1  0.74228698  0.61698576  0.01319916  1.0
  C  C83  1  0.56456388  0.56071212  0.03269105  1.0
  C  C84  1  0.92275905  0.54377917  0.99707159  1.0
  C  C85  1  0.39402614  0.63059745  0.05402958  1.0
  C  C86  1  0.22977823  0.57434870  0.07375116  1.0
  C  C87  1  0.74372821  0.35618860  0.01209180  1.0
  C  C88  1  0.92289912  0.41186912  0.99640475  1.0
  C  C89  1  0.56487354  0.42879123  0.03208769  1.0
  C  C90  1  0.39416145  0.37417776  0.05276048  1.0
  C  C91  1  0.22969668  0.44503194  0.07307459  1.0
  O  O92  1  0.65754592  0.84440640  0.49327229  1.0
  O  O93  1  0.02600200  0.81806152  0.49731513  1.0
  O  O94  1  0.25911689  0.98773162  0.44915860  1.0
  O  O95  1  0.89275429  0.01129284  0.44021318  1.0
  O  O96  1  0.03201993  0.17602461  0.49681509  1.0
  O  O97  1  0.66396335  0.19815362  0.49132368  1.0
  O  O98  1  0.78803077  0.00755361  0.55028901  1.0
  O  O99  1  0.15368685  0.98037019  0.55885761  1.0
  O  O100  1  0.92644538  0.79821552  0.00905317  1.0
  O  O101  1  0.55848625  0.82042251  0.00343487  1.0
  O  O102  1  0.33049648  0.00929767  0.05082500  1.0
  O  O103  1  0.69663056  0.98609830  0.05991728  1.0
  O  O104  1  0.56402740  0.17836954  0.00243032  1.0
  O  O105  1  0.93234630  0.15208217  0.00675051  1.0
  O  O106  1  0.80333649  0.98806507  0.94984610  1.0
  O  O107  1  0.43785987  0.01500736  0.94109783  1.0
  O  O108  1  0.56203967  0.04526987  0.25587894  1.0
  O  O109  1  0.02635382  0.95186809  0.24423478  1.0
  O  O110  1  0.05631531  0.05573332  0.75538129  1.0
  O  O111  1  0.53893239  0.93830415  0.74472471  1.0
  O  O112  1  0.48907815  0.40840686  0.51959501  1.0
  O  O113  1  0.48889550  0.64603523  0.52090369  1.0
  O  O114  1  0.10121899  0.35040199  0.97911989  1.0
  O  O115  1  0.10110221  0.58804403  0.98052645  1.0
