# generated using pymatgen
data_CuH3C7N6
_symmetry_space_group_name_H-M   'P 1'
_cell_length_a   32.49870777
_cell_length_b   32.73345032
_cell_length_c   32.77127133
_cell_angle_alpha   90.01469659
_cell_angle_beta   90.12042400
_cell_angle_gamma   89.89793297
_symmetry_Int_Tables_number   1
_chemical_formula_structural   CuH3C7N6
_chemical_formula_sum   'Cu12 H36 C84 N72'
_cell_volume   34861.77578735
_cell_formula_units_Z   12
loop_
 _symmetry_equiv_pos_site_id
 _symmetry_equiv_pos_as_xyz
  1  'x, y, z'
loop_
 _atom_site_type_symbol
 _atom_site_label
 _atom_site_symmetry_multiplicity
 _atom_site_fract_x
 _atom_site_fract_y
 _atom_site_fract_z
 _atom_site_occupancy
  Cu  Cu0  1  0.37442999  0.58625534  0.66393223  1.0
  Cu  Cu1  1  0.33446996  0.62555105  0.58406838  1.0
  Cu  Cu2  1  0.41469851  0.66451908  0.62381988  1.0
  Cu  Cu3  1  0.62376731  0.91490603  0.16298050  1.0
  Cu  Cu4  1  0.66516292  0.87382272  0.08549594  1.0
  Cu  Cu5  1  0.58479968  0.83456907  0.12429955  1.0
  Cu  Cu6  1  0.87541049  0.41409572  0.83623735  1.0
  Cu  Cu7  1  0.83522491  0.37399672  0.91489941  1.0
  Cu  Cu8  1  0.91488730  0.33425808  0.87523965  1.0
  Cu  Cu9  1  0.12399155  0.08568483  0.33702206  1.0
  Cu  Cu10  1  0.16507541  0.12635266  0.41489570  1.0
  Cu  Cu11  1  0.08447602  0.16571925  0.37588429  1.0
  H  H12  1  0.30945495  0.51593775  0.68204746  1.0
  H  H13  1  0.26449506  0.55978312  0.56530059  1.0
  H  H14  1  0.48634845  0.68276373  0.68821679  1.0
  H  H15  1  0.43901062  0.56843323  0.73554753  1.0
  H  H16  1  0.31571917  0.69133567  0.51434639  1.0
  H  H17  1  0.43356131  0.73458682  0.55902097  1.0
  H  H18  1  0.68775581  0.98686978  0.18053983  1.0
  H  H19  1  0.73751995  0.93732644  0.06821234  1.0
  H  H20  1  0.51554514  0.81517114  0.19051645  1.0
  H  H21  1  0.55813145  0.93334483  0.23284609  1.0
  H  H22  1  0.68383355  0.80882280  0.01532595  1.0
  H  H23  1  0.56574876  0.76512259  0.05842530  1.0
  H  H24  1  0.80964941  0.48429687  0.81767318  1.0
  H  H25  1  0.76508444  0.43956321  0.93400922  1.0
  H  H26  1  0.98478904  0.31524460  0.80945742  1.0
  H  H27  1  0.94161844  0.43330728  0.76704233  1.0
  H  H28  1  0.81612130  0.30842924  0.98440044  1.0
  H  H29  1  0.93390436  0.26423044  0.94057241  1.0
  H  H30  1  0.18838557  0.01411474  0.31916757  1.0
  H  H31  1  0.23734216  0.06232940  0.43254517  1.0
  H  H32  1  0.01446676  0.18468710  0.31001961  1.0
  H  H33  1  0.05849174  0.06724499  0.26687505  1.0
  H  H34  1  0.18366248  0.19142584  0.48507764  1.0
  H  H35  1  0.06558991  0.23543388  0.44138182  1.0
  H  H36  1  0.82122680  0.12410281  0.07052152  1.0
  H  H37  1  0.92875813  0.17882394  0.12493501  1.0
  H  H38  1  0.87488836  0.07147428  0.17892598  1.0
  H  H39  1  0.17861140  0.37518223  0.57129124  1.0
  H  H40  1  0.07118180  0.32111160  0.62603803  1.0
  H  H41  1  0.12543408  0.42889461  0.67916024  1.0
  H  H42  1  0.32173365  0.87589428  0.42907829  1.0
  H  H43  1  0.42928150  0.82100187  0.37496581  1.0
  H  H44  1  0.37525893  0.92860970  0.32098400  1.0
  H  H45  1  0.62509370  0.57100101  0.82142717  1.0
  H  H46  1  0.57146052  0.67935473  0.87413752  1.0
  H  H47  1  0.67887162  0.62465208  0.92917169  1.0
  C  C48  1  0.30373649  0.53226790  0.65379210  1.0
  C  C49  1  0.27390963  0.52466681  0.62366445  1.0
  C  C50  1  0.28103213  0.55437797  0.59358823  1.0
  C  C51  1  0.46920990  0.65505978  0.69449696  1.0
  C  C52  1  0.47585096  0.62564593  0.72504460  1.0
  C  C53  1  0.44524871  0.59608729  0.71842122  1.0
  C  C54  1  0.34423478  0.69662661  0.53077697  1.0
  C  C55  1  0.37471449  0.72614733  0.52365181  1.0
  C  C56  1  0.40499458  0.71843876  0.55334300  1.0
  C  C57  1  0.69455918  0.96923930  0.15333862  1.0
  C  C58  1  0.72578599  0.97523157  0.12437007  1.0
  C  C59  1  0.71976076  0.94417212  0.09537131  1.0
  C  C60  1  0.53147960  0.84383412  0.19558013  1.0
  C  C61  1  0.52378183  0.87419027  0.22492217  1.0
  C  C62  1  0.55296022  0.90475797  0.21689007  1.0
  C  C63  1  0.65524106  0.80338278  0.03145299  1.0
  C  C64  1  0.62480026  0.77393722  0.02371918  1.0
  C  C65  1  0.59435524  0.78132930  0.05320081  1.0
  C  C66  1  0.80408462  0.46779853  0.84582652  1.0
  C  C67  1  0.77426032  0.47513269  0.87592342  1.0
  C  C68  1  0.78158696  0.44526287  0.90583737  1.0
  C  C69  1  0.96864710  0.34383902  0.80433474  1.0
  C  C70  1  0.97636052  0.37429541  0.77514583  1.0
  C  C71  1  0.94685481  0.40470607  0.78295979  1.0
  C  C72  1  0.84463417  0.30288229  0.96813650  1.0
  C  C73  1  0.87501066  0.27319189  0.97554818  1.0
  C  C74  1  0.90536240  0.28057644  0.94600669  1.0
  C  C75  1  0.19500196  0.03142962  0.34662465  1.0
  C  C76  1  0.22608835  0.02509046  0.37582014  1.0
  C  C77  1  0.21979939  0.05582602  0.40510327  1.0
  C  C78  1  0.03080419  0.15623996  0.30476283  1.0
  C  C79  1  0.02342589  0.12602371  0.27520333  1.0
  C  C80  1  0.05301187  0.09566442  0.28302700  1.0
  C  C81  1  0.15506233  0.19690829  0.46882665  1.0
  C  C82  1  0.12461601  0.22646671  0.47639014  1.0
  C  C83  1  0.09418973  0.21913953  0.44677574  1.0
  C  C84  1  0.84470710  0.09442142  0.12472009  1.0
  C  C85  1  0.84472064  0.12438867  0.09427668  1.0
  C  C86  1  0.87495372  0.15479895  0.09438573  1.0
  C  C87  1  0.90519701  0.15519708  0.12485796  1.0
  C  C88  1  0.90511367  0.12519530  0.15526707  1.0
  C  C89  1  0.87486427  0.09480976  0.15524680  1.0
  C  C90  1  0.15530246  0.40538216  0.62514750  1.0
  C  C91  1  0.15516399  0.37511545  0.59498296  1.0
  C  C92  1  0.12486876  0.34480047  0.59531477  1.0
  C  C93  1  0.09476129  0.34471585  0.62578525  1.0
  C  C94  1  0.09499056  0.37497494  0.65597404  1.0
  C  C95  1  0.12526017  0.40534093  0.65568218  1.0
  C  C96  1  0.34513186  0.90562798  0.37503819  1.0
  C  C97  1  0.34519354  0.87557094  0.40539687  1.0
  C  C98  1  0.37543454  0.84506665  0.40532289  1.0
  C  C99  1  0.40569993  0.84468664  0.37499903  1.0
  C  C100  1  0.40560064  0.87477912  0.34464884  1.0
  C  C101  1  0.37527972  0.90522137  0.34462196  1.0
  C  C102  1  0.65530154  0.59453425  0.87531111  1.0
  C  C103  1  0.62506004  0.59462889  0.84483198  1.0
  C  C104  1  0.59488368  0.62517626  0.84444653  1.0
  C  C105  1  0.59494215  0.65556820  0.87448127  1.0
  C  C106  1  0.62515157  0.65536511  0.90499266  1.0
  C  C107  1  0.65535222  0.62484188  0.90543889  1.0
  C  C108  1  0.75718178  0.00646922  0.12447105  1.0
  C  C109  1  0.81294060  0.06239138  0.12463647  1.0
  C  C110  1  0.24281822  0.49317183  0.62390890  1.0
  C  C111  1  0.18717374  0.43722464  0.62472470  1.0
  C  C112  1  0.25752601  0.99378679  0.37563272  1.0
  C  C113  1  0.31333318  0.93773062  0.37519665  1.0
  C  C114  1  0.74289939  0.50647412  0.87588620  1.0
  C  C115  1  0.68711441  0.56251074  0.87558538  1.0
  C  C116  1  0.99233249  0.12593624  0.24362700  1.0
  C  C117  1  0.93686307  0.12552562  0.18731664  1.0
  C  C118  1  0.50722324  0.62560804  0.75640016  1.0
  C  C119  1  0.56306189  0.62534664  0.81240399  1.0
  C  C120  1  0.00768486  0.37444338  0.74390747  1.0
  C  C121  1  0.06334418  0.37481088  0.68800521  1.0
  C  C122  1  0.49278017  0.87419314  0.25649612  1.0
  C  C123  1  0.43736119  0.87449687  0.31270013  1.0
  C  C124  1  0.87498143  0.24195822  0.00672506  1.0
  C  C125  1  0.87494488  0.18640183  0.06245481  1.0
  C  C126  1  0.37490059  0.75756451  0.49266437  1.0
  C  C127  1  0.37529771  0.81335591  0.43715834  1.0
  C  C128  1  0.62487826  0.74290082  0.99232818  1.0
  C  C129  1  0.62509448  0.68726986  0.93663328  1.0
  C  C130  1  0.12463313  0.25751547  0.50775175  1.0
  C  C131  1  0.12473759  0.31299650  0.56356158  1.0
  N  N132  1  0.31261094  0.57815280  0.60520302  1.0
  N  N133  1  0.32711417  0.56400998  0.64228790  1.0
  N  N134  1  0.42191257  0.60731234  0.68644253  1.0
  N  N135  1  0.43716531  0.64361813  0.67120572  1.0
  N  N136  1  0.39320230  0.68680751  0.57663342  1.0
  N  N137  1  0.35576973  0.67286548  0.56221296  1.0
  N  N138  1  0.68746379  0.92119268  0.10649680  1.0
  N  N139  1  0.67144436  0.93712730  0.14216994  1.0
  N  N140  1  0.57651534  0.89324942  0.18527126  1.0
  N  N141  1  0.56275622  0.85570664  0.17162212  1.0
  N  N142  1  0.60605168  0.81268409  0.07696998  1.0
  N  N143  1  0.64355986  0.82679078  0.06306549  1.0
  N  N144  1  0.81328642  0.42164084  0.89415495  1.0
  N  N145  1  0.82768329  0.43605594  0.85721928  1.0
  N  N146  1  0.92309402  0.39299271  0.81431510  1.0
  N  N147  1  0.93704696  0.35549990  0.82802174  1.0
  N  N148  1  0.89368478  0.31216504  0.92250043  1.0
  N  N149  1  0.85628889  0.32642758  0.93666774  1.0
  N  N150  1  0.18751703  0.07897531  0.39391671  1.0
  N  N151  1  0.17175203  0.06345031  0.35791582  1.0
  N  N152  1  0.07652026  0.10718102  0.31474445  1.0
  N  N153  1  0.06231696  0.14448867  0.32864660  1.0
  N  N154  1  0.10589815  0.18770518  0.42311302  1.0
  N  N155  1  0.14340996  0.17349157  0.43719109  1.0
  N  N156  1  0.76687788  0.02407282  0.16076177  1.0
  N  N157  1  0.77503580  0.01609145  0.08830153  1.0
  N  N158  1  0.80341216  0.04482478  0.08844064  1.0
  N  N159  1  0.79550733  0.05255691  0.16078071  1.0
  N  N160  1  0.23169607  0.47758153  0.66066874  1.0
  N  N161  1  0.22690242  0.48111207  0.58751684  1.0
  N  N162  1  0.19848653  0.45243800  0.58803404  1.0
  N  N163  1  0.20318386  0.44902812  0.66101829  1.0
  N  N164  1  0.27507849  0.98350884  0.41185458  1.0
  N  N165  1  0.26748128  0.97671723  0.33917846  1.0
  N  N166  1  0.29613704  0.94816598  0.33901692  1.0
  N  N167  1  0.30350633  0.95472873  0.41156170  1.0
  N  N168  1  0.72730954  0.51842910  0.91240277  1.0
  N  N169  1  0.73108188  0.52190731  0.83921224  1.0
  N  N170  1  0.70251730  0.55051142  0.83914539  1.0
  N  N171  1  0.69882835  0.54715330  0.91216276  1.0
  N  N172  1  0.98058225  0.08918023  0.22835222  1.0
  N  N173  1  0.97695055  0.16249761  0.23125033  1.0
  N  N174  1  0.94863124  0.16219976  0.20239949  1.0
  N  N175  1  0.95218417  0.08905712  0.19960657  1.0
  N  N176  1  0.52409582  0.66199819  0.76712110  1.0
  N  N177  1  0.51779694  0.58908480  0.77309004  1.0
  N  N178  1  0.54643378  0.58902009  0.80162610  1.0
  N  N179  1  0.55254964  0.66178985  0.79585760  1.0
  N  N180  1  0.01975883  0.41121196  0.72897218  1.0
  N  N181  1  0.02304406  0.33786671  0.73159357  1.0
  N  N182  1  0.05146941  0.33814529  0.70297778  1.0
  N  N183  1  0.04824642  0.41131305  0.70042205  1.0
  N  N184  1  0.47793123  0.83758560  0.26916146  1.0
  N  N185  1  0.48060688  0.91093756  0.27153449  1.0
  N  N186  1  0.45227256  0.91100819  0.30022650  1.0
  N  N187  1  0.44963566  0.83783404  0.29792956  1.0
  N  N188  1  0.83805067  0.23004605  0.02191237  1.0
  N  N189  1  0.91188581  0.22653502  0.01874269  1.0
  N  N190  1  0.91178389  0.19819117  0.04730027  1.0
  N  N191  1  0.83812156  0.20158279  0.05035242  1.0
  N  N192  1  0.33808612  0.76973417  0.47714970  1.0
  N  N193  1  0.41188569  0.77295785  0.48117456  1.0
  N  N194  1  0.41201298  0.80141657  0.45272966  1.0
  N  N195  1  0.33838153  0.79831482  0.44883327  1.0
  N  N196  1  0.58800398  0.72769445  0.98008706  1.0
  N  N197  1  0.66182468  0.73110754  0.97698076  1.0
  N  N198  1  0.66185947  0.70259535  0.94857276  1.0
  N  N199  1  0.58820587  0.69930388  0.95156403  1.0
  N  N200  1  0.16154949  0.26905098  0.52341726  1.0
  N  N201  1  0.08775215  0.27305112  0.51955658  1.0
  N  N202  1  0.08789263  0.30136080  0.54817079  1.0
  N  N203  1  0.16152256  0.29749046  0.55188567  1.0
