# generated using pymatgen
data_Zn4H12C48O13F12
_symmetry_space_group_name_H-M   'P 1'
_cell_length_a   28.29678773
_cell_length_b   28.29652177
_cell_length_c   28.29633731
_cell_angle_alpha   120.00693038
_cell_angle_beta   120.00592748
_cell_angle_gamma   59.99439849
_symmetry_Int_Tables_number   1
_chemical_formula_structural   Zn4H12C48O13F12
_chemical_formula_sum   'Zn8 H24 C96 O26 F24'
_cell_volume   16018.60986960
_cell_formula_units_Z   2
loop_
 _symmetry_equiv_pos_site_id
 _symmetry_equiv_pos_as_xyz
  1  'x, y, z'
loop_
 _atom_site_type_symbol
 _atom_site_label
 _atom_site_symmetry_multiplicity
 _atom_site_fract_x
 _atom_site_fract_y
 _atom_site_fract_z
 _atom_site_occupancy
  Zn  Zn0  1  0.02837714  0.02841723  0.47160737  1.0
  Zn  Zn1  1  0.91478207  0.02845459  0.47155867  1.0
  Zn  Zn2  1  0.02832402  0.02843288  0.58512699  1.0
  Zn  Zn3  1  0.02835049  0.91488699  0.47159949  1.0
  Zn  Zn4  1  0.47168102  0.47158321  0.02848340  1.0
  Zn  Zn5  1  0.47160337  0.47159423  0.91490044  1.0
  Zn  Zn6  1  0.58517472  0.47160432  0.02845152  1.0
  Zn  Zn7  1  0.47162577  0.58514834  0.02846770  1.0
  H  H8  1  0.30540713  0.77122890  0.19467522  1.0
  H  H9  1  0.30535262  0.61790700  0.19464879  1.0
  H  H10  1  0.19465336  0.88199471  0.30540923  1.0
  H  H11  1  0.19464308  0.72867948  0.30544895  1.0
  H  H12  1  0.61791194  0.30542328  0.72877227  1.0
  H  H13  1  0.77131122  0.30544404  0.88209342  1.0
  H  H14  1  0.72866524  0.19469256  0.61796641  1.0
  H  H15  1  0.88204450  0.19467573  0.77128696  1.0
  H  H16  1  0.30549722  0.30525578  0.72886038  1.0
  H  H17  1  0.30551308  0.30525297  0.88221088  1.0
  H  H18  1  0.19479572  0.19449669  0.61807989  1.0
  H  H19  1  0.19470162  0.19448579  0.77137132  1.0
  H  H20  1  0.61795056  0.77126699  0.19455466  1.0
  H  H21  1  0.77132632  0.61793773  0.19460191  1.0
  H  H22  1  0.72871308  0.88202550  0.30542904  1.0
  H  H23  1  0.88209627  0.72870082  0.30541940  1.0
  H  H24  1  0.77141529  0.30535980  0.19458548  1.0
  H  H25  1  0.61814187  0.30531954  0.19466759  1.0
  H  H26  1  0.88221076  0.19463051  0.30539916  1.0
  H  H27  1  0.72880270  0.19467502  0.30529116  1.0
  H  H28  1  0.30552755  0.61798332  0.72876253  1.0
  H  H29  1  0.30550817  0.77133172  0.88214478  1.0
  H  H30  1  0.19462006  0.72877480  0.61797006  1.0
  H  H31  1  0.19462073  0.88216535  0.77132148  1.0
  C  C32  1  0.90959327  0.09049232  0.40952848  1.0
  C  C33  1  0.90948205  0.09052791  0.59039872  1.0
  C  C34  1  0.09042887  0.09045800  0.59045553  1.0
  C  C35  1  0.09039618  0.90962290  0.59043873  1.0
  C  C36  1  0.09040372  0.90957706  0.40954010  1.0
  C  C37  1  0.90953088  0.90959773  0.40951203  1.0
  C  C38  1  0.40966056  0.40945056  0.90971025  1.0
  C  C39  1  0.59048302  0.40950854  0.90966206  1.0
  C  C40  1  0.59052517  0.40951852  0.09048926  1.0
  C  C41  1  0.59049391  0.59039708  0.09056651  1.0
  C  C42  1  0.40965410  0.59036224  0.09058850  1.0
  C  C43  1  0.40958331  0.59044625  0.90962488  1.0
  C  C44  1  0.37216185  0.62781708  0.12799143  1.0
  C  C45  1  0.35299506  0.68903878  0.14712463  1.0
  C  C46  1  0.31835276  0.72447003  0.18171797  1.0
  C  C47  1  0.30056974  0.69938690  0.19949628  1.0
  C  C48  1  0.31833607  0.63873480  0.18170751  1.0
  C  C49  1  0.35296834  0.60490803  0.14710575  1.0
  C  C50  1  0.26525489  0.73471476  0.23480591  1.0
  C  C51  1  0.23477787  0.76519362  0.26529163  1.0
  C  C52  1  0.19947067  0.80051242  0.30060820  1.0
  C  C53  1  0.18168503  0.86116311  0.31836421  1.0
  C  C54  1  0.14706184  0.89500024  0.35297683  1.0
  C  C55  1  0.12788928  0.87210947  0.37212941  1.0
  C  C56  1  0.14705214  0.81088498  0.35300042  1.0
  C  C57  1  0.18168258  0.77543980  0.31839415  1.0
  C  C58  1  0.62791928  0.37209611  0.87219644  1.0
  C  C59  1  0.60499232  0.35295794  0.81097303  1.0
  C  C60  1  0.63879024  0.31836523  0.77553189  1.0
  C  C61  1  0.69944642  0.30060185  0.80060471  1.0
  C  C62  1  0.72455006  0.31838130  0.86125947  1.0
  C  C63  1  0.68914324  0.35297291  0.89509067  1.0
  C  C64  1  0.73474101  0.26530060  0.76527272  1.0
  C  C65  1  0.76522075  0.23482644  0.73478370  1.0
  C  C66  1  0.80052286  0.19951980  0.69945781  1.0
  C  C67  1  0.77542100  0.18173843  0.63880449  1.0
  C  C68  1  0.81082531  0.14711894  0.60497290  1.0
  C  C69  1  0.87204703  0.12797019  0.62786771  1.0
  C  C70  1  0.89497652  0.14711419  0.68909331  1.0
  C  C71  1  0.86117689  0.18172557  0.72453062  1.0
  C  C72  1  0.37222994  0.37198271  0.87226395  1.0
  C  C73  1  0.35306965  0.35282824  0.81104034  1.0
  C  C74  1  0.31844824  0.31821316  0.77562152  1.0
  C  C75  1  0.30068717  0.30042546  0.80071815  1.0
  C  C76  1  0.31846469  0.31821818  0.86137376  1.0
  C  C77  1  0.35308434  0.35283335  0.89518782  1.0
  C  C78  1  0.26536527  0.26511358  0.76538825  1.0
  C  C79  1  0.23488927  0.23463274  0.73489668  1.0
  C  C80  1  0.19956933  0.19931925  0.69955566  1.0
  C  C81  1  0.18179863  0.18156034  0.63890439  1.0
  C  C82  1  0.14715689  0.14696443  0.60505411  1.0
  C  C83  1  0.12795015  0.12783308  0.62793452  1.0
  C  C84  1  0.14710101  0.14695952  0.68915859  1.0
  C  C85  1  0.18174932  0.18154772  0.72461350  1.0
  C  C86  1  0.62793675  0.62785412  0.12793102  1.0
  C  C87  1  0.60501232  0.68907636  0.14703068  1.0
  C  C88  1  0.63881566  0.72450934  0.18163154  1.0
  C  C89  1  0.69946893  0.69942831  0.19942029  1.0
  C  C90  1  0.72456927  0.63877590  0.18165162  1.0
  C  C91  1  0.68915930  0.60495018  0.14705513  1.0
  C  C92  1  0.73477563  0.73474550  0.23474701  1.0
  C  C93  1  0.76526918  0.76521975  0.26525648  1.0
  C  C94  1  0.80057846  0.80053435  0.30058861  1.0
  C  C95  1  0.77547194  0.86118694  0.31837195  1.0
  C  C96  1  0.81087631  0.89501933  0.35298510  1.0
  C  C97  1  0.87209900  0.87212832  0.37212314  1.0
  C  C98  1  0.89502877  0.81090250  0.35298393  1.0
  C  C99  1  0.86123311  0.77546007  0.31837061  1.0
  C  C100  1  0.62799310  0.37206368  0.12790935  1.0
  C  C101  1  0.68921200  0.35293219  0.14702780  1.0
  C  C102  1  0.72465974  0.31831434  0.18163610  1.0
  C  C103  1  0.69959000  0.30053678  0.19943293  1.0
  C  C104  1  0.63894625  0.31829427  0.18168674  1.0
  C  C105  1  0.60509598  0.35290493  0.14706725  1.0
  C  C106  1  0.73492682  0.26523203  0.23474728  1.0
  C  C107  1  0.76541488  0.23475980  0.26522796  1.0
  C  C108  1  0.80070915  0.19945519  0.30054146  1.0
  C  C109  1  0.86135991  0.18167468  0.31834344  1.0
  C  C110  1  0.89514451  0.14706183  0.35295875  1.0
  C  C111  1  0.87218038  0.12793098  0.37208072  1.0
  C  C112  1  0.81095738  0.14708835  0.35290202  1.0
  C  C113  1  0.77556910  0.18170187  0.31828390  1.0
  C  C114  1  0.37220005  0.62791147  0.87217319  1.0
  C  C115  1  0.35306432  0.60502041  0.81094295  1.0
  C  C116  1  0.31845211  0.63884610  0.77552503  1.0
  C  C117  1  0.30066621  0.69950465  0.80061443  1.0
  C  C118  1  0.31844845  0.72457298  0.86127637  1.0
  C  C119  1  0.35305145  0.68913987  0.89508542  1.0
  C  C120  1  0.26532716  0.73482576  0.76529645  1.0
  C  C121  1  0.23482021  0.76531193  0.73481171  1.0
  C  C122  1  0.19947792  0.80063098  0.69949367  1.0
  C  C123  1  0.18166876  0.77553643  0.63883487  1.0
  C  C124  1  0.14702900  0.81095011  0.60500637  1.0
  C  C125  1  0.12786077  0.87217636  0.62789860  1.0
  C  C126  1  0.14702774  0.89509541  0.68912371  1.0
  C  C127  1  0.18166758  0.86129192  0.72456184  1.0
  O  O128  1  0.99994308  0.00005570  0.49996375  1.0
  O  O129  1  0.96413045  0.07608405  0.42393740  1.0
  O  O130  1  0.88373242  0.07613930  0.53586097  1.0
  O  O131  1  0.07600097  0.07608625  0.61618861  1.0
  O  O132  1  0.88380929  0.07612420  0.42390026  1.0
  O  O133  1  0.07605216  0.07608448  0.53592438  1.0
  O  O134  1  0.96401598  0.07612055  0.61615897  1.0
  O  O135  1  0.07599729  0.96415978  0.61618974  1.0
  O  O136  1  0.07600679  0.88382364  0.42391886  1.0
  O  O137  1  0.07602718  0.88384857  0.53590438  1.0
  O  O138  1  0.07603566  0.96411031  0.42393871  1.0
  O  O139  1  0.88376951  0.96413310  0.42386775  1.0
  O  O140  1  0.96406494  0.88383390  0.42391115  1.0
  O  O141  1  0.50001331  0.49998666  0.00006936  1.0
  O  O142  1  0.42405923  0.42384843  0.96424675  1.0
  O  O143  1  0.53594744  0.42389056  0.88391183  1.0
  O  O144  1  0.61624801  0.42392821  0.07609242  1.0
  O  O145  1  0.42401731  0.42385954  0.88394842  1.0
  O  O146  1  0.53599811  0.42389817  0.07612404  1.0
  O  O147  1  0.61625402  0.42388872  0.96419575  1.0
  O  O148  1  0.61625534  0.53586306  0.07618964  1.0
  O  O149  1  0.42403896  0.61611783  0.07620191  1.0
  O  O150  1  0.53595940  0.61614795  0.07620439  1.0
  O  O151  1  0.42406925  0.53582785  0.07622072  1.0
  O  O152  1  0.42392837  0.53590970  0.88385258  1.0
  O  O153  1  0.42395714  0.61619583  0.96416583  1.0
  F  F154  1  0.36819384  0.71645720  0.13192831  1.0
  F  F155  1  0.36814724  0.54709031  0.13190290  1.0
  F  F156  1  0.13186327  0.95281712  0.36815435  1.0
  F  F157  1  0.13186000  0.78347230  0.36820797  1.0
  F  F158  1  0.54716874  0.36814798  0.78356546  1.0
  F  F159  1  0.71659427  0.36816785  0.95290607  1.0
  F  F160  1  0.78338518  0.13193183  0.54715533  1.0
  F  F161  1  0.95279748  0.13191652  0.71651274  1.0
  F  F162  1  0.36826655  0.36802025  0.78361601  1.0
  F  F163  1  0.36827955  0.36802688  0.95300744  1.0
  F  F164  1  0.13198948  0.13177031  0.54723790  1.0
  F  F165  1  0.13188310  0.13176095  0.71655838  1.0
  F  F166  1  0.54719152  0.71649190  0.13181174  1.0
  F  F167  1  0.71659853  0.54713254  0.13186422  1.0
  F  F168  1  0.78343563  0.95283735  0.36819188  1.0
  F  F169  1  0.95284869  0.78348183  0.36817973  1.0
  F  F170  1  0.71660293  0.36813396  0.13180416  1.0
  F  F171  1  0.54728314  0.36808841  0.13189365  1.0
  F  F172  1  0.95296679  0.13185690  0.36818137  1.0
  F  F173  1  0.78349503  0.13191028  0.36806590  1.0
  F  F174  1  0.36827869  0.54720158  0.78349544  1.0
  F  F175  1  0.36825273  0.71657088  0.95290659  1.0
  F  F176  1  0.13182300  0.78350509  0.54718719  1.0
  F  F177  1  0.13182466  0.95291674  0.71654822  1.0
