# generated using pymatgen
data_Zn4H42C64N4O25
_symmetry_space_group_name_H-M   'P 1'
_cell_length_a   11.13712211
_cell_length_b   14.07975424
_cell_length_c   26.62038056
_cell_angle_alpha   90.02260547
_cell_angle_beta   89.76736901
_cell_angle_gamma   89.90650511
_symmetry_Int_Tables_number   1
_chemical_formula_structural   Zn4H42C64N4O25
_chemical_formula_sum   'Zn4 H42 C64 N4 O25'
_cell_volume   4174.24679754
_cell_formula_units_Z   1
loop_
 _symmetry_equiv_pos_site_id
 _symmetry_equiv_pos_as_xyz
  1  'x, y, z'
loop_
 _atom_site_type_symbol
 _atom_site_label
 _atom_site_symmetry_multiplicity
 _atom_site_fract_x
 _atom_site_fract_y
 _atom_site_fract_z
 _atom_site_occupancy
  Zn  Zn0  1  0.50308875  0.39990606  0.49891706  1.0
  Zn  Zn1  1  0.50159056  0.59804987  0.50000766  1.0
  Zn  Zn2  1  0.50336101  0.60150127  0.08041482  1.0
  Zn  Zn3  1  0.50258854  0.40353323  0.08121195  1.0
  H  H4  1  0.63148160  0.24742802  0.44376023  1.0
  H  H5  1  0.36821287  0.75008474  0.55426209  1.0
  H  H6  1  0.63457823  0.75130567  0.44569163  1.0
  H  H7  1  0.63725590  0.92607240  0.44341818  1.0
  H  H8  1  0.36888037  0.24716684  0.55395728  1.0
  H  H9  1  0.36439744  0.07224787  0.55587420  1.0
  H  H10  1  0.50097847  0.65511105  0.24313431  1.0
  H  H11  1  0.42168264  0.27986749  0.24251279  1.0
  H  H12  1  0.58188991  0.27861428  0.24227285  1.0
  H  H13  1  0.58223371  0.28040934  0.33678913  1.0
  H  H14  1  0.42194485  0.28121357  0.33729803  1.0
  H  H15  1  0.49779890  0.34725033  0.65974885  1.0
  H  H16  1  0.49952821  0.65192748  0.92012948  1.0
  H  H17  1  0.50005853  0.34811584  0.91936072  1.0
  H  H18  1  0.49983463  0.34930506  0.82752880  1.0
  H  H19  1  0.50006433  0.65117606  0.66082290  1.0
  H  H20  1  0.50056118  0.64961901  0.75259002  1.0
  H  H21  1  0.89020024  0.34501075  0.49979261  1.0
  H  H22  1  0.88812285  0.72088310  0.46607409  1.0
  H  H23  1  0.88556281  0.72103032  0.53314806  1.0
  H  H24  1  0.11161066  0.71948200  0.53412296  1.0
  H  H25  1  0.11426636  0.71988595  0.46703509  1.0
  H  H26  1  0.63188142  0.75287895  0.13443470  1.0
  H  H27  1  0.37024346  0.25245064  0.02601034  1.0
  H  H28  1  0.63415279  0.24946122  0.13456020  1.0
  H  H29  1  0.63836244  0.07424664  0.13565301  1.0
  H  H30  1  0.36944963  0.75534689  0.02513693  1.0
  H  H31  1  0.36600030  0.93031606  0.02345338  1.0
  H  H32  1  0.89012161  0.65564540  0.07986733  1.0
  H  H33  1  0.88903312  0.28004280  0.11427978  1.0
  H  H34  1  0.88769567  0.27938201  0.04724483  1.0
  H  H35  1  0.11380966  0.28113840  0.04618420  1.0
  H  H36  1  0.11533815  0.28075588  0.11324594  1.0
  H  H37  1  0.70080230  0.11424066  0.41647282  1.0
  H  H38  1  0.29987811  0.88320031  0.58229650  1.0
  H  H39  1  0.49984756  0.27680406  0.72895205  1.0
  H  H40  1  0.50164086  0.72219345  0.85095987  1.0
  H  H41  1  0.70142358  0.88529103  0.16187964  1.0
  H  H42  1  0.30214140  0.11989120  0.99764975  1.0
  H  H43  1  0.49829964  0.65859254  0.37596963  1.0
  H  H44  1  0.20764425  0.34244357  0.49830576  1.0
  H  H45  1  0.20778487  0.65803466  0.08167156  1.0
  C  C46  1  0.49735067  0.49884173  0.59772505  1.0
  C  C47  1  0.26303988  0.49953672  0.49935269  1.0
  C  C48  1  0.50168984  0.50112008  0.39948204  1.0
  C  C49  1  0.73689799  0.49606771  0.49856309  1.0
  C  C50  1  0.49839863  0.50115533  0.98233083  1.0
  C  C51  1  0.26355772  0.50105362  0.08056562  1.0
  C  C52  1  0.50241998  0.50335808  0.17919652  1.0
  C  C53  1  0.73774508  0.50443469  0.08055401  1.0
  C  C54  1  0.57305330  0.20547228  0.46830369  1.0
  C  C55  1  0.57772540  0.10624657  0.46697871  1.0
  C  C56  1  0.42723127  0.79231605  0.53009789  1.0
  C  C57  1  0.42296134  0.89154810  0.53182114  1.0
  C  C58  1  0.57500008  0.79297722  0.46965359  1.0
  C  C59  1  0.57572144  0.89133461  0.46896597  1.0
  C  C60  1  0.42695788  0.20526079  0.52946170  1.0
  C  C61  1  0.42581995  0.10687631  0.53021087  1.0
  C  C62  1  0.50144132  0.05166602  0.49891843  1.0
  C  C63  1  0.49953400  0.94634028  0.50010639  1.0
  C  C64  1  0.50276333  0.50264579  0.23538651  1.0
  C  C65  1  0.50234851  0.50216897  0.34403915  1.0
  C  C66  1  0.50297323  0.41835880  0.26316584  1.0
  C  C67  1  0.50189480  0.58857541  0.31584503  1.0
  C  C68  1  0.50285791  0.41901707  0.31539426  1.0
  C  C69  1  0.50225186  0.58750120  0.26299362  1.0
  C  C70  1  0.50206971  0.31083917  0.25980975  1.0
  C  C71  1  0.50206498  0.31163074  0.31926595  1.0
  C  C72  1  0.49775659  0.49900522  0.65381491  1.0
  C  C73  1  0.49869476  0.50028887  0.92615808  1.0
  C  C74  1  0.49779836  0.41413184  0.68065371  1.0
  C  C75  1  0.49855086  0.41232711  0.73305424  1.0
  C  C76  1  0.49909508  0.58503310  0.89923962  1.0
  C  C77  1  0.49958649  0.58670952  0.84685275  1.0
  C  C78  1  0.49921100  0.41527206  0.89909411  1.0
  C  C79  1  0.49941199  0.41671253  0.84700141  1.0
  C  C80  1  0.49891519  0.58391152  0.68098237  1.0
  C  C81  1  0.49947877  0.58228087  0.73305908  1.0
  C  C82  1  0.49909178  0.49780868  0.76210417  1.0
  C  C83  1  0.49935643  0.50114133  0.81789507  1.0
  C  C84  1  0.87097231  0.49750507  0.49941183  1.0
  C  C85  1  0.13047393  0.49842308  0.49984412  1.0
  C  C86  1  0.93687773  0.58192864  0.49983300  1.0
  C  C87  1  0.06354720  0.41187845  0.49967682  1.0
  C  C88  1  0.06173104  0.58145225  0.50015268  1.0
  C  C89  1  0.93727873  0.41273729  0.49965225  1.0
  C  C90  1  0.92849933  0.68945038  0.49983308  1.0
  C  C91  1  0.07058910  0.68884382  0.50026524  1.0
  C  C92  1  0.57381858  0.79541042  0.11013025  1.0
  C  C93  1  0.57895165  0.89460249  0.11164135  1.0
  C  C94  1  0.42893618  0.20976032  0.04996735  1.0
  C  C95  1  0.42492024  0.11056301  0.04780038  1.0
  C  C96  1  0.57558865  0.20798311  0.11035642  1.0
  C  C97  1  0.57684916  0.10958937  0.11047237  1.0
  C  C98  1  0.42788989  0.79680505  0.04943220  1.0
  C  C99  1  0.42730471  0.89519057  0.04882377  1.0
  C  C100  1  0.50305991  0.94980923  0.08000613  1.0
  C  C101  1  0.50121210  0.05514478  0.07916214  1.0
  C  C102  1  0.87178202  0.50317562  0.08030472  1.0
  C  C103  1  0.13106177  0.50228121  0.08024698  1.0
  C  C104  1  0.93795753  0.41873106  0.08026635  1.0
  C  C105  1  0.06385852  0.58883213  0.08032902  1.0
  C  C106  1  0.06275832  0.41922714  0.08008716  1.0
  C  C107  1  0.93762290  0.58797366  0.08015324  1.0
  C  C108  1  0.92998949  0.31122877  0.08045655  1.0
  C  C109  1  0.07209181  0.31182918  0.08004533  1.0
  N  N110  1  0.49988012  0.25413067  0.49864982  1.0
  N  N111  1  0.50108363  0.74386797  0.49991560  1.0
  N  N112  1  0.50048718  0.74735809  0.07993115  1.0
  N  N113  1  0.50199415  0.25761437  0.08038923  1.0
  O  O114  1  0.49683852  0.41847236  0.57554053  1.0
  O  O115  1  0.49771625  0.57966795  0.57606986  1.0
  O  O116  1  0.31666040  0.57895206  0.49985519  1.0
  O  O117  1  0.31702139  0.41800209  0.49825401  1.0
  O  O118  1  0.49933235  0.58255694  0.42213109  1.0
  O  O119  1  0.50316708  0.42160577  0.42195761  1.0
  O  O120  1  0.68543125  0.41524641  0.49836086  1.0
  O  O121  1  0.68391516  0.57650501  0.49808805  1.0
  O  O122  1  0.49742059  0.58208591  0.00393124  1.0
  O  O123  1  0.49916463  0.42086353  0.00436709  1.0
  O  O124  1  0.31711858  0.42154148  0.08004901  1.0
  O  O125  1  0.31725757  0.58257400  0.08144803  1.0
  O  O126  1  0.50068076  0.42241011  0.15765924  1.0
  O  O127  1  0.50364602  0.58372364  0.15717161  1.0
  O  O128  1  0.68586666  0.58524078  0.08022750  1.0
  O  O129  1  0.68549363  0.42390634  0.08104700  1.0
  O  O130  1  0.65703365  0.06468258  0.43441641  1.0
  O  O131  1  0.34376477  0.93295438  0.56455413  1.0
  O  O132  1  0.49892996  0.32412913  0.75565938  1.0
  O  O133  1  0.50038272  0.67492123  0.82423063  1.0
  O  O134  1  0.65834009  0.93540583  0.14412678  1.0
  O  O135  1  0.34623943  0.06975283  0.01493323  1.0
  O  O136  1  0.50076620  0.67425885  0.33910073  1.0
  O  O137  1  0.11952603  0.32635525  0.49934934  1.0
  O  O138  1  0.11960798  0.67429424  0.08062994  1.0
