# generated using pymatgen
data_Al4H35C64BrO20
_symmetry_space_group_name_H-M   'P 1'
_cell_length_a   6.67686743
_cell_length_b   16.48916429
_cell_length_c   19.87901386
_cell_angle_alpha   70.73016039
_cell_angle_beta   89.64814879
_cell_angle_gamma   89.79984813
_symmetry_Int_Tables_number   1
_chemical_formula_structural   Al4H35C64BrO20
_chemical_formula_sum   'Al4 H35 C64 Br1 O20'
_cell_volume   2065.94104388
_cell_formula_units_Z   1
loop_
 _symmetry_equiv_pos_site_id
 _symmetry_equiv_pos_as_xyz
  1  'x, y, z'
loop_
 _atom_site_type_symbol
 _atom_site_label
 _atom_site_symmetry_multiplicity
 _atom_site_fract_x
 _atom_site_fract_y
 _atom_site_fract_z
 _atom_site_occupancy
  Al  Al0  1  0.12205106  0.49902392  0.50063743  1.0
  Al  Al1  1  0.62204948  0.50064545  0.49949275  1.0
  Al  Al2  1  0.61662713  0.00035226  0.99977797  1.0
  Al  Al3  1  0.11699411  0.99844057  0.00125292  1.0
  H  H4  1  0.55110051  0.29408418  0.68429334  1.0
  H  H5  1  0.55285490  0.17896847  0.80540263  1.0
  H  H6  1  0.19075675  0.20223819  0.81520758  1.0
  H  H7  1  0.18884796  0.31762544  0.69412276  1.0
  H  H8  1  0.59384694  0.42065710  0.32239356  1.0
  H  H9  1  0.15805498  0.30549313  0.40603917  1.0
  H  H10  1  0.31578904  0.19655421  0.36039249  1.0
  H  H11  1  0.30953157  0.11218901  0.27798895  1.0
  H  H12  1  0.15036867  0.07766019  0.17849018  1.0
  H  H13  1  0.58280026  0.18852050  0.09688144  1.0
  H  H14  1  0.45836528  0.39930678  0.21297351  1.0
  H  H15  1  0.09934076  0.80274547  0.91119582  1.0
  H  H16  1  0.65059507  0.92309561  0.81855793  1.0
  H  H17  1  0.80355008  0.89021340  0.71650293  1.0
  H  H18  1  0.79805273  0.81045014  0.63054599  1.0
  H  H19  1  0.64341405  0.70097195  0.58714694  1.0
  H  H20  1  0.09345821  0.57871797  0.67880695  1.0
  H  H21  1  0.05874512  0.71231505  0.32276358  1.0
  H  H22  1  0.05551795  0.82724239  0.20187077  1.0
  H  H23  1  0.68087600  0.78308701  0.17548341  1.0
  H  H24  1  0.68411767  0.66827458  0.29641411  1.0
  H  H25  1  0.62695976  0.32790696  0.02662864  1.0
  H  H26  1  0.37866961  0.37121255  0.93021718  1.0
  H  H27  1  0.02544445  0.40207535  0.95561837  1.0
  H  H28  1  0.92626991  0.39039895  0.07971281  1.0
  H  H29  1  0.17387877  0.34429102  0.17701433  1.0
  H  H30  1  0.66627081  0.64484416  0.79394918  1.0
  H  H31  1  0.43738972  0.52354186  0.80918024  1.0
  H  H32  1  0.57439573  0.37668903  0.82406761  1.0
  H  H33  1  0.94319545  0.35507236  0.82581980  1.0
  H  H34  1  0.17147448  0.47781041  0.80861301  1.0
  H  H35  1  0.37505142  0.39555019  0.49636203  1.0
  H  H36  1  0.87280248  0.60347643  0.50489947  1.0
  H  H37  1  0.36373880  0.10114391  0.00959556  1.0
  H  H38  1  0.86582047  0.89518071  0.99566679  1.0
  C  C39  1  0.36664493  0.58600308  0.57808033  1.0
  C  C40  1  0.37422475  0.61672793  0.38779053  1.0
  C  C41  1  0.87479327  0.41503084  0.42084637  1.0
  C  C42  1  0.86896127  0.38172988  0.61205093  1.0
  C  C43  1  0.68978896  0.27347413  0.71367929  1.0
  C  C44  1  0.69064677  0.21023979  0.78042562  1.0
  C  C45  1  0.87162315  0.18512467  0.81700795  1.0
  C  C46  1  0.05216872  0.22290136  0.78572328  1.0
  C  C47  1  0.05114717  0.28622191  0.71901384  1.0
  C  C48  1  0.86978390  0.31218885  0.68292525  1.0
  C  C49  1  0.71538126  0.37647301  0.32191745  1.0
  C  C50  1  0.87433492  0.36625915  0.36963899  1.0
  C  C51  1  0.03397909  0.31119506  0.36934710  1.0
  C  C52  1  0.03376769  0.26231785  0.32346477  1.0
  C  C53  1  0.87219292  0.27265937  0.27433223  1.0
  C  C54  1  0.71482106  0.33248027  0.27224687  1.0
  C  C55  1  0.19153394  0.20306822  0.32352088  1.0
  C  C56  1  0.18792388  0.15655236  0.27808813  1.0
  C  C57  1  0.02772574  0.16563976  0.22835838  1.0
  C  C58  1  0.86887716  0.22500913  0.22646387  1.0
  C  C59  1  0.71105076  0.23788366  0.17535316  1.0
  C  C60  1  0.56449482  0.30537178  0.16882145  1.0
  C  C61  1  0.56730904  0.34830627  0.21756286  1.0
  C  C62  1  0.02646689  0.12031177  0.17991292  1.0
  C  C63  1  0.86485474  0.12849753  0.13384281  1.0
  C  C64  1  0.70700787  0.18478336  0.13292012  1.0
  C  C65  1  0.21768794  0.81038981  0.87176790  1.0
  C  C66  1  0.37253360  0.86847427  0.86833042  1.0
  C  C67  1  0.52880025  0.87898105  0.81919063  1.0
  C  C68  1  0.52752581  0.83421750  0.77023770  1.0
  C  C69  1  0.36966701  0.77441757  0.77346115  1.0
  C  C70  1  0.21675744  0.76023946  0.82698473  1.0
  C  C71  1  0.68216207  0.84568161  0.71753452  1.0
  C  C72  1  0.67896997  0.80182882  0.67012325  1.0
  C  C73  1  0.52205294  0.74204834  0.67181921  1.0
  C  C74  1  0.36718657  0.72808327  0.72463157  1.0
  C  C75  1  0.21480277  0.66548013  0.72976504  1.0
  C  C76  1  0.07196171  0.64456252  0.78845107  1.0
  C  C77  1  0.07464760  0.69237111  0.83367417  1.0
  C  C78  1  0.52186789  0.69382196  0.62553058  1.0
  C  C79  1  0.36631285  0.63656148  0.62801469  1.0
  C  C80  1  0.21223722  0.62383929  0.67848468  1.0
  C  C81  1  0.19355605  0.72848404  0.28987424  1.0
  C  C82  1  0.19174312  0.79172887  0.22319824  1.0
  C  C83  1  0.36797000  0.81123346  0.18221717  1.0
  C  C84  1  0.54601273  0.76701148  0.20837287  1.0
  C  C85  1  0.54785189  0.70376700  0.27509655  1.0
  C  C86  1  0.37171012  0.68436355  0.31610022  1.0
  C  C87  1  0.36512481  0.87947990  0.11082453  1.0
  C  C88  1  0.37177720  0.91799695  0.91900739  1.0
  C  C89  1  0.87126135  0.11821445  0.88927622  1.0
  C  C90  1  0.86334703  0.07993854  0.08261320  1.0
  C  C91  1  0.41768030  0.33061742  0.10978286  1.0
  C  C92  1  0.47246430  0.33934458  0.03917421  1.0
  C  C93  1  0.33209257  0.36456328  0.98444231  1.0
  C  C94  1  0.13460275  0.38239423  0.99857501  1.0
  C  C95  1  0.07943428  0.37595708  0.06800503  1.0
  C  C96  1  0.21932274  0.35042458  0.12280956  1.0
  C  C97  1  0.93473072  0.57070441  0.79902273  1.0
  C  C98  1  0.72688426  0.58158872  0.80016943  1.0
  C  C99  1  0.59813263  0.51252279  0.80910756  1.0
  C  C100  1  0.67442998  0.43082564  0.81784364  1.0
  C  C101  1  0.88147871  0.41865835  0.81823049  1.0
  C  C102  1  0.01016329  0.48809846  0.80839514  1.0
  Br  Br103  1  0.89711809  0.66428097  0.91400491  1.0
  O  O104  1  0.54533792  0.58880005  0.41313197  1.0
  O  O105  1  0.19756114  0.56095399  0.56318791  1.0
  O  O106  1  0.03925838  0.40662568  0.58375812  1.0
  O  O107  1  0.20568844  0.59276567  0.41827233  1.0
  O  O108  1  0.04453390  0.43351297  0.44098134  1.0
  O  O109  1  0.53590154  0.57148212  0.55425619  1.0
  O  O110  1  0.37299966  0.44799905  0.50821953  1.0
  O  O111  1  0.70500866  0.43411720  0.44112017  1.0
  O  O112  1  0.69904512  0.41008098  0.58555130  1.0
  O  O113  1  0.87232062  0.55142733  0.49245143  1.0
  O  O114  1  0.20275599  0.93114541  0.94370203  1.0
  O  O115  1  0.53334437  0.90372944  0.08021295  1.0
  O  O116  1  0.69351304  0.06196855  0.06222371  1.0
  O  O117  1  0.54073041  0.94278336  0.93419291  1.0
  O  O118  1  0.70085913  0.09493155  0.91813753  1.0
  O  O119  1  0.19385937  0.90782983  0.08595911  1.0
  O  O120  1  0.36587270  0.05126331  0.99406069  1.0
  O  O121  1  0.04085881  0.09053781  0.91634845  1.0
  O  O122  1  0.03308107  0.06142420  0.06193637  1.0
  O  O123  1  0.86633936  0.94814969  0.00671785  1.0
