# generated using pymatgen
data_Zn2H5C14N2Cl3O13
_symmetry_space_group_name_H-M   'P 1'
_cell_length_a   10.00276492
_cell_length_b   11.15771085
_cell_length_c   11.90293687
_cell_angle_alpha   95.28000900
_cell_angle_beta   91.01487040
_cell_angle_gamma   98.82098265
_symmetry_Int_Tables_number   1
_chemical_formula_structural   Zn2H5C14N2Cl3O13
_chemical_formula_sum   'Zn2 H5 C14 N2 Cl3 O13'
_cell_volume   1306.49582425
_cell_formula_units_Z   1
loop_
 _symmetry_equiv_pos_site_id
 _symmetry_equiv_pos_as_xyz
  1  'x, y, z'
loop_
 _atom_site_type_symbol
 _atom_site_label
 _atom_site_symmetry_multiplicity
 _atom_site_fract_x
 _atom_site_fract_y
 _atom_site_fract_z
 _atom_site_occupancy
  Zn  Zn0  1  0.35732546  0.47101637  0.51744977  1.0
  Zn  Zn1  1  0.64623417  0.53129647  0.52972901  1.0
  H  H2  1  0.37364736  0.12894824  0.40301702  1.0
  H  H3  1  0.00195832  0.35178555  0.66473823  1.0
  H  H4  1  0.21965364  0.55743829  0.35686548  1.0
  H  H5  1  0.99614400  0.59739393  0.70816737  1.0
  H  H6  1  0.76951152  0.45308369  0.34307960  1.0
  C  C7  1  0.51157892  0.27301012  0.51296361  1.0
  C  C8  1  0.49715775  0.50110091  0.17800765  1.0
  C  C9  1  0.49727668  0.50256437  0.07528335  1.0
  C  C10  1  0.49734993  0.50375630  0.96213751  1.0
  C  C11  1  0.49722763  0.50434686  0.85935694  1.0
  C  C12  1  0.60484198  0.95272252  0.55632831  1.0
  C  C13  1  0.49697552  0.86319078  0.56452270  1.0
  C  C14  1  0.59909582  0.08379285  0.57197686  1.0
  C  C15  1  0.51802955  0.13916296  0.50711097  1.0
  C  C16  1  0.06070716  0.46036167  0.55225350  1.0
  C  C17  1  0.93692164  0.51698596  0.56126342  1.0
  C  C18  1  0.49605305  0.49687923  0.29819764  1.0
  C  C19  1  0.49544138  0.72859443  0.54143255  1.0
  C  C20  1  0.49917679  0.50484563  0.73808211  1.0
  N  N21  1  0.15555159  0.47946725  0.48089658  1.0
  N  N22  1  0.84171089  0.51264757  0.48582321  1.0
  Cl  Cl23  1  0.76593914  0.92308674  0.52704086  1.0
  Cl  Cl24  1  0.34559137  0.90399727  0.60842420  1.0
  Cl  Cl25  1  0.70766937  0.16410430  0.67738581  1.0
  O  O26  1  0.40032591  0.29859096  0.47322721  1.0
  O  O27  1  0.08679745  0.39221073  0.63662210  1.0
  O  O28  1  0.13634243  0.55738611  0.40124907  1.0
  O  O29  1  0.91158662  0.56874459  0.66503215  1.0
  O  O30  1  0.85690551  0.44919760  0.38376267  1.0
  O  O31  1  0.61315502  0.34846984  0.55023600  1.0
  O  O32  1  0.38672673  0.51173720  0.34767605  1.0
  O  O33  1  0.60333813  0.47752493  0.34817903  1.0
  O  O34  1  0.38773136  0.65876369  0.56140953  1.0
  O  O35  1  0.60301629  0.69367703  0.50301446  1.0
  O  O36  1  0.39228425  0.45159556  0.68363582  1.0
  O  O37  1  0.60741281  0.55796005  0.69861430  1.0
  O  O38  1  0.43184834  0.07193681  0.42769812  1.0
