# generated using pymatgen
data_Zn3H25C30N7O12
_symmetry_space_group_name_H-M   'P 1'
_cell_length_a   18.61102853
_cell_length_b   18.62908281
_cell_length_c   18.73177145
_cell_angle_alpha   109.34680127
_cell_angle_beta   109.84632920
_cell_angle_gamma   108.83308321
_symmetry_Int_Tables_number   1
_chemical_formula_structural   Zn3H25C30N7O12
_chemical_formula_sum   'Zn6 H50 C60 N14 O24'
_cell_volume   5022.87869958
_cell_formula_units_Z   2
loop_
 _symmetry_equiv_pos_site_id
 _symmetry_equiv_pos_as_xyz
  1  'x, y, z'
loop_
 _atom_site_type_symbol
 _atom_site_label
 _atom_site_symmetry_multiplicity
 _atom_site_fract_x
 _atom_site_fract_y
 _atom_site_fract_z
 _atom_site_occupancy
  Zn  Zn0  1  0.99669359  0.05712509  0.55990450  1.0
  Zn  Zn1  1  0.00609135  0.93703764  0.44167404  1.0
  Zn  Zn2  1  0.43339555  0.93380361  0.99274031  1.0
  Zn  Zn3  1  0.55499570  0.06197078  0.99632777  1.0
  Zn  Zn4  1  0.56555110  0.48792509  0.55308760  1.0
  Zn  Zn5  1  0.43939421  0.50089250  0.44267408  1.0
  H  H6  1  0.27443852  0.91138059  0.68678951  1.0
  H  H7  1  0.41051922  0.23088925  0.52184412  1.0
  H  H8  1  0.26091032  0.41797887  0.45399561  1.0
  H  H9  1  0.17944838  0.42870315  0.46365372  1.0
  H  H10  1  0.07551197  0.23463812  0.55675700  1.0
  H  H11  1  0.15786556  0.33364048  0.62334384  1.0
  H  H12  1  0.08909281  0.24581466  0.43356111  1.0
  H  H13  1  0.54912016  0.82590325  0.08232039  1.0
  H  H14  1  0.61167098  0.78309158  0.12124962  1.0
  H  H15  1  0.77156521  0.20292223  0.28279314  1.0
  H  H16  1  0.96717846  0.25914906  0.47315058  1.0
  H  H17  1  0.75352792  0.87081652  0.24859400  1.0
  H  H18  1  0.93015579  0.22969347  0.36857136  1.0
  H  H19  1  0.82508460  0.19399243  0.45195395  1.0
  H  H20  1  0.29559301  0.07530368  0.70475944  1.0
  H  H21  1  0.77556569  0.58659140  0.47469374  1.0
  H  H22  1  0.55174892  0.69831688  0.47429616  1.0
  H  H23  1  0.55928004  0.79128659  0.53260663  1.0
  H  H24  1  0.78891782  0.93123423  0.59156231  1.0
  H  H25  1  0.68037383  0.97644857  0.89856981  1.0
  H  H26  1  0.72009038  0.93775142  0.83449147  1.0
  H  H27  1  0.66811997  0.72710626  0.70704182  1.0
  H  H28  1  0.70364073  0.18073290  0.32943641  1.0
  H  H29  1  0.72587352  0.82085376  0.80273300  1.0
  H  H30  1  0.30204518  0.79697245  0.75967844  1.0
  H  H31  1  0.30816048  0.78592322  0.67154848  1.0
  H  H32  1  0.38153147  0.20661930  0.87924744  1.0
  H  H33  1  0.39066400  0.18307146  0.95835959  1.0
  H  H34  1  0.55109912  0.37096889  0.12285690  1.0
  H  H35  1  0.55363765  0.27470654  0.07953312  1.0
  H  H36  1  0.49686409  0.40149279  0.22041998  1.0
  H  H37  1  0.46057429  0.19867697  0.36555127  1.0
  H  H38  1  0.34685388  0.15257780  0.29063844  1.0
  H  H39  1  0.87613895  0.69312459  0.45470390  1.0
  H  H40  1  0.48721250  0.03886508  0.21603449  1.0
  H  H41  1  0.54226477  0.12993897  0.30983839  1.0
  H  H42  1  0.35830948  0.04980580  0.17572583  1.0
  H  H43  1  0.18733972  0.11031528  0.92019870  1.0
  H  H44  1  0.12089522  0.09980427  0.82638855  1.0
  H  H45  1  0.15913479  0.92433735  0.83288465  1.0
  H  H46  1  0.07407895  0.79240788  0.64002365  1.0
  H  H47  1  0.06088299  0.84004305  0.57895155  1.0
  H  H48  1  0.23516598  0.03097101  0.47017198  1.0
  H  H49  1  0.33958192  0.08236210  0.48754585  1.0
  H  H50  1  0.69957206  0.82486819  0.62033196  1.0
  H  H51  1  0.25063939  0.41567724  0.58639528  1.0
  H  H52  1  0.70354758  0.87252107  0.47949712  1.0
  H  H53  1  0.30162063  0.63956321  0.57793736  1.0
  H  H54  1  0.31729983  0.57782985  0.63146859  1.0
  H  H55  1  0.33951431  0.69095468  0.76531462  1.0
  C  C56  1  0.13000535  0.09025455  0.48797991  1.0
  C  C57  1  0.26883911  0.30834548  0.51723206  1.0
  C  C58  1  0.22140708  0.36148499  0.51927869  1.0
  C  C59  1  0.10971729  0.02370439  0.65034650  1.0
  C  C60  1  0.14245282  0.27843836  0.50141315  1.0
  C  C61  1  0.79662246  0.08048821  0.33711722  1.0
  C  C62  1  0.80864080  0.00869829  0.33048264  1.0
  C  C63  1  0.74510968  0.92760120  0.25531379  1.0
  C  C64  1  0.67029944  0.91643719  0.18889192  1.0
  C  C65  1  0.66130861  0.99104535  0.19457271  1.0
  C  C66  1  0.72609817  0.07089998  0.26926766  1.0
  C  C67  1  0.19010375  0.95920705  0.80545786  1.0
  C  C68  1  0.75128059  0.16637372  0.31430381  1.0
  C  C69  1  0.83165044  0.17921268  0.39328814  1.0
  C  C70  1  0.77354325  0.80228661  0.51220055  1.0
  C  C71  1  0.89312124  0.85347010  0.47908746  1.0
  C  C72  1  0.83238782  0.78701182  0.48774388  1.0
  C  C73  1  0.83101033  0.70730615  0.47380904  1.0
  C  C74  1  0.77407544  0.64707099  0.48471072  1.0
  C  C75  1  0.71296957  0.66212669  0.50663672  1.0
  C  C76  1  0.71510149  0.74119728  0.52046806  1.0
  C  C77  1  0.67720123  0.79899998  0.54986674  1.0
  C  C78  1  0.15631723  0.92348113  0.70557379  1.0
  C  C79  1  0.74032224  0.86606217  0.53468806  1.0
  C  C80  1  0.52828605  0.90926343  0.88462313  1.0
  C  C81  1  0.35110895  0.97218127  0.87919037  1.0
  C  C82  1  0.49966167  0.13696086  0.09589473  1.0
  C  C83  1  0.88316686  0.01427710  0.39952412  1.0
  C  C84  1  0.59128447  0.98597778  0.12184917  1.0
  C  C85  1  0.45626716  0.38114203  0.34281850  1.0
  C  C86  1  0.41439164  0.37981362  0.52697160  1.0
  C  C87  1  0.50378550  0.62672520  0.60471988  1.0
  C  C88  1  0.64547503  0.59670046  0.51057547  1.0
  C  C89  1  0.17113797  0.01635740  0.71801970  1.0
  C  C90  1  0.44713843  0.76486156  0.75062499  1.0
  C  C91  1  0.52644155  0.84215904  0.81347203  1.0
  C  C92  1  0.60081951  0.84967343  0.80478478  1.0
  C  C93  1  0.59520503  0.77661752  0.74033667  1.0
  C  C94  1  0.51310658  0.70172412  0.67525375  1.0
  C  C95  1  0.26700134  0.04212732  0.73462467  1.0
  C  C96  1  0.43951733  0.69984040  0.68085827  1.0
  C  C97  1  0.34129848  0.64392785  0.63969119  1.0
  C  C98  1  0.34972386  0.71563294  0.72175386  1.0
  C  C99  1  0.44948454  0.17753296  0.20200779  1.0
  C  C100  1  0.20273279  0.23819483  0.50790983  1.0
  C  C101  1  0.48261415  0.19897447  0.15077579  1.0
  C  C102  1  0.49895190  0.28214194  0.15758301  1.0
  C  C103  1  0.48319236  0.33797185  0.21559499  1.0
  C  C104  1  0.45541025  0.31619244  0.26981729  1.0
  C  C105  1  0.43828255  0.23423615  0.26131673  1.0
  C  C106  1  0.41252205  0.17479116  0.29769422  1.0
  C  C107  1  0.25336789  0.95123639  0.72289405  1.0
  C  C108  1  0.42187914  0.10750380  0.22824859  1.0
  C  C109  1  0.28552104  0.98616289  0.82346714  1.0
  C  C110  1  0.30173731  0.07976272  0.83437256  1.0
  C  C111  1  0.20521845  0.16193205  0.49983955  1.0
  C  C112  1  0.20373981  0.05220829  0.81750309  1.0
  C  C113  1  0.28228014  0.15930769  0.50385012  1.0
  C  C114  1  0.35128744  0.23303609  0.51731418  1.0
  C  C115  1  0.34524941  0.30743257  0.52221817  1.0
  N  N116  1  0.20362129  0.38670837  0.45234319  1.0
  N  N117  1  0.52625798  0.30708035  0.10577723  1.0
  N  N118  1  0.48105166  0.07792342  0.26412224  1.0
  N  N119  1  0.18144989  0.11005752  0.86406235  1.0
  N  N120  1  0.07539525  0.84741028  0.63951161  1.0
  N  N121  1  0.29161342  0.08772898  0.49889599  1.0
  N  N122  1  0.10740051  0.29294532  0.56029363  1.0
  N  N123  1  0.60999134  0.83504249  0.11623270  1.0
  N  N124  1  0.91599317  0.24563144  0.41777008  1.0
  N  N125  1  0.58335111  0.76381203  0.49670250  1.0
  N  N126  1  0.68289254  0.92370610  0.86222648  1.0
  N  N127  1  0.67307665  0.78560302  0.74117603  1.0
  N  N128  1  0.29266644  0.75276870  0.70275833  1.0
  N  N129  1  0.37990337  0.15954016  0.89597477  1.0
  O  O130  1  0.08833968  0.11168727  0.52481620  1.0
  O  O131  1  0.41040154  0.41897000  0.32753629  1.0
  O  O132  1  0.49507421  0.39923825  0.56940818  1.0
  O  O133  1  0.10853399  0.00979868  0.44037029  1.0
  O  O134  1  0.38911256  0.41862494  0.48771337  1.0
  O  O135  1  0.55655133  0.59728246  0.62356286  1.0
  O  O136  1  0.44059938  0.59555226  0.52721206  1.0
  O  O137  1  0.66888850  0.55957306  0.55422518  1.0
  O  O138  1  0.56759869  0.58261580  0.47076456  1.0
  O  O139  1  0.07776064  0.07471155  0.67049425  1.0
  O  O140  1  0.09168384  0.97698389  0.57290599  1.0
  O  O141  1  0.58401929  0.99120222  0.91931934  1.0
  O  O142  1  0.90701408  0.93087264  0.51885011  1.0
  O  O143  1  0.92768991  0.83028763  0.43253923  1.0
  O  O144  1  0.91251948  0.07144899  0.47905075  1.0
  O  O145  1  0.91193357  0.96235549  0.37655479  1.0
  O  O146  1  0.47261277  0.88179592  0.90727822  1.0
  O  O147  1  0.32621075  0.91823462  0.90653467  1.0
  O  O148  1  0.42975067  0.01497250  0.89758993  1.0
  O  O149  1  0.46133048  0.05821696  0.07880018  1.0
  O  O150  1  0.55280366  0.16426735  0.06848091  1.0
  O  O151  1  0.51120951  0.92420069  0.08547073  1.0
  O  O152  1  0.61431138  0.04240833  0.09891921  1.0
  O  O153  1  0.50434543  0.39524344  0.41825768  1.0
