# generated using pymatgen
data_AlH9(C2O)6
_symmetry_space_group_name_H-M   'P 1'
_cell_length_a   6.70930630
_cell_length_b   11.08094745
_cell_length_c   15.30834216
_cell_angle_alpha   81.85866444
_cell_angle_beta   78.09914419
_cell_angle_gamma   73.04419230
_symmetry_Int_Tables_number   1
_chemical_formula_structural   AlH9(C2O)6
_chemical_formula_sum   'Al2 H18 C24 O12'
_cell_volume   1061.18967678
_cell_formula_units_Z   2
loop_
 _symmetry_equiv_pos_site_id
 _symmetry_equiv_pos_as_xyz
  1  'x, y, z'
loop_
 _atom_site_type_symbol
 _atom_site_label
 _atom_site_symmetry_multiplicity
 _atom_site_fract_x
 _atom_site_fract_y
 _atom_site_fract_z
 _atom_site_occupancy
  Al  Al0  1  0.50000081  0.50000185  0.50000457  1.0
  Al  Al1  1  0.00000845  0.49999470  0.50000107  1.0
  H  H2  1  0.22651996  0.63020253  0.41750840  1.0
  H  H3  1  0.77351110  0.36977022  0.58247696  1.0
  H  H4  1  0.69465241  0.11537054  0.56161945  1.0
  H  H5  1  0.30538259  0.88462341  0.43837819  1.0
  H  H6  1  0.69715863  0.53557364  0.93271815  1.0
  H  H7  1  0.30280996  0.46439934  0.06727764  1.0
  H  H8  1  0.56614878  0.50728195  0.22546155  1.0
  H  H9  1  0.63845027  0.51889186  0.06219268  1.0
  H  H10  1  0.43381499  0.49275969  0.77454282  1.0
  H  H11  1  0.36149536  0.48114302  0.93781330  1.0
  H  H12  1  0.93685897  0.93558318  0.60250696  1.0
  H  H13  1  0.85653127  0.79311037  0.62767101  1.0
  H  H14  1  0.01618641  0.81857526  0.52450962  1.0
  H  H15  1  0.98385322  0.18141211  0.47548747  1.0
  H  H16  1  0.14350630  0.20689111  0.37232774  1.0
  H  H17  1  0.06319353  0.06441217  0.39748239  1.0
  H  H18  1  0.79728594  0.54715109  0.69912575  1.0
  H  H19  1  0.20270460  0.45282387  0.30086978  1.0
  C  C20  1  0.83629670  0.48381743  0.33812198  1.0
  C  C21  1  0.63892812  0.72840235  0.49408835  1.0
  C  C22  1  0.16368665  0.51618925  0.66188274  1.0
  C  C23  1  0.36108826  0.27158930  0.50591646  1.0
  C  C24  1  0.57387129  0.86840074  0.49855067  1.0
  C  C25  1  0.42615778  0.13160260  0.50144807  1.0
  C  C26  1  0.68986730  0.93165217  0.53436893  1.0
  C  C27  1  0.31018628  0.06833455  0.46562298  1.0
  C  C28  1  0.61060571  0.06298098  0.53430540  1.0
  C  C29  1  0.38943402  0.93701586  0.46569156  1.0
  C  C30  1  0.11194040  0.51762953  0.75976998  1.0
  C  C31  1  0.88802819  0.48239223  0.24023490  1.0
  C  C32  1  0.90171940  0.53155309  0.80677867  1.0
  C  C33  1  0.86111890  0.52481981  0.90053386  1.0
  C  C34  1  0.09824623  0.46844549  0.19321597  1.0
  C  C35  1  0.13884281  0.47517757  0.09946582  1.0
  C  C36  1  0.72701102  0.49926393  0.19002957  1.0
  C  C37  1  0.76929780  0.50538916  0.09750412  1.0
  C  C38  1  0.27294565  0.50076359  0.80997270  1.0
  C  C39  1  0.23064707  0.49464397  0.90249880  1.0
  C  C40  1  0.02288917  0.50492140  0.95029135  1.0
  C  C41  1  0.97705807  0.49509072  0.04971568  1.0
  C  C42  1  0.88508691  0.86659615  0.57422996  1.0
  C  C43  1  0.11495738  0.13339724  0.42576032  1.0
  O  O44  1  0.64595369  0.49732149  0.37751944  1.0
  O  O45  1  0.83608974  0.67160244  0.48487849  1.0
  O  O46  1  0.00791401  0.52646504  0.62052182  1.0
  O  O47  1  0.50756547  0.32541891  0.50153748  1.0
  O  O48  1  0.35403758  0.50268791  0.62248824  1.0
  O  O49  1  0.16395165  0.32838467  0.51512434  1.0
  O  O50  1  0.99209529  0.47353165  0.37947606  1.0
  O  O51  1  0.49245848  0.67458284  0.49847430  1.0
  O  O52  1  0.24543437  0.55180992  0.45589829  1.0
  O  O53  1  0.75458016  0.44818254  0.54410924  1.0
  O  O54  1  0.73557526  0.55067971  0.76449297  1.0
  O  O55  1  0.26441211  0.44930191  0.23550166  1.0
