# generated using pymatgen
data_ZnH21C26N2O9
_symmetry_space_group_name_H-M   'P 1'
_cell_length_a   9.55467081
_cell_length_b   10.91487238
_cell_length_c   23.62526018
_cell_angle_alpha   89.95370130
_cell_angle_beta   88.46716720
_cell_angle_gamma   89.25792318
_symmetry_Int_Tables_number   1
_chemical_formula_structural   ZnH21C26N2O9
_chemical_formula_sum   'Zn2 H42 C52 N4 O18'
_cell_volume   2462.74293820
_cell_formula_units_Z   2
loop_
 _symmetry_equiv_pos_site_id
 _symmetry_equiv_pos_as_xyz
  1  'x, y, z'
loop_
 _atom_site_type_symbol
 _atom_site_label
 _atom_site_symmetry_multiplicity
 _atom_site_fract_x
 _atom_site_fract_y
 _atom_site_fract_z
 _atom_site_occupancy
  Zn  Zn0  1  0.65002417  0.50319517  0.50154887  1.0
  Zn  Zn1  1  0.35106008  0.50307321  0.50009159  1.0
  H  H2  1  0.26741530  0.72420298  0.95437111  1.0
  H  H3  1  0.32155010  0.89691711  0.44463381  1.0
  H  H4  1  0.47733558  0.11180161  0.40895604  1.0
  H  H5  1  0.31905020  0.11184401  0.44818510  1.0
  H  H6  1  0.13707719  0.60795530  0.42371013  1.0
  H  H7  1  0.89254997  0.57011445  0.41693011  1.0
  H  H8  1  0.29113776  0.72907307  0.06097151  1.0
  H  H9  1  0.11004138  0.69512934  0.48650922  1.0
  H  H10  1  0.87078747  0.68958243  0.46787177  1.0
  H  H11  1  0.11415429  0.38729325  0.43047334  1.0
  H  H12  1  0.87041470  0.35920673  0.44464663  1.0
  H  H13  1  0.69246956  0.57395750  0.68092820  1.0
  H  H14  1  0.10661943  0.43440063  0.58128967  1.0
  H  H15  1  0.86329848  0.48229142  0.58906882  1.0
  H  H16  1  0.13069601  0.59486054  0.57886892  1.0
  H  H17  1  0.89024527  0.63587026  0.56623027  1.0
  H  H18  1  0.13203267  0.31266522  0.49661156  1.0
  H  H19  1  0.88941624  0.32128115  0.51669978  1.0
  H  H20  1  0.71374663  0.24282343  0.93972319  1.0
  H  H21  1  0.32166283  0.40688884  0.32159552  1.0
  H  H22  1  0.71985071  0.58379136  0.32120400  1.0
  H  H23  1  0.72708632  0.58179021  0.21495816  1.0
  H  H24  1  0.28419549  0.41252970  0.67719819  1.0
  H  H25  1  0.68010997  0.57261686  0.78680497  1.0
  H  H26  1  0.70329327  0.87479469  0.58694309  1.0
  H  H27  1  0.40982147  0.77147026  0.60765261  1.0
  H  H28  1  0.70188860  0.12839340  0.41292119  1.0
  H  H29  1  0.20440236  0.11821037  0.53023031  1.0
  H  H30  1  0.94502522  0.20812168  0.09098654  1.0
  H  H31  1  0.88420049  0.36235094  0.09052700  1.0
  H  H32  1  0.01685492  0.22541290  0.98822013  1.0
  H  H33  1  0.95436067  0.37841963  0.98695313  1.0
  H  H34  1  0.13428016  0.43804543  0.05863998  1.0
  H  H35  1  0.27534076  0.40487130  0.78312649  1.0
  H  H36  1  0.21404558  0.37325342  0.99672205  1.0
  H  H37  1  0.19800973  0.28569922  0.05998213  1.0
  H  H38  1  0.21734106  0.34362015  0.24330396  1.0
  H  H39  1  0.69608964  0.89711770  0.45719732  1.0
  H  H40  1  0.29955509  0.91150160  0.54227923  1.0
  H  H41  1  0.69885765  0.09829710  0.54220188  1.0
  H  H42  1  0.48635423  0.09862394  0.59213986  1.0
  H  H43  1  0.48646666  0.89832501  0.40913569  1.0
  C  C44  1  0.49394707  0.74266677  0.50120815  1.0
  C  C45  1  0.61128606  0.40367032  0.12000049  1.0
  C  C46  1  0.41496982  0.43994547  0.23891511  1.0
  C  C47  1  0.51056417  0.50298266  0.39131457  1.0
  C  C48  1  0.41091189  0.44491772  0.29808999  1.0
  C  C49  1  0.51919072  0.49731465  0.32793767  1.0
  C  C50  1  0.63467431  0.54440343  0.29777651  1.0
  C  C51  1  0.63895748  0.54280743  0.23870465  1.0
  C  C52  1  0.52961986  0.49210323  0.20936545  1.0
  C  C53  1  0.59442718  0.53696079  0.76239382  1.0
  C  C54  1  0.60093637  0.53792005  0.70351558  1.0
  C  C55  1  0.33453746  0.65894576  0.97609639  1.0
  C  C56  1  0.48851421  0.49402981  0.67287795  1.0
  C  C57  1  0.37012875  0.44799088  0.70149862  1.0
  C  C58  1  0.36527513  0.44337256  0.76044647  1.0
  C  C59  1  0.50234458  0.26215823  0.49905147  1.0
  C  C60  1  0.47734388  0.48829860  0.79039642  1.0
  C  C61  1  0.65004712  0.92685536  0.49828462  1.0
  C  C62  1  0.40889892  0.93569239  0.55158092  1.0
  C  C63  1  0.65268252  0.07047635  0.50204665  1.0
  C  C64  1  0.42438690  0.07656281  0.55494982  1.0
  C  C65  1  0.42782925  0.93329299  0.44655658  1.0
  C  C66  1  0.34807994  0.66170956  0.03491938  1.0
  C  C67  1  0.49685619  0.88297080  0.50019244  1.0
  C  C68  1  0.50184107  0.12215521  0.50035895  1.0
  C  C69  1  0.42648574  0.07503381  0.44748544  1.0
  C  C70  1  0.08179266  0.61033829  0.46503386  1.0
  C  C71  1  0.92179822  0.60089180  0.45915984  1.0
  C  C72  1  0.08141582  0.38986841  0.47534459  1.0
  C  C73  1  0.92115598  0.38631714  0.48360570  1.0
  C  C74  1  0.07789647  0.51854651  0.55864227  1.0
  C  C75  1  0.91828448  0.53971245  0.55782239  1.0
  C  C76  1  0.49482048  0.49627124  0.60971997  1.0
  C  C77  1  0.43493913  0.57812732  0.06194599  1.0
  C  C78  1  0.56079914  0.39148930  0.87589511  1.0
  C  C79  1  0.39409980  0.57076744  0.88165583  1.0
  C  C80  1  0.40811286  0.57139082  0.94412525  1.0
  C  C81  1  0.49676589  0.48546829  0.97075967  1.0
  C  C82  1  0.57005687  0.39477999  0.93851086  1.0
  C  C83  1  0.74624123  0.87577440  0.54269872  1.0
  C  C84  1  0.43678458  0.87075065  0.60731714  1.0
  C  C85  1  0.75038782  0.11425715  0.45500876  1.0
  C  C86  1  0.27968777  0.13355016  0.56497208  1.0
  C  C87  1  0.90408045  0.28118999  0.06386812  1.0
  C  C88  1  0.51259629  0.48842876  0.03061143  1.0
  C  C89  1  0.00328395  0.30871177  0.01412103  1.0
  C  C90  1  0.14508047  0.35368668  0.03345394  1.0
  C  C91  1  0.29742154  0.37795061  0.21186706  1.0
  C  C92  1  0.60441771  0.40369750  0.05756220  1.0
  C  C93  1  0.67911646  0.31727513  0.02373948  1.0
  C  C94  1  0.65660168  0.31161567  0.96483399  1.0
  C  C95  1  0.44302417  0.58342732  0.12410896  1.0
  N  N96  1  0.47612646  0.48300103  0.85148102  1.0
  N  N97  1  0.53257216  0.49641945  0.14851773  1.0
  N  N98  1  0.13496534  0.50583245  0.49947075  1.0
  N  N99  1  0.86601695  0.50939314  0.50054716  1.0
  O  O100  1  0.60625617  0.68879914  0.51585707  1.0
  O  O101  1  0.31786062  0.64306413  0.85672390  1.0
  O  O102  1  0.37682414  0.65753176  0.15394896  1.0
  O  O103  1  0.67743111  0.32894675  0.14813885  1.0
  O  O104  1  0.86857751  0.84663713  0.53261414  1.0
  O  O105  1  0.48300948  0.91960691  0.64908862  1.0
  O  O106  1  0.87660830  0.12504715  0.45995380  1.0
  O  O107  1  0.24080880  0.18365309  0.60885273  1.0
  O  O108  1  0.77239303  0.23425974  0.04357604  1.0
  O  O109  1  0.28297157  0.36128273  0.16113040  1.0
  O  O110  1  0.38101530  0.69138986  0.48831920  1.0
  O  O111  1  0.62094621  0.53338248  0.41664977  1.0
  O  O112  1  0.39327638  0.47715934  0.41492777  1.0
  O  O113  1  0.61696194  0.31469034  0.48636123  1.0
  O  O114  1  0.38565772  0.31505142  0.50977094  1.0
  O  O115  1  0.61251322  0.47174272  0.58530204  1.0
  O  O116  1  0.38208969  0.52346129  0.58459462  1.0
  O  O117  1  0.62435734  0.31566087  0.84634568  1.0
