# generated using pymatgen
data_ZnH10C19NO8
_symmetry_space_group_name_H-M   'P 1'
_cell_length_a   11.79174008
_cell_length_b   13.20355791
_cell_length_c   15.13126097
_cell_angle_alpha   93.25375360
_cell_angle_beta   97.67020369
_cell_angle_gamma   92.58229547
_symmetry_Int_Tables_number   1
_chemical_formula_structural   ZnH10C19NO8
_chemical_formula_sum   'Zn2 H20 C38 N2 O16'
_cell_volume   2327.68848946
_cell_formula_units_Z   2
loop_
 _symmetry_equiv_pos_site_id
 _symmetry_equiv_pos_as_xyz
  1  'x, y, z'
loop_
 _atom_site_type_symbol
 _atom_site_label
 _atom_site_symmetry_multiplicity
 _atom_site_fract_x
 _atom_site_fract_y
 _atom_site_fract_z
 _atom_site_occupancy
  Zn  Zn0  1  0.62064666  0.49682033  0.51825426  1.0
  Zn  Zn1  1  0.37936730  0.50320216  0.48175804  1.0
  H  H2  1  0.37281434  0.57346735  0.22671900  1.0
  H  H3  1  0.62717943  0.42650326  0.77328063  1.0
  H  H4  1  0.72310415  0.32951208  0.07099678  1.0
  H  H5  1  0.27686491  0.67042365  0.92899749  1.0
  H  H6  1  0.71199928  0.34838387  0.91124117  1.0
  H  H7  1  0.28798911  0.65154500  0.08875709  1.0
  H  H8  1  0.72532971  0.82427872  0.52976901  1.0
  H  H9  1  0.27466669  0.17574712  0.47022678  1.0
  H  H10  1  0.89736046  0.66214548  0.36010813  1.0
  H  H11  1  0.10266376  0.33789628  0.63991466  1.0
  H  H12  1  0.70395351  0.32523023  0.18839638  1.0
  H  H13  1  0.29605925  0.67474396  0.81162267  1.0
  H  H14  1  0.35353148  0.74219908  0.45443248  1.0
  H  H15  1  0.64647487  0.25782860  0.54555421  1.0
  H  H16  1  0.26256986  0.98596918  0.45370848  1.0
  H  H17  1  0.73741830  0.01405196  0.54628128  1.0
  H  H18  1  0.79422872  0.58694126  0.43597829  1.0
  H  H19  1  0.20578729  0.41312448  0.56405434  1.0
  H  H20  1  0.84481386  0.32217407  0.67143871  1.0
  H  H21  1  0.15519538  0.67782376  0.32854222  1.0
  C  C22  1  0.46207860  0.30025962  0.51206625  1.0
  C  C23  1  0.53791051  0.69976087  0.48792687  1.0
  C  C24  1  0.65435236  0.38894335  0.94979233  1.0
  C  C25  1  0.34562466  0.61098966  0.05021242  1.0
  C  C26  1  0.54221960  0.81205724  0.49344173  1.0
  C  C27  1  0.45779150  0.18796220  0.50654911  1.0
  C  C28  1  0.34440930  0.02821296  0.47280009  1.0
  C  C29  1  0.65557872  0.97180378  0.52717368  1.0
  C  C30  1  0.35115917  0.13248497  0.48225868  1.0
  C  C31  1  0.64884665  0.86753438  0.51772843  1.0
  C  C32  1  0.55875090  0.13496535  0.52219078  1.0
  C  C33  1  0.44125110  0.86505801  0.47778092  1.0
  C  C34  1  0.55431377  0.02636960  0.51254389  1.0
  C  C35  1  0.44568553  0.97365439  0.48742364  1.0
  C  C36  1  0.02655193  0.58936192  0.41331150  1.0
  C  C37  1  0.97346505  0.41067741  0.58670539  1.0
  C  C38  1  0.14343471  0.57762219  0.41285444  1.0
  C  C39  1  0.85658759  0.42240939  0.58715938  1.0
  C  C40  1  0.15013838  0.46090117  0.52284988  1.0
  C  C41  1  0.84987147  0.53913869  0.47715919  1.0
  C  C42  1  0.03236588  0.46648279  0.52828460  1.0
  C  C43  1  0.96765081  0.53355919  0.47172174  1.0
  C  C44  1  0.48785168  0.52868814  0.66849099  1.0
  C  C45  1  0.51215445  0.47131708  0.33152427  1.0
  C  C46  1  0.43184057  0.53540860  0.18787982  1.0
  C  C47  1  0.56814572  0.46456294  0.81212255  1.0
  C  C48  1  0.51211309  0.47509541  0.23274080  1.0
  C  C49  1  0.48787896  0.52487376  0.76726065  1.0
  C  C50  1  0.58837314  0.42296670  0.18480692  1.0
  C  C51  1  0.41161876  0.57698802  0.81519352  1.0
  C  C52  1  0.58452296  0.43140027  0.09143288  1.0
  C  C53  1  0.41545498  0.56853423  0.90857132  1.0
  C  C54  1  0.50278325  0.49479366  0.04688857  1.0
  C  C55  1  0.49719086  0.50514126  0.95310542  1.0
  C  C56  1  0.42606901  0.54770214  0.09618722  1.0
  C  C57  1  0.57391940  0.45225111  0.90381358  1.0
  C  C58  1  0.65947302  0.37880446  0.03961632  1.0
  C  C59  1  0.34049598  0.62112332  0.96038835  1.0
  N  N60  1  0.79758179  0.48494159  0.53287023  1.0
  N  N61  1  0.20243004  0.51509348  0.46713293  1.0
  O  O62  1  0.56309321  0.34617616  0.52798631  1.0
  O  O63  1  0.43691177  0.65384605  0.47201603  1.0
  O  O64  1  0.36980015  0.34664393  0.50055879  1.0
  O  O65  1  0.63019772  0.65337308  0.49944486  1.0
  O  O66  1  0.58649596  0.53014667  0.64283225  1.0
  O  O67  1  0.41351636  0.46985369  0.35717611  1.0
  O  O68  1  0.39221787  0.52553664  0.61810516  1.0
  O  O69  1  0.60781022  0.47447897  0.38190940  1.0
  O  O70  1  0.97836626  0.65585154  0.35538029  1.0
  O  O71  1  0.02165462  0.34418531  0.64463221  1.0
  O  O72  1  0.66338637  0.36254864  0.23070268  1.0
  O  O73  1  0.33661464  0.63742008  0.76930938  1.0
  O  O74  1  0.33755814  0.81710509  0.45371120  1.0
  O  O75  1  0.66244215  0.18290610  0.54625942  1.0
  O  O76  1  0.79587352  0.37143502  0.64170098  1.0
  O  O77  1  0.20413857  0.62857163  0.35829295  1.0
