# generated using pymatgen
data_ZnH12C27N3O10
_symmetry_space_group_name_H-M   'P 1'
_cell_length_a   13.80798897
_cell_length_b   15.19430990
_cell_length_c   19.10207776
_cell_angle_alpha   89.72866124
_cell_angle_beta   89.33062215
_cell_angle_gamma   89.41677374
_symmetry_Int_Tables_number   1
_chemical_formula_structural   ZnH12C27N3O10
_chemical_formula_sum   'Zn2 H24 C54 N6 O20'
_cell_volume   4007.14678318
_cell_formula_units_Z   2
loop_
 _symmetry_equiv_pos_site_id
 _symmetry_equiv_pos_as_xyz
  1  'x, y, z'
loop_
 _atom_site_type_symbol
 _atom_site_label
 _atom_site_symmetry_multiplicity
 _atom_site_fract_x
 _atom_site_fract_y
 _atom_site_fract_z
 _atom_site_occupancy
  Zn  Zn0  1  0.39754303  0.50385089  0.50209284  1.0
  Zn  Zn1  1  0.59882288  0.50948576  0.50236690  1.0
  H  H2  1  0.34501830  0.49429386  0.27914924  1.0
  H  H3  1  0.65658982  0.48113687  0.72349260  1.0
  H  H4  1  0.34583864  0.47795408  0.72490235  1.0
  H  H5  1  0.65463374  0.46705792  0.28186190  1.0
  H  H6  1  0.34507204  0.45781353  0.15128992  1.0
  H  H7  1  0.65691980  0.44469550  0.85169698  1.0
  H  H8  1  0.34527544  0.44245961  0.85331357  1.0
  H  H9  1  0.65592654  0.43320676  0.15333875  1.0
  H  H10  1  0.35717039  0.79007495  0.44312332  1.0
  H  H11  1  0.64061363  0.22265755  0.56083396  1.0
  H  H12  1  0.69989467  0.91577995  0.60066029  1.0
  H  H13  1  0.30593451  0.09624029  0.39518386  1.0
  H  H14  1  0.70900401  0.07802235  0.59759940  1.0
  H  H15  1  0.29445187  0.93482581  0.40076579  1.0
  H  H16  1  0.25038820  0.59839882  0.42896139  1.0
  H  H17  1  0.74571033  0.41182669  0.57455333  1.0
  H  H18  1  0.24376686  0.38822649  0.56628365  1.0
  H  H19  1  0.75234038  0.61877059  0.43439873  1.0
  H  H20  1  0.62689312  0.66262281  0.64305548  1.0
  H  H21  1  0.37458302  0.32354197  0.33420258  1.0
  H  H22  1  0.18608421  0.21759988  0.62860258  1.0
  H  H23  1  0.80186984  0.71430188  0.30527373  1.0
  H  H24  1  0.19506265  0.77653680  0.36134425  1.0
  H  H25  1  0.80328379  0.31896987  0.71153474  1.0
  C  C26  1  0.51454274  0.33581650  0.50271930  1.0
  C  C27  1  0.48233582  0.67657072  0.50077106  1.0
  C  C28  1  0.56168702  0.81627169  0.53911621  1.0
  C  C29  1  0.44202361  0.19596978  0.45867603  1.0
  C  C30  1  0.56985259  0.90880296  0.53757455  1.0
  C  C31  1  0.43482478  0.10336367  0.45965943  1.0
  C  C32  1  0.49907655  0.95934880  0.50001604  1.0
  C  C33  1  0.50491547  0.05284237  0.49784146  1.0
  C  C34  1  0.42183825  0.91631638  0.46517344  1.0
  C  C35  1  0.58098620  0.09607083  0.53383254  1.0
  C  C36  1  0.64550539  0.95435936  0.57288750  1.0
  C  C37  1  0.35965177  0.05785707  0.42378139  1.0
  C  C38  1  0.65075063  0.04403978  0.57096361  1.0
  C  C39  1  0.35319826  0.96839229  0.42716960  1.0
  C  C40  1  0.20402472  0.55380638  0.45865571  1.0
  C  C41  1  0.79223460  0.45504242  0.54371552  1.0
  C  C42  1  0.20027631  0.43539599  0.53701091  1.0
  C  C43  1  0.79587177  0.57120370  0.46316252  1.0
  C  C44  1  0.09851022  0.43444932  0.53935159  1.0
  C  C45  1  0.89737948  0.56841246  0.45723299  1.0
  C  C46  1  0.10286440  0.55930156  0.45627641  1.0
  C  C47  1  0.89333197  0.44771831  0.54429034  1.0
  C  C48  1  0.04914322  0.49923494  0.49840548  1.0
  C  C49  1  0.94679717  0.50517854  0.49966788  1.0
  C  C50  1  0.04270655  0.37534061  0.58310073  1.0
  C  C51  1  0.95318019  0.62643945  0.41245060  1.0
  C  C52  1  0.05289533  0.62261225  0.41334506  1.0
  C  C53  1  0.94339221  0.38364603  0.58648589  1.0
  C  C54  1  0.49917520  0.49709071  0.36553859  1.0
  C  C55  1  0.50068194  0.50003553  0.63971070  1.0
  C  C56  1  0.41260530  0.48003287  0.25118817  1.0
  C  C57  1  0.58884925  0.47244674  0.75244944  1.0
  C  C58  1  0.41332858  0.47058933  0.75337901  1.0
  C  C59  1  0.58758586  0.46548842  0.25243727  1.0
  C  C60  1  0.41256680  0.46034314  0.18018952  1.0
  C  C61  1  0.58917108  0.45226525  0.82348401  1.0
  C  C62  1  0.41306150  0.45093717  0.82444794  1.0
  C  C63  1  0.58822255  0.44660233  0.18134310  1.0
  C  C64  1  0.50051694  0.44288484  0.14477331  1.0
  C  C65  1  0.50111195  0.44108523  0.86004408  1.0
  C  C66  1  0.49990760  0.48177207  0.28800695  1.0
  C  C67  1  0.50100916  0.48142728  0.71679926  1.0
  C  C68  1  0.50099098  0.42123927  0.93512223  1.0
  C  C69  1  0.50063109  0.42225792  0.06999463  1.0
  C  C70  1  0.41592441  0.82436378  0.46882705  1.0
  C  C71  1  0.58421783  0.18827724  0.53264369  1.0
  C  C72  1  0.48524548  0.77497919  0.50438021  1.0
  C  C73  1  0.51512250  0.23770859  0.49660411  1.0
  C  C74  1  0.63191717  0.75953457  0.57863039  1.0
  C  C75  1  0.37346832  0.24874936  0.41431366  1.0
  C  C76  1  0.08847615  0.30594950  0.62851137  1.0
  C  C77  1  0.90838332  0.69319242  0.36430375  1.0
  C  C78  1  0.11344646  0.67789229  0.36406048  1.0
  C  C79  1  0.88274001  0.32156290  0.63018018  1.0
  N  N80  1  0.58623140  0.40783185  0.03641998  1.0
  N  N81  1  0.41527207  0.40965438  0.96888695  1.0
  N  N82  1  0.58650151  0.40681422  0.96753150  1.0
  N  N83  1  0.41495971  0.40963778  0.03775529  1.0
  N  N84  1  0.24971043  0.49427180  0.49862433  1.0
  N  N85  1  0.74664722  0.51515561  0.50427846  1.0
  O  O86  1  0.43240185  0.37326850  0.49495021  1.0
  O  O87  1  0.56384016  0.63861751  0.48981631  1.0
  O  O88  1  0.40093057  0.63916520  0.50726552  1.0
  O  O89  1  0.59337642  0.37432127  0.51640706  1.0
  O  O90  1  0.41726204  0.51286249  0.39464928  1.0
  O  O91  1  0.58147657  0.52008559  0.61073985  1.0
  O  O92  1  0.42020153  0.49306642  0.60855116  1.0
  O  O93  1  0.58007895  0.49107522  0.39659535  1.0
  O  O94  1  0.71959424  0.75657444  0.56917641  1.0
  O  O95  1  0.58433320  0.71107154  0.62782221  1.0
  O  O96  1  0.28546816  0.25187258  0.42141414  1.0
  O  O97  1  0.42187396  0.28817783  0.36037732  1.0
  O  O98  1  0.06033847  0.28922716  0.68781608  1.0
  O  O99  1  0.16248426  0.26285920  0.59600747  1.0
  O  O100  1  0.94563428  0.76355706  0.35003516  1.0
  O  O101  1  0.82381565  0.66647273  0.33611222  1.0
  O  O102  1  0.12582335  0.65944023  0.30266236  1.0
  O  O103  1  0.15774915  0.74467365  0.39724676  1.0
  O  O104  1  0.86802457  0.24539311  0.61442427  1.0
  O  O105  1  0.84180203  0.36288614  0.68599758  1.0
