# generated using pymatgen
data_Zn4H54C79N28O23
_symmetry_space_group_name_H-M   'P 1'
_cell_length_a   18.88466998
_cell_length_b   19.51880966
_cell_length_c   21.36256310
_cell_angle_alpha   103.46931616
_cell_angle_beta   108.62067461
_cell_angle_gamma   112.41607394
_symmetry_Int_Tables_number   1
_chemical_formula_structural   Zn4H54C79N28O23
_chemical_formula_sum   'Zn4 H54 C79 N28 O23'
_cell_volume   6307.65982505
_cell_formula_units_Z   1
loop_
 _symmetry_equiv_pos_site_id
 _symmetry_equiv_pos_as_xyz
  1  'x, y, z'
loop_
 _atom_site_type_symbol
 _atom_site_label
 _atom_site_symmetry_multiplicity
 _atom_site_fract_x
 _atom_site_fract_y
 _atom_site_fract_z
 _atom_site_occupancy
  Zn  Zn0  1  0.90667127  0.90696247  0.52316984  1.0
  Zn  Zn1  1  0.11063868  0.10753810  0.49901138  1.0
  Zn  Zn2  1  0.12629694  0.99942551  0.61429038  1.0
  Zn  Zn3  1  0.87009797  0.92480106  0.36345967  1.0
  H  H4  1  0.85961020  0.96035263  0.66299735  1.0
  H  H5  1  0.07068863  0.23043887  0.59061091  1.0
  H  H6  1  0.91775333  0.06612555  0.60688827  1.0
  H  H7  1  0.69519581  0.74032359  0.44174130  1.0
  H  H8  1  0.29287522  0.13763010  0.50182586  1.0
  H  H9  1  0.12860086  0.83189972  0.63793387  1.0
  H  H10  1  0.13586909  0.11868443  0.35701212  1.0
  H  H11  1  0.86800705  0.73204130  0.47447901  1.0
  H  H12  1  0.75258711  0.74737667  0.26205358  1.0
  H  H13  1  0.23738754  0.94000934  0.57105678  1.0
  H  H14  1  0.71594912  0.11949189  0.45237687  1.0
  H  H15  1  0.79611255  0.05174763  0.62999548  1.0
  H  H16  1  0.68412732  0.06332613  0.65933776  1.0
  H  H17  1  0.36356352  0.93915675  0.55085523  1.0
  H  H18  1  0.44052709  0.18650350  0.57824949  1.0
  H  H19  1  0.58238127  0.20811644  0.58955225  1.0
  H  H20  1  0.08987331  0.51027866  0.59664483  1.0
  H  H21  1  0.10326241  0.38735255  0.56271433  1.0
  H  H22  1  0.83680341  0.23906200  0.50545098  1.0
  H  H23  1  0.82353147  0.36132010  0.54153936  1.0
  H  H24  1  0.06762088  0.72323000  0.67318159  1.0
  H  H25  1  0.22864363  0.30344429  0.80312642  1.0
  H  H26  1  0.54388090  0.46733356  0.13569905  1.0
  H  H27  1  0.65173677  0.55838865  0.26382113  1.0
  H  H28  1  0.43203953  0.62241256  0.13317086  1.0
  H  H29  1  0.54639262  0.45698857  0.93937336  1.0
  H  H30  1  0.54223398  0.71569532  0.26091866  1.0
  H  H31  1  0.93603920  0.01263215  0.03131934  1.0
  H  H32  1  0.83658119  0.08223085  0.86230074  1.0
  H  H33  1  0.85767000  0.04930193  0.75276416  1.0
  H  H34  1  0.05840538  0.19208454  0.28866205  1.0
  H  H35  1  0.10396881  0.17076646  0.99588138  1.0
  H  H36  1  0.12577289  0.13544361  0.88823474  1.0
  H  H37  1  0.48296730  0.03406020  0.41977362  1.0
  H  H38  1  0.55089598  0.05107125  0.37558889  1.0
  H  H39  1  0.49780134  0.10962054  0.38312192  1.0
  H  H40  1  0.39993502  0.84615104  0.51070436  1.0
  H  H41  1  0.43845315  0.88456977  0.60700659  1.0
  H  H42  1  0.49089189  0.84252740  0.56697815  1.0
  H  H43  1  0.36658261  0.22436609  0.86501158  1.0
  H  H44  1  0.44086305  0.23013103  0.82700048  1.0
  H  H45  1  0.39574136  0.14707993  0.85056097  1.0
  H  H46  1  0.73445840  0.51415082  0.42875255  1.0
  H  H47  1  0.76117768  0.48843545  0.35608188  1.0
  H  H48  1  0.73786898  0.56974676  0.37268390  1.0
  H  H49  1  0.69956696  0.90741239  0.30444449  1.0
  H  H50  1  0.76617566  0.99676903  0.29584351  1.0
  H  H51  1  0.65720721  0.96893217  0.27570568  1.0
  H  H52  1  0.03891387  0.92298355  0.12752871  1.0
  H  H53  1  0.97501678  0.91688779  0.04144682  1.0
  H  H54  1  0.93437788  0.83582760  0.06845511  1.0
  H  H55  1  0.16006976  0.31680682  0.30602028  1.0
  H  H56  1  0.05755697  0.30878333  0.29191226  1.0
  H  H57  1  0.12940093  0.38273748  0.27291229  1.0
  C  C58  1  0.92802388  0.98787946  0.67901013  1.0
  C  C59  1  0.03236987  0.20921216  0.53296310  1.0
  C  C60  1  0.27651563  0.17357021  0.72074478  1.0
  C  C61  1  0.79839745  0.02115392  0.43829798  1.0
  C  C62  1  0.23699407  0.24035800  0.66126980  1.0
  C  C63  1  0.88322863  0.04620335  0.54904943  1.0
  C  C64  1  0.94448918  0.18203757  0.42354579  1.0
  C  C65  1  0.06815165  0.05455869  0.73322675  1.0
  C  C66  1  0.99737990  0.04801497  0.74602148  1.0
  C  C67  1  0.97789767  0.23390031  0.49704784  1.0
  C  C68  1  0.29734510  0.25363359  0.72863662  1.0
  C  C69  1  0.81661018  0.05779772  0.51134994  1.0
  C  C70  1  0.72253141  0.75386445  0.40554943  1.0
  C  C71  1  0.26618034  0.08844917  0.51761435  1.0
  C  C72  1  0.06753577  0.82027562  0.59865758  1.0
  C  C73  1  0.93473695  0.97887925  0.27332170  1.0
  C  C74  1  0.07020292  0.07098727  0.33664411  1.0
  C  C75  1  0.93468825  0.76894137  0.51457776  1.0
  C  C76  1  0.75340743  0.75692338  0.31449343  1.0
  C  C77  1  0.23775186  0.98725248  0.55223779  1.0
  C  C78  1  0.68866759  0.71261211  0.33057681  1.0
  C  C79  1  0.30337673  0.04486670  0.54476668  1.0
  C  C80  1  0.98862646  0.74705570  0.55728142  1.0
  C  C81  1  0.00092680  0.03944561  0.26841395  1.0
  C  C82  1  0.64930678  0.11628113  0.51670535  1.0
  C  C83  1  0.71130243  0.10811661  0.49882734  1.0
  C  C84  1  0.76352953  0.08215916  0.53740976  1.0
  C  C85  1  0.75539246  0.07055633  0.59800914  1.0
  C  C86  1  0.69210113  0.07685124  0.61453931  1.0
  C  C87  1  0.63478117  0.09636480  0.57251510  1.0
  C  C88  1  0.49436996  0.01266276  0.57133865  1.0
  C  C89  1  0.41243701  0.99882593  0.56133608  1.0
  C  C90  1  0.39058418  0.05997483  0.56063064  1.0
  C  C91  1  0.45417903  0.13662649  0.57415616  1.0
  C  C92  1  0.53473549  0.14932054  0.58196457  1.0
  C  C93  1  0.55627725  0.08785910  0.57861577  1.0
  C  C94  1  0.03448519  0.45081872  0.57773197  1.0
  C  C95  1  0.04198964  0.38179481  0.55835294  1.0
  C  C96  1  0.96972007  0.30446241  0.52827630  1.0
  C  C97  1  0.89237539  0.29850293  0.52542114  1.0
  C  C98  1  0.88481508  0.36756146  0.54561271  1.0
  C  C99  1  0.95474953  0.44439164  0.56845842  1.0
  C  C100  1  0.89567941  0.52168074  0.51150997  1.0
  C  C101  1  0.90348304  0.59404481  0.50488136  1.0
  C  C102  1  0.97048335  0.66927076  0.56235443  1.0
  C  C103  1  0.01960015  0.66718376  0.62584142  1.0
  C  C104  1  0.00743159  0.59450293  0.63161003  1.0
  C  C105  1  0.94835503  0.51870680  0.57323782  1.0
  C  C106  1  0.60667251  0.64508370  0.26973800  1.0
  C  C107  1  0.54091319  0.65996027  0.23422219  1.0
  C  C108  1  0.47972209  0.60854653  0.16291377  1.0
  C  C109  1  0.48584622  0.54301060  0.12608994  1.0
  C  C110  1  0.54386917  0.52148089  0.16403658  1.0
  C  C111  1  0.60318995  0.57211791  0.23540673  1.0
  C  C112  1  0.33787654  0.39088511  0.90419306  1.0
  C  C113  1  0.29849227  0.33933631  0.83198618  1.0
  C  C114  1  0.42810682  0.43272231  0.94527440  1.0
  C  C115  1  0.34672099  0.32605423  0.79714194  1.0
  C  C116  1  0.43656400  0.37360438  0.83640248  1.0
  C  C117  1  0.47659825  0.42446658  0.90914499  1.0
  C  C118  1  0.99190702  0.08427433  0.81127225  1.0
  C  C119  1  0.06193555  0.12338591  0.88092573  1.0
  C  C120  1  0.05071920  0.14456570  0.94214343  1.0
  C  C121  1  0.96842457  0.12606159  0.93587383  1.0
  C  C122  1  0.89966579  0.09402552  0.86682721  1.0
  C  C123  1  0.91183343  0.07470210  0.80584771  1.0
  C  C124  1  0.96264816  0.05105853  0.08811817  1.0
  C  C125  1  0.96377407  0.01806802  0.13915856  1.0
  C  C126  1  0.99977472  0.13514907  0.10804657  1.0
  C  C127  1  0.99892569  0.06973958  0.21219618  1.0
  C  C128  1  0.03482931  0.15405810  0.23242920  1.0
  C  C129  1  0.03690145  0.18782103  0.18185010  1.0
  C  C130  1  0.52897589  0.08024261  0.41002791  1.0
  C  C131  1  0.45770271  0.87792286  0.56334670  1.0
  C  C132  1  0.38366572  0.18987010  0.82995429  1.0
  C  C133  1  0.76683282  0.53800208  0.39799422  1.0
  C  C134  1  0.71460872  0.96954532  0.31041634  1.0
  C  C135  1  0.97291834  0.90166012  0.08750485  1.0
  C  C136  1  0.10601011  0.32157196  0.27172152  1.0
  N  N137  1  0.95664461  0.96451497  0.63222194  1.0
  N  N138  1  0.03104769  0.14921135  0.48355563  1.0
  N  N139  1  0.20453623  0.12050030  0.65765669  1.0
  N  N140  1  0.84867474  0.98834387  0.43393021  1.0
  N  N141  1  0.18127853  0.16138778  0.61958097  1.0
  N  N142  1  0.90226124  0.00341403  0.50355259  1.0
  N  N143  1  0.97723853  0.13236302  0.41615703  1.0
  N  N144  1  0.04366787  0.00572630  0.66537780  1.0
  N  N145  1  0.80126369  0.81859844  0.43133037  1.0
  N  N146  1  0.18598382  0.05930851  0.51089353  1.0
  N  N147  1  0.05979037  0.88009831  0.58216741  1.0
  N  N148  1  0.96367891  0.97691228  0.33957974  1.0
  N  N149  1  0.04660699  0.03344156  0.37822232  1.0
  N  N150  1  0.97748194  0.84899301  0.53046825  1.0
  N  N151  1  0.82020110  0.82051359  0.37470468  1.0
  N  N152  1  0.16727070  0.99690465  0.53251633  1.0
  N  N153  1  0.43731138  0.50458510  0.05034333  1.0
  N  N154  1  0.47481998  0.47767843  0.02014211  1.0
  N  N155  1  0.94901987  0.12192874  0.99333435  1.0
  N  N156  1  0.01062539  0.16567214  0.05674196  1.0
  N  N157  1  0.84604486  0.93129345  0.22704118  1.0
  N  N158  1  0.83690881  0.44476297  0.44607905  1.0
  N  N159  1  0.05834174  0.59978774  0.70283531  1.0
  N  N160  1  0.27982105  0.39132214  0.93692316  1.0
  N  N161  1  0.49158086  0.36716280  0.80194360  1.0
  N  N162  1  0.24144435  0.29873685  0.63043097  1.0
  N  N163  1  0.88475995  0.17869831  0.35929252  1.0
  N  N164  1  0.15737873  0.09383714  0.78484837  1.0
  O  O165  1  0.81368695  0.93275876  0.16804769  1.0
  O  O166  1  0.79974126  0.88685595  0.25089756  1.0
  O  O167  1  0.60027636  0.14292202  0.47693891  1.0
  O  O168  1  0.51810290  0.95437008  0.57071496  1.0
  O  O169  1  0.86214553  0.43232150  0.40016184  1.0
  O  O170  1  0.76703443  0.39945778  0.44197323  1.0
  O  O171  1  0.31286785  0.14027341  0.75885910  1.0
  O  O172  1  0.85545176  0.59873960  0.44514893  1.0
  O  O173  1  0.02739718  0.54209483  0.71886396  1.0
  O  O174  1  0.12820855  0.66323204  0.74324510  1.0
  O  O175  1  0.27328299  0.35246645  0.97491445  1.0
  O  O176  1  0.23878547  0.42580961  0.91969750  1.0
  O  O177  1  0.56792689  0.39165807  0.84224511  1.0
  O  O178  1  0.45799411  0.33798752  0.73504237  1.0
  O  O179  1  0.73767667  0.01908760  0.38273853  1.0
  O  O180  1  0.93228062  0.93614405  0.12062755  1.0
  O  O181  1  0.06913758  0.26826952  0.19761933  1.0
  O  O182  1  0.27319327  0.37033048  0.67148231  1.0
  O  O183  1  0.21474964  0.27343049  0.56325525  1.0
  O  O184  1  0.86286963  0.23146800  0.36662072  1.0
  O  O185  1  0.85862438  0.12360038  0.30021178  1.0
  O  O186  1  0.19449857  0.16728213  0.82429778  1.0
  O  O187  1  0.19082304  0.05004546  0.78747564  1.0
