# generated using pymatgen
data_ZnH11C20N3O4
_symmetry_space_group_name_H-M   'P 1'
_cell_length_a   13.97525732
_cell_length_b   15.31282319
_cell_length_c   17.16623779
_cell_angle_alpha   91.33945946
_cell_angle_beta   94.72521220
_cell_angle_gamma   90.00678437
_symmetry_Int_Tables_number   1
_chemical_formula_structural   ZnH11C20N3O4
_chemical_formula_sum   'Zn2 H22 C40 N6 O8'
_cell_volume   3660.09218384
_cell_formula_units_Z   2
loop_
 _symmetry_equiv_pos_site_id
 _symmetry_equiv_pos_as_xyz
  1  'x, y, z'
loop_
 _atom_site_type_symbol
 _atom_site_label
 _atom_site_symmetry_multiplicity
 _atom_site_fract_x
 _atom_site_fract_y
 _atom_site_fract_z
 _atom_site_occupancy
  Zn  Zn0  1  0.39964872  0.49945818  0.49627551  1.0
  Zn  Zn1  1  0.60036100  0.49801707  0.50137332  1.0
  H  H2  1  0.36721295  0.54856905  0.74088323  1.0
  H  H3  1  0.63205893  0.50352210  0.25773306  1.0
  H  H4  1  0.74722808  0.37645990  0.44608845  1.0
  H  H5  1  0.25961162  0.56383756  0.60459938  1.0
  H  H6  1  0.75781368  0.62028022  0.55487095  1.0
  H  H7  1  0.23527981  0.43599494  0.38907403  1.0
  H  H8  1  0.93715927  0.62693367  0.55657172  1.0
  H  H9  1  0.05550486  0.43291704  0.38548890  1.0
  H  H10  1  0.37543547  0.56047199  0.88775557  1.0
  H  H11  1  0.62732807  0.51890202  0.11160756  1.0
  H  H12  1  0.31984173  0.53464232  0.09997690  1.0
  H  H13  1  0.67973934  0.51719072  0.89796061  1.0
  H  H14  1  0.32467609  0.51685948  0.24626448  1.0
  H  H15  1  0.67057983  0.50294796  0.75047463  1.0
  H  H16  1  0.37311969  0.22945805  0.57053452  1.0
  H  H17  1  0.64348537  0.77354633  0.57240569  1.0
  H  H18  1  0.63680532  0.21398679  0.45985330  1.0
  H  H19  1  0.35931877  0.77954515  0.45808381  1.0
  H  H20  1  0.63565505  0.05166788  0.46947665  1.0
  H  H21  1  0.35950846  0.94266809  0.46870049  1.0
  H  H22  1  0.92612805  0.37149237  0.44253593  1.0
  H  H23  1  0.08096869  0.56670775  0.61120629  1.0
  C  C24  1  0.50371455  0.32864409  0.50472016  1.0
  C  C25  1  0.50321724  0.66946640  0.50376550  1.0
  C  C26  1  0.43027939  0.19012938  0.54832833  1.0
  C  C27  1  0.58164035  0.81099026  0.54949018  1.0
  C  C28  1  0.50432657  0.23124374  0.51336047  1.0
  C  C29  1  0.50196670  0.76714177  0.51314551  1.0
  C  C30  1  0.57910550  0.18095518  0.48646823  1.0
  C  C31  1  0.42124502  0.81497402  0.48563672  1.0
  C  C32  1  0.57851102  0.09057615  0.49241252  1.0
  C  C33  1  0.42159814  0.90570088  0.49210499  1.0
  C  C34  1  0.50401417  0.04770519  0.52604118  1.0
  C  C35  1  0.50194707  0.95129113  0.52640494  1.0
  C  C36  1  0.89208101  0.42856503  0.46733036  1.0
  C  C37  1  0.11164709  0.53778300  0.56027453  1.0
  C  C38  1  0.79291551  0.43036016  0.46926732  1.0
  C  C39  1  0.21073337  0.53632327  0.55751044  1.0
  C  C40  1  0.79899610  0.56674431  0.53130637  1.0
  C  C41  1  0.19720299  0.46355874  0.43690135  1.0
  C  C42  1  0.89843495  0.56950514  0.53209402  1.0
  C  C43  1  0.09768065  0.46196462  0.43573967  1.0
  C  C44  1  0.94716515  0.49932211  0.49934270  1.0
  C  C45  1  0.05274149  0.49975344  0.49846475  1.0
  C  C46  1  0.48313416  0.49972802  0.34698602  1.0
  C  C47  1  0.51115097  0.51146215  0.65059365  1.0
  C  C48  1  0.47867973  0.50885064  0.26011453  1.0
  C  C49  1  0.51810661  0.52347187  0.73763101  1.0
  C  C50  1  0.56422469  0.51012062  0.22227323  1.0
  C  C51  1  0.43504890  0.54137405  0.77616694  1.0
  C  C52  1  0.56194726  0.51905562  0.14202921  1.0
  C  C53  1  0.43931362  0.54817241  0.85696315  1.0
  C  C54  1  0.47301355  0.52804518  0.09809035  1.0
  C  C55  1  0.52805364  0.53746688  0.90077804  1.0
  C  C56  1  0.38748408  0.52757973  0.13568369  1.0
  C  C57  1  0.61192782  0.52373244  0.86242748  1.0
  C  C58  1  0.39030901  0.51762679  0.21618308  1.0
  C  C59  1  0.60682643  0.51595499  0.78129524  1.0
  C  C60  1  0.42998100  0.09900339  0.55542515  1.0
  C  C61  1  0.58211354  0.90240252  0.55678295  1.0
  C  C62  1  0.35513800  0.05919597  0.59420089  1.0
  C  C63  1  0.66402217  0.94448833  0.59659952  1.0
  N  N64  1  0.46179054  0.53471849  0.01595620  1.0
  N  N65  1  0.53986301  0.53633545  0.98322186  1.0
  N  N66  1  0.74727433  0.49831999  0.50059459  1.0
  N  N67  1  0.25262518  0.49991064  0.49685087  1.0
  N  N68  1  0.29350685  0.02799680  0.62640858  1.0
  N  N69  1  0.73199515  0.97663893  0.62974819  1.0
  O  O70  1  0.42534601  0.36796062  0.51481106  1.0
  O  O71  1  0.58391807  0.63197219  0.51835990  1.0
  O  O72  1  0.58175897  0.36392866  0.48800419  1.0
  O  O73  1  0.42385172  0.63225903  0.48204633  1.0
  O  O74  1  0.40525931  0.48248593  0.37756552  1.0
  O  O75  1  0.58705432  0.48877002  0.61911140  1.0
  O  O76  1  0.56513940  0.51083944  0.38413355  1.0
  O  O77  1  0.42920557  0.52446616  0.61413485  1.0
