# generated using pymatgen
data_AlH14C20N2O5
_symmetry_space_group_name_H-M   'P 1'
_cell_length_a   6.62916421
_cell_length_b   22.04674444
_cell_length_c   27.40544172
_cell_angle_alpha   78.57970565
_cell_angle_beta   88.70427849
_cell_angle_gamma   89.94827283
_symmetry_Int_Tables_number   1
_chemical_formula_structural   AlH14C20N2O5
_chemical_formula_sum   'Al4 H56 C80 N8 O20'
_cell_volume   3925.01468070
_cell_formula_units_Z   4
loop_
 _symmetry_equiv_pos_site_id
 _symmetry_equiv_pos_as_xyz
  1  'x, y, z'
loop_
 _atom_site_type_symbol
 _atom_site_label
 _atom_site_symmetry_multiplicity
 _atom_site_fract_x
 _atom_site_fract_y
 _atom_site_fract_z
 _atom_site_occupancy
  Al  Al0  1  0.80263637  0.74683918  0.75136451  1.0
  Al  Al1  1  0.19543854  0.25355882  0.24842573  1.0
  Al  Al2  1  0.30225804  0.75225948  0.74720449  1.0
  Al  Al3  1  0.69568947  0.24821399  0.25253182  1.0
  H  H4  1  0.53124286  0.55712445  0.04294169  1.0
  H  H5  1  0.46789986  0.44352044  0.95727378  1.0
  H  H6  1  0.04574310  0.93724413  0.45842046  1.0
  H  H7  1  0.95343332  0.06241990  0.54056073  1.0
  H  H8  1  0.33315534  0.56431947  0.80036753  1.0
  H  H9  1  0.66541837  0.43632355  0.19974964  1.0
  H  H10  1  0.81511000  0.93816925  0.69747430  1.0
  H  H11  1  0.18215831  0.06215754  0.30164210  1.0
  H  H12  1  0.54335807  0.51823831  0.13052137  1.0
  H  H13  1  0.45504528  0.48244871  0.86962842  1.0
  H  H14  1  0.06167576  0.97799538  0.37112504  1.0
  H  H15  1  0.93631286  0.02210461  0.62793913  1.0
  H  H16  1  0.67173687  0.56979851  0.95880056  1.0
  H  H17  1  0.32737415  0.43100716  0.04141598  1.0
  H  H18  1  0.17621549  0.92557286  0.54207013  1.0
  H  H19  1  0.82337865  0.07383828  0.45687921  1.0
  H  H20  1  0.31961715  0.89740947  0.93928243  1.0
  H  H21  1  0.68031626  0.10286469  0.06026570  1.0
  H  H22  1  0.82376315  0.54767119  0.59397908  1.0
  H  H23  1  0.17322940  0.45318776  0.40513152  1.0
  H  H24  1  0.34419546  0.83259525  0.87409065  1.0
  H  H25  1  0.65436107  0.16773200  0.12537694  1.0
  H  H26  1  0.85830601  0.61414788  0.65734729  1.0
  H  H27  1  0.13931193  0.38607919  0.34219542  1.0
  H  H28  1  0.27247279  0.01421078  0.93500741  1.0
  H  H29  1  0.72795880  0.98606083  0.06484634  1.0
  H  H30  1  0.77072746  0.57792058  0.49849193  1.0
  H  H31  1  0.22570253  0.42339537  0.50072122  1.0
  H  H32  1  0.26733934  0.07928968  0.99889821  1.0
  H  H33  1  0.73324589  0.92103748  0.00089156  1.0
  H  H34  1  0.75971096  0.51699862  0.43186938  1.0
  H  H35  1  0.23685253  0.48432864  0.56732657  1.0
  H  H36  1  0.83301044  0.66602145  0.87052915  1.0
  H  H37  1  0.83540180  0.63888425  0.93404761  1.0
  H  H38  1  0.16399315  0.36189785  0.06623140  1.0
  H  H39  1  0.16621418  0.33472840  0.12974647  1.0
  H  H40  1  0.34807081  0.82881448  0.62814148  1.0
  H  H41  1  0.34918972  0.85857283  0.56603023  1.0
  H  H42  1  0.65000843  0.14104836  0.43318052  1.0
  H  H43  1  0.65056352  0.17102575  0.37116532  1.0
  H  H44  1  0.72450621  0.87284215  0.83857772  1.0
  H  H45  1  0.27416962  0.12800174  0.16120233  1.0
  H  H46  1  0.24279093  0.67179359  0.63456668  1.0
  H  H47  1  0.75522533  0.32892541  0.36535954  1.0
  H  H48  1  0.66739880  0.98474520  0.91828175  1.0
  H  H49  1  0.56099333  0.95063545  0.87443197  1.0
  H  H50  1  0.43906249  0.05035400  0.12542678  1.0
  H  H51  1  0.33315383  0.01603679  0.08160006  1.0
  H  H52  1  0.06362081  0.63915850  0.56940187  1.0
  H  H53  1  0.16647222  0.59232382  0.53271361  1.0
  H  H54  1  0.83040756  0.40927854  0.46670407  1.0
  H  H55  1  0.93376879  0.36207930  0.43036539  1.0
  H  H56  1  0.53183471  0.69998680  0.80689950  1.0
  H  H57  1  0.46640084  0.30098131  0.19311951  1.0
  H  H58  1  0.03924769  0.80113597  0.69325270  1.0
  H  H59  1  0.95879565  0.19896484  0.30629016  1.0
  C  C60  1  0.56685898  0.68912475  0.68525776  1.0
  C  C61  1  0.43118188  0.31109351  0.31469121  1.0
  C  C62  1  0.03948154  0.80962844  0.81445411  1.0
  C  C63  1  0.95849460  0.19106590  0.18507456  1.0
  C  C64  1  0.55693349  0.84939087  0.69305473  1.0
  C  C65  1  0.44096649  0.15078439  0.30628033  1.0
  C  C66  1  0.06866097  0.65054889  0.80527361  1.0
  C  C67  1  0.92973811  0.35010436  0.19483512  1.0
  C  C68  1  0.90005677  0.40505153  0.15518817  1.0
  C  C69  1  0.09852505  0.59564416  0.84498595  1.0
  C  C70  1  0.41010157  0.09425658  0.34540349  1.0
  C  C71  1  0.58805569  0.90578237  0.65373784  1.0
  C  C72  1  0.67301371  0.48956571  0.12519523  1.0
  C  C73  1  0.32552591  0.51113583  0.87494292  1.0
  C  C74  1  0.18858249  0.00757831  0.37584155  1.0
  C  C75  1  0.80962138  0.99245606  0.62319891  1.0
  C  C76  1  0.73957281  0.44456830  0.16316208  1.0
  C  C77  1  0.25904106  0.55613596  0.83696840  1.0
  C  C78  1  0.25445584  0.05388634  0.33770151  1.0
  C  C79  1  0.74335230  0.94628819  0.66138510  1.0
  C  C80  1  0.00286302  0.41306185  0.10837000  1.0
  C  C81  1  0.99613878  0.58766436  0.89186031  1.0
  C  C82  1  0.50652398  0.08751092  0.39148422  1.0
  C  C83  1  0.49219092  0.91229433  0.60763403  1.0
  C  C84  1  0.94396396  0.46334630  0.06869739  1.0
  C  C85  1  0.05511403  0.53738093  0.93151522  1.0
  C  C86  1  0.44961140  0.03628511  0.43115043  1.0
  C  C87  1  0.54945665  0.96336659  0.56785978  1.0
  C  C88  1  0.76791060  0.49753521  0.07750762  1.0
  C  C89  1  0.23102087  0.50315670  0.92267439  1.0
  C  C90  1  0.27906603  0.00000849  0.42295407  1.0
  C  C91  1  0.71977772  0.99976877  0.57604535  1.0
  C  C92  1  0.04532202  0.47923620  0.02019302  1.0
  C  C93  1  0.95380315  0.52150053  0.98001009  1.0
  C  C94  1  0.54548743  0.02151115  0.47926994  1.0
  C  C95  1  0.45383563  0.97799139  0.51970352  1.0
  C  C96  1  0.75956802  0.54548153  0.98952542  1.0
  C  C97  1  0.23938379  0.45517404  0.01063963  1.0
  C  C98  1  0.26481519  0.95128572  0.51096044  1.0
  C  C99  1  0.73456902  0.04820856  0.48799429  1.0
  C  C100  1  0.67692207  0.53660343  0.03654192  1.0
  C  C101  1  0.32207995  0.46403503  0.96361303  1.0
  C  C102  1  0.18779953  0.95946933  0.46428848  1.0
  C  C103  1  0.81144526  0.04013844  0.53468128  1.0
  C  C104  1  0.85452395  0.87913366  0.86078072  1.0
  C  C105  1  0.14435433  0.12150198  0.13899168  1.0
  C  C106  1  0.36940547  0.64440621  0.62498715  1.0
  C  C107  1  0.62830653  0.35630057  0.37478874  1.0
  C  C108  1  0.84004715  0.91717962  0.89606339  1.0
  C  C109  1  0.15952017  0.08341138  0.10375291  1.0
  C  C110  1  0.34807865  0.60774751  0.58901267  1.0
  C  C111  1  0.64928873  0.39324845  0.41057008  1.0
  C  C112  1  0.01059860  0.92347518  0.92514416  1.0
  C  C113  1  0.98925238  0.07691034  0.07463560  1.0
  C  C114  1  0.51589581  0.57268518  0.57732498  1.0
  C  C115  1  0.48116023  0.42835847  0.42202720  1.0
  C  C116  1  0.18964183  0.89271961  0.91655709  1.0
  C  C117  1  0.80990923  0.10761466  0.08307626  1.0
  C  C118  1  0.69657259  0.57549866  0.60254294  1.0
  C  C119  1  0.30061885  0.42531825  0.39678218  1.0
  C  C120  1  0.20474099  0.85629976  0.88052861  1.0
  C  C121  1  0.79408842  0.14408814  0.11904787  1.0
  C  C122  1  0.71747241  0.61228562  0.63796181  1.0
  C  C123  1  0.27999457  0.38817060  0.36161877  1.0
  C  C124  1  0.03442060  0.84922305  0.85272225  1.0
  C  C125  1  0.96410971  0.15134802  0.14689874  1.0
  C  C126  1  0.55203670  0.64736996  0.64886257  1.0
  C  C127  1  0.44580147  0.35307406  0.35092515  1.0
  C  C128  1  0.15389781  0.00750425  0.96385906  1.0
  C  C129  1  0.84668555  0.99279168  0.03600859  1.0
  C  C130  1  0.65223566  0.54336345  0.49937633  1.0
  C  C131  1  0.34419161  0.45795509  0.49982974  1.0
  C  C132  1  0.15101864  0.04410335  0.99984534  1.0
  C  C133  1  0.84953329  0.95622457  0.99999708  1.0
  C  C134  1  0.64604410  0.50905758  0.46188714  1.0
  C  C135  1  0.35046894  0.49224341  0.53732398  1.0
  C  C136  1  0.99687969  0.03757937  0.03671112  1.0
  C  C137  1  0.00361754  0.96274858  0.96312501  1.0
  C  C138  1  0.49141660  0.46552752  0.46132214  1.0
  C  C139  1  0.50513160  0.53572685  0.53791329  1.0
  N  N140  1  0.85123035  0.62972567  0.89940610  1.0
  N  N141  1  0.14792315  0.37102708  0.10087455  1.0
  N  N142  1  0.35474571  0.86746395  0.60087657  1.0
  N  N143  1  0.64412145  0.13226741  0.39831376  1.0
  N  N144  1  0.65955546  0.94681373  0.90263062  1.0
  N  N145  1  0.34042817  0.05396602  0.09725738  1.0
  N  N146  1  0.16499826  0.60572324  0.56603690  1.0
  N  N147  1  0.83225420  0.39554792  0.43351792  1.0
  O  O148  1  0.37961867  0.83288046  0.70980825  1.0
  O  O149  1  0.61820846  0.16748210  0.28960705  1.0
  O  O150  1  0.89546385  0.67721410  0.79980400  1.0
  O  O151  1  0.10299403  0.32351360  0.20034057  1.0
  O  O152  1  0.73447725  0.69252421  0.70654109  1.0
  O  O153  1  0.26340662  0.30754182  0.29351403  1.0
  O  O154  1  0.20941912  0.78850268  0.80275286  1.0
  O  O155  1  0.78845294  0.21212148  0.19677538  1.0
  O  O156  1  0.71722896  0.81964350  0.70674967  1.0
  O  O157  1  0.28057896  0.18051733  0.29265565  1.0
  O  O158  1  0.22423302  0.67027992  0.77854665  1.0
  O  O159  1  0.77401259  0.33023685  0.22144765  1.0
  O  O160  1  0.86994487  0.79916940  0.79666462  1.0
  O  O161  1  0.12801505  0.20172031  0.20278644  1.0
  O  O162  1  0.40832460  0.71986304  0.69176627  1.0
  O  O163  1  0.58987793  0.28041140  0.30817707  1.0
  O  O164  1  0.54604652  0.73650431  0.78067501  1.0
  O  O165  1  0.45205392  0.26419192  0.21908378  1.0
  O  O166  1  0.05207038  0.76285920  0.71761534  1.0
  O  O167  1  0.94582540  0.23737809  0.28209565  1.0
