# generated using pymatgen
data_ZnH9C17N3O4
_symmetry_space_group_name_H-M   'P 1'
_cell_length_a   18.12710141
_cell_length_b   23.31593250
_cell_length_c   23.31592314
_cell_angle_alpha   63.13820456
_cell_angle_beta   67.14442250
_cell_angle_gamma   67.14435903
_symmetry_Int_Tables_number   1
_chemical_formula_structural   ZnH9C17N3O4
_chemical_formula_sum   'Zn8 H72 C136 N24 O32'
_cell_volume   7824.52725048
_cell_formula_units_Z   8
loop_
 _symmetry_equiv_pos_site_id
 _symmetry_equiv_pos_as_xyz
  1  'x, y, z'
loop_
 _atom_site_type_symbol
 _atom_site_label
 _atom_site_symmetry_multiplicity
 _atom_site_fract_x
 _atom_site_fract_y
 _atom_site_fract_z
 _atom_site_occupancy
  Zn  Zn0  1  0.52702085  0.63906052  0.28358027  1.0
  Zn  Zn1  1  0.94975773  0.86098125  0.21641864  1.0
  Zn  Zn2  1  0.47297830  0.71641715  0.36093958  1.0
  Zn  Zn3  1  0.05024189  0.78358592  0.13902040  1.0
  Zn  Zn4  1  0.47298129  0.36093891  0.71641528  1.0
  Zn  Zn5  1  0.05024191  0.13902019  0.78358462  1.0
  Zn  Zn6  1  0.52702271  0.28358178  0.63905804  1.0
  Zn  Zn7  1  0.94975627  0.21641751  0.86098240  1.0
  H  H8  1  0.25284573  0.98586819  0.15602136  1.0
  H  H9  1  0.89465426  0.51412010  0.34401134  1.0
  H  H10  1  0.74715645  0.84398198  0.01412985  1.0
  H  H11  1  0.10534798  0.65598457  0.48588099  1.0
  H  H12  1  0.74715537  0.01413025  0.84398009  1.0
  H  H13  1  0.10535058  0.48587883  0.65598365  1.0
  H  H14  1  0.25284549  0.15602045  0.98586865  1.0
  H  H15  1  0.89465490  0.34401237  0.51411910  1.0
  H  H16  1  0.28728826  0.02888185  0.02888105  1.0
  H  H17  1  0.84503037  0.47109497  0.47109398  1.0
  H  H18  1  0.71272081  0.97111559  0.97111610  1.0
  H  H19  1  0.15497225  0.52890296  0.52890271  1.0
  H  H20  1  0.24601147  0.83634541  0.09924213  1.0
  H  H21  1  0.68158009  0.66369307  0.40057595  1.0
  H  H22  1  0.75398547  0.90075637  0.16365868  1.0
  H  H23  1  0.31841884  0.59942297  0.33630503  1.0
  H  H24  1  0.75398684  0.16365651  0.90075736  1.0
  H  H25  1  0.31841979  0.33630288  0.59942182  1.0
  H  H26  1  0.24601189  0.09924307  0.83634463  1.0
  H  H27  1  0.68158069  0.40057397  0.66369361  1.0
  H  H28  1  0.05382635  0.99728258  0.99728104  1.0
  H  H29  1  0.54843033  0.50267748  0.50267817  1.0
  H  H30  1  0.94616148  0.00272883  0.00272846  1.0
  H  H31  1  0.45157160  0.49732245  0.49731964  1.0
  H  H32  1  0.33081040  0.74940176  0.17681352  1.0
  H  H33  1  0.75704911  0.75060925  0.32308471  1.0
  H  H34  1  0.66918718  0.82318247  0.25059897  1.0
  H  H35  1  0.24294677  0.67691647  0.24939117  1.0
  H  H36  1  0.66918902  0.25059817  0.82318381  1.0
  H  H37  1  0.24294837  0.24938869  0.67691590  1.0
  H  H38  1  0.33081278  0.17681299  0.74940204  1.0
  H  H39  1  0.75704929  0.32308197  0.75060873  1.0
  H  H40  1  0.33553041  0.89762652  0.23524147  1.0
  H  H41  1  0.96837910  0.60233687  0.26486818  1.0
  H  H42  1  0.66447202  0.76476062  0.10236779  1.0
  H  H43  1  0.03162143  0.73512941  0.39766616  1.0
  H  H44  1  0.66447289  0.10237042  0.76475880  1.0
  H  H45  1  0.03162345  0.39766505  0.73512886  1.0
  H  H46  1  0.33553215  0.23524030  0.89762771  1.0
  H  H47  1  0.96837929  0.26486754  0.60233607  1.0
  H  H48  1  0.63842278  0.64009405  0.15324757  1.0
  H  H49  1  0.93164082  0.85986514  0.34678336  1.0
  H  H50  1  0.36157596  0.84675227  0.35990540  1.0
  H  H51  1  0.06835819  0.65321853  0.14013429  1.0
  H  H52  1  0.36157574  0.35990339  0.84675175  1.0
  H  H53  1  0.06836071  0.14013330  0.65321706  1.0
  H  H54  1  0.63842186  0.15324717  0.64009565  1.0
  H  H55  1  0.93164020  0.34678439  0.85986564  1.0
  H  H56  1  0.49240442  0.51568511  0.29912768  1.0
  H  H57  1  0.80717096  0.98434179  0.20084300  1.0
  H  H58  1  0.50759593  0.70087156  0.48431293  1.0
  H  H59  1  0.19283140  0.79915729  0.01565678  1.0
  H  H60  1  0.50759505  0.48431184  0.70087401  1.0
  H  H61  1  0.19283224  0.01565665  0.79915754  1.0
  H  H62  1  0.49240717  0.29912738  0.51568498  1.0
  H  H63  1  0.80717062  0.20084364  0.98434147  1.0
  H  H64  1  0.68263099  0.57739339  0.07577778  1.0
  H  H65  1  0.83574249  0.92252094  0.42427400  1.0
  H  H66  1  0.31736991  0.92422156  0.42260563  1.0
  H  H67  1  0.16425449  0.57572698  0.07747948  1.0
  H  H68  1  0.31736815  0.42260206  0.92422286  1.0
  H  H69  1  0.16425844  0.07747800  0.57572667  1.0
  H  H70  1  0.68263077  0.07577688  0.57739564  1.0
  H  H71  1  0.83574309  0.42427445  0.92252226  1.0
  H  H72  1  0.52993973  0.44701976  0.22839092  1.0
  H  H73  1  0.70537778  0.05297740  0.27160934  1.0
  H  H74  1  0.47006373  0.77160794  0.55297775  1.0
  H  H75  1  0.29462365  0.72838879  0.94702303  1.0
  H  H76  1  0.47006148  0.55297570  0.77161124  1.0
  H  H77  1  0.29462455  0.94702253  0.72838987  1.0
  H  H78  1  0.52994053  0.22839000  0.44702088  1.0
  H  H79  1  0.70537731  0.27161015  0.05297703  1.0
  C  C80  1  0.33862434  0.81797598  0.21081409  1.0
  C  C81  1  0.86743918  0.68201958  0.28921172  1.0
  C  C82  1  0.66137393  0.78918489  0.18202183  1.0
  C  C83  1  0.13255692  0.71078882  0.31798658  1.0
  C  C84  1  0.66137438  0.18202345  0.78918428  1.0
  C  C85  1  0.13255934  0.31798433  0.71078681  1.0
  C  C86  1  0.33862794  0.21081256  0.81797712  1.0
  C  C87  1  0.86743854  0.28920863  0.68201818  1.0
  C  C88  1  0.20122649  0.96894736  0.06995909  1.0
  C  C89  1  0.74011229  0.53104362  0.43002809  1.0
  C  C90  1  0.79877266  0.93004416  0.03105565  1.0
  C  C91  1  0.25988849  0.56997191  0.46895426  1.0
  C  C92  1  0.79877289  0.03105358  0.93004477  1.0
  C  C93  1  0.25989139  0.46895233  0.56996888  1.0
  C  C94  1  0.20122658  0.06995977  0.96894752  1.0
  C  C95  1  0.74011362  0.43002752  0.53104312  1.0
  C  C96  1  0.13473096  0.96044318  0.06022586  1.0
  C  C97  1  0.65538779  0.53955400  0.43977158  1.0
  C  C98  1  0.86526190  0.93978222  0.03956386  1.0
  C  C99  1  0.34461233  0.56022915  0.46044412  1.0
  C  C100  1  0.86526158  0.03956424  0.93978224  1.0
  C  C101  1  0.34461710  0.46044094  0.56022367  1.0
  C  C102  1  0.13473221  0.06022569  0.96044174  1.0
  C  C103  1  0.65538903  0.43977127  0.53955394  1.0
  C  C104  1  0.24426269  0.91744866  0.12145168  1.0
  C  C105  1  0.78314015  0.58254605  0.37852421  1.0
  C  C106  1  0.75573815  0.87854968  0.08255122  1.0
  C  C107  1  0.21686037  0.62147607  0.41745170  1.0
  C  C108  1  0.75573952  0.08255028  0.87854892  1.0
  C  C109  1  0.21686236  0.41745089  0.62147266  1.0
  C  C110  1  0.24426267  0.12145225  0.91744814  1.0
  C  C111  1  0.78314037  0.37852236  0.58254653  1.0
  C  C112  1  0.26973796  0.93396971  0.16052860  1.0
  C  C113  1  0.86420839  0.56602209  0.33949393  1.0
  C  C114  1  0.73026195  0.83947351  0.06602949  1.0
  C  C115  1  0.13579275  0.66050296  0.43398040  1.0
  C  C116  1  0.73026197  0.06602973  0.83947214  1.0
  C  C117  1  0.13579470  0.43397833  0.66050120  1.0
  C  C118  1  0.26973989  0.16052792  0.93396919  1.0
  C  C119  1  0.86420831  0.33949299  0.56602158  1.0
  C  C120  1  0.23259569  0.02409638  0.02409706  1.0
  C  C121  1  0.78076436  0.47588762  0.47588733  1.0
  C  C122  1  0.76740901  0.97590256  0.97590464  1.0
  C  C123  1  0.21923840  0.52410982  0.52410954  1.0
  C  C124  1  0.26531561  0.85009264  0.12906713  1.0
  C  C125  1  0.74447408  0.64991499  0.37084089  1.0
  C  C126  1  0.73468274  0.87093206  0.14990841  1.0
  C  C127  1  0.25552587  0.62915881  0.35008325  1.0
  C  C128  1  0.73468313  0.14990928  0.87093132  1.0
  C  C129  1  0.25552658  0.35008245  0.62915629  1.0
  C  C130  1  0.26531764  0.12906737  0.85009129  1.0
  C  C131  1  0.74447351  0.37083863  0.64991521  1.0
  C  C132  1  0.10372795  0.00531253  0.00531197  1.0
  C  C133  1  0.61436816  0.49466517  0.49466462  1.0
  C  C134  1  0.89626366  0.99469639  0.99469724  1.0
  C  C135  1  0.38563380  0.50533476  0.50533197  1.0
  C  C136  1  0.31255742  0.80120737  0.17251598  1.0
  C  C137  1  0.78629828  0.69879346  0.32743220  1.0
  C  C138  1  0.68743976  0.82748205  0.19879244  1.0
  C  C139  1  0.21369817  0.67256939  0.30120581  1.0
  C  C140  1  0.68744074  0.19879256  0.82748081  1.0
  C  C141  1  0.21370106  0.30120398  0.67256749  1.0
  C  C142  1  0.31255970  0.17251638  0.80120707  1.0
  C  C143  1  0.78629807  0.32742855  0.69879365  1.0
  C  C144  1  0.31560615  0.88479653  0.20504876  1.0
  C  C145  1  0.90544716  0.61518975  0.29501011  1.0
  C  C146  1  0.68439395  0.79495276  0.11520034  1.0
  C  C147  1  0.09455149  0.70498748  0.38481693  1.0
  C  C148  1  0.68439497  0.11520191  0.79495087  1.0
  C  C149  1  0.09455390  0.38481416  0.70498647  1.0
  C  C150  1  0.31560739  0.20504767  0.88479772  1.0
  C  C151  1  0.90544670  0.29500799  0.61518883  1.0
  C  C152  1  0.39274017  0.76580236  0.25526485  1.0
  C  C153  1  0.91383796  0.73418604  0.24475099  1.0
  C  C154  1  0.60725825  0.74473552  0.23419459  1.0
  C  C155  1  0.08615951  0.75525132  0.26581763  1.0
  C  C156  1  0.60726263  0.23419608  0.74473490  1.0
  C  C157  1  0.08616171  0.26581540  0.75525105  1.0
  C  C158  1  0.39274212  0.25526541  0.76580171  1.0
  C  C159  1  0.91383698  0.24474563  0.73418584  1.0
  C  C160  1  0.09141497  0.90622779  0.10668132  1.0
  C  C161  1  0.60428141  0.59381263  0.39335232  1.0
  C  C162  1  0.90857608  0.89332752  0.09378268  1.0
  C  C163  1  0.39571718  0.60664958  0.40618634  1.0
  C  C164  1  0.90857496  0.09378362  0.89332848  1.0
  C  C165  1  0.39572652  0.40618480  0.60663880  1.0
  C  C166  1  0.09141216  0.10668389  0.90622700  1.0
  C  C167  1  0.60428181  0.39335433  0.59380932  1.0
  C  C168  1  0.61641925  0.59703326  0.16705395  1.0
  C  C169  1  0.88040640  0.90293749  0.33297518  1.0
  C  C170  1  0.38358143  0.83294478  0.40296678  1.0
  C  C171  1  0.11959196  0.66702789  0.09706193  1.0
  C  C172  1  0.38358021  0.40296518  0.83294495  1.0
  C  C173  1  0.11959535  0.09706145  0.66702647  1.0
  C  C174  1  0.61641925  0.16705367  0.59703388  1.0
  C  C175  1  0.88040683  0.33297504  0.90293818  1.0
  C  C176  1  0.53417499  0.52692037  0.24919854  1.0
  C  C177  1  0.81026033  0.97308078  0.25079303  1.0
  C  C178  1  0.46582573  0.75080076  0.47307789  1.0
  C  C179  1  0.18973952  0.74920762  0.02691753  1.0
  C  C180  1  0.46582492  0.47307658  0.75080211  1.0
  C  C181  1  0.18974231  0.02691816  0.74920653  1.0
  C  C182  1  0.53417696  0.24919818  0.52691984  1.0
  C  C183  1  0.81026064  0.25079380  0.97308104  1.0
  C  C184  1  0.64045353  0.56228554  0.12488263  1.0
  C  C185  1  0.82755186  0.93768064  0.37515336  1.0
  C  C186  1  0.35954729  0.87511659  0.43771325  1.0
  C  C187  1  0.17244534  0.62484772  0.06231957  1.0
  C  C188  1  0.35954697  0.43771091  0.87511717  1.0
  C  C189  1  0.17245062  0.06231879  0.62484664  1.0
  C  C190  1  0.64045383  0.12488185  0.56228638  1.0
  C  C191  1  0.82755208  0.37515421  0.93768139  1.0
  C  C192  1  0.55530109  0.48931775  0.21008913  1.0
  C  C193  1  0.75470947  0.01066851  0.28991375  1.0
  C  C194  1  0.44470070  0.78991067  0.51067996  1.0
  C  C195  1  0.24529039  0.71008554  0.98933096  1.0
  C  C196  1  0.44469912  0.51067821  0.78991249  1.0
  C  C197  1  0.24529359  0.98933043  0.71008600  1.0
  C  C198  1  0.55530196  0.21008827  0.48931839  1.0
  C  C199  1  0.75470881  0.28991489  0.01066924  1.0
  C  C200  1  0.60903321  0.50759685  0.14629115  1.0
  C  C201  1  0.76290384  0.99238489  0.35372890  1.0
  C  C202  1  0.39096834  0.85370913  0.49240191  1.0
  C  C203  1  0.23709534  0.64627043  0.00761430  1.0
  C  C204  1  0.39096625  0.49240010  0.85371055  1.0
  C  C205  1  0.23709923  0.00761405  0.64627024  1.0
  C  C206  1  0.60903458  0.14629030  0.50759705  1.0
  C  C207  1  0.76290342  0.35373000  0.99238634  1.0
  C  C208  1  0.63397622  0.47094436  0.10161364  1.0
  C  C209  1  0.70656582  0.02905015  0.39838623  1.0
  C  C210  1  0.36602655  0.89838524  0.52905532  1.0
  C  C211  1  0.29343223  0.60161216  0.97095005  1.0
  C  C212  1  0.36602195  0.52905408  0.89838715  1.0
  C  C213  1  0.29343852  0.97094879  0.60161284  1.0
  C  C214  1  0.63397779  0.10161369  0.47094375  1.0
  C  C215  1  0.70656518  0.39838728  0.02905021  1.0
  N  N216  1  0.56377173  0.57991175  0.22778476  1.0
  N  N217  1  0.87141400  0.92008719  0.27220759  1.0
  N  N218  1  0.43622823  0.77221380  0.42008675  1.0
  N  N219  1  0.12858433  0.72779581  0.07991203  1.0
  N  N220  1  0.43622780  0.42008520  0.77221388  1.0
  N  N221  1  0.12858759  0.07991225  0.72779388  1.0
  N  N222  1  0.56377251  0.22778464  0.57991147  1.0
  N  N223  1  0.87141390  0.27220761  0.92008711  1.0
  N  N224  1  0.61368645  0.41307036  0.12425511  1.0
  N  N225  1  0.65106896  0.08689402  0.37570858  1.0
  N  N226  1  0.38631876  0.87574514  0.58692661  1.0
  N  N227  1  0.34892914  0.62428935  0.91310654  1.0
  N  N228  1  0.38631235  0.58692609  0.87574579  1.0
  N  N229  1  0.34893559  0.91310690  0.62428954  1.0
  N  N230  1  0.61368679  0.12425529  0.41307143  1.0
  N  N231  1  0.65106816  0.37570909  0.08689451  1.0
  N  N232  1  0.67054459  0.50035809  0.03679378  1.0
  N  N233  1  0.70772343  0.99964671  0.46320899  1.0
  N  N234  1  0.32945614  0.96320632  0.49964192  1.0
  N  N235  1  0.29227405  0.53678947  0.00035430  1.0
  N  N236  1  0.32945142  0.49964036  0.96320855  1.0
  N  N237  1  0.29227924  0.00035222  0.53678936  1.0
  N  N238  1  0.67054760  0.03679312  0.50035741  1.0
  N  N239  1  0.70772224  0.46320947  0.99964682  1.0
  O  O240  1  0.04669290  0.90909953  0.16306793  1.0
  O  O241  1  0.61866174  0.59094614  0.33698247  1.0
  O  O242  1  0.95329558  0.83694062  0.09091279  1.0
  O  O243  1  0.38133378  0.66302080  0.40905097  1.0
  O  O244  1  0.95329353  0.09091487  0.83694154  1.0
  O  O245  1  0.38134540  0.40904582  0.66301195  1.0
  O  O246  1  0.04669082  0.16306980  0.90910060  1.0
  O  O247  1  0.61866424  0.33698212  0.59094573  1.0
  O  O248  1  0.40638559  0.78346782  0.29409563  1.0
  O  O249  1  0.98389368  0.71652851  0.20589065  1.0
  O  O250  1  0.59361279  0.70590440  0.21653116  1.0
  O  O251  1  0.01610463  0.79411130  0.28347593  1.0
  O  O252  1  0.59361475  0.21653560  0.70590320  1.0
  O  O253  1  0.01610644  0.28347292  0.79411035  1.0
  O  O254  1  0.40638930  0.29409503  0.78346743  1.0
  O  O255  1  0.98389228  0.20588565  0.71652772  1.0
  O  O256  1  0.09963251  0.86359802  0.08288227  1.0
  O  O257  1  0.54622471  0.63646400  0.41717527  1.0
  O  O258  1  0.90036089  0.91712913  0.13640820  1.0
  O  O259  1  0.45377425  0.58282587  0.36353515  1.0
  O  O260  1  0.90035554  0.13640991  0.91713116  1.0
  O  O261  1  0.45378314  0.36353391  0.58281202  1.0
  O  O262  1  0.09963230  0.08288277  0.86359800  1.0
  O  O263  1  0.54622492  0.41717605  0.63646288  1.0
  O  O264  1  0.42275016  0.70824673  0.25087855  1.0
  O  O265  1  0.88197633  0.79173752  0.24915552  1.0
  O  O266  1  0.57725046  0.74911999  0.29175213  1.0
  O  O267  1  0.11801625  0.75084962  0.20826561  1.0
  O  O268  1  0.57725286  0.29175370  0.74911963  1.0
  O  O269  1  0.11802010  0.20826342  0.75084829  1.0
  O  O270  1  0.42275223  0.25087894  0.70824561  1.0
  O  O271  1  0.88197869  0.24915082  0.79173705  1.0
