# generated using pymatgen
data_Zn4H12C24S4N4O13
_symmetry_space_group_name_H-M   'P 1'
_cell_length_a   19.73665930
_cell_length_b   19.75455783
_cell_length_c   33.57609113
_cell_angle_alpha   78.48127265
_cell_angle_beta   78.54478742
_cell_angle_gamma   63.53076817
_symmetry_Int_Tables_number   1
_chemical_formula_structural   Zn4H12C24S4N4O13
_chemical_formula_sum   'Zn16 H48 C96 S16 N16 O52'
_cell_volume   11392.66786559
_cell_formula_units_Z   4
loop_
 _symmetry_equiv_pos_site_id
 _symmetry_equiv_pos_as_xyz
  1  'x, y, z'
loop_
 _atom_site_type_symbol
 _atom_site_label
 _atom_site_symmetry_multiplicity
 _atom_site_fract_x
 _atom_site_fract_y
 _atom_site_fract_z
 _atom_site_occupancy
  Zn  Zn0  1  0.05405186  0.40164316  0.47860372  1.0
  Zn  Zn1  1  0.98432141  0.48300539  0.55994542  1.0
  Zn  Zn2  1  0.05934489  0.56047934  0.48362171  1.0
  Zn  Zn3  1  0.90221419  0.55464232  0.47789476  1.0
  Zn  Zn4  1  0.69516506  0.34770121  0.27216732  1.0
  Zn  Zn5  1  0.68937811  0.19066628  0.26634116  1.0
  Zn  Zn6  1  0.76687480  0.26560280  0.19011842  1.0
  Zn  Zn7  1  0.84827625  0.19625152  0.27151952  1.0
  Zn  Zn8  1  0.26671444  0.76568234  0.69012669  1.0
  Zn  Zn9  1  0.34835332  0.69624457  0.77144220  1.0
  Zn  Zn10  1  0.19514842  0.84768247  0.77218843  1.0
  Zn  Zn11  1  0.18935392  0.69066401  0.76636932  1.0
  Zn  Zn12  1  0.55930767  0.06049565  0.98367323  1.0
  Zn  Zn13  1  0.40226286  0.05461297  0.97788587  1.0
  Zn  Zn14  1  0.55404404  0.90162455  0.97862824  1.0
  Zn  Zn15  1  0.48433159  0.98296326  0.05998797  1.0
  H  H16  1  0.28484205  0.51080464  0.40898575  1.0
  H  H17  1  0.46420112  0.23927771  0.34155506  1.0
  H  H18  1  0.77198707  0.54642437  0.64794387  1.0
  H  H19  1  0.47882252  0.70353582  0.60160255  1.0
  H  H20  1  0.04659867  0.27069920  0.64848393  1.0
  H  H21  1  0.20375364  0.97807576  0.60202905  1.0
  H  H22  1  0.80049924  0.78030380  0.40281009  1.0
  H  H23  1  0.94907540  0.97115828  0.34711547  1.0
  H  H24  1  0.70397023  0.47798681  0.10203315  1.0
  H  H25  1  0.54646858  0.77065972  0.14842827  1.0
  H  H26  1  0.08662954  0.10768452  0.20968652  1.0
  H  H27  1  0.16432594  0.14098231  0.04003504  1.0
  H  H28  1  0.44915986  0.47111291  0.84701294  1.0
  H  H29  1  0.30051765  0.28033325  0.90272949  1.0
  H  H30  1  0.96416752  0.73931235  0.84157144  1.0
  H  H31  1  0.78479606  0.01085900  0.90898782  1.0
  H  H32  1  0.79751501  0.53463478  0.42156682  1.0
  H  H33  1  0.72386901  0.52827772  0.40496066  1.0
  H  H34  1  0.94696618  0.21036389  0.33382403  1.0
  H  H35  1  0.99717161  0.19311306  0.37389868  1.0
  H  H36  1  0.71498050  0.45253106  0.32855701  1.0
  H  H37  1  0.72133786  0.52627132  0.34498377  1.0
  H  H38  1  0.04011707  0.30287303  0.41631917  1.0
  H  H39  1  0.05735288  0.25293799  0.37620793  1.0
  H  H40  1  0.14540019  0.63566370  0.52183247  1.0
  H  H41  1  0.21416851  0.65718754  0.53322655  1.0
  H  H42  1  0.11496706  0.60388588  0.72810540  1.0
  H  H43  1  0.09359564  0.53517171  0.71666917  1.0
  H  H44  1  0.22272641  0.73343601  0.60960946  1.0
  H  H45  1  0.18763376  0.74570779  0.56449198  1.0
  H  H46  1  0.01642619  0.52732679  0.64033797  1.0
  H  H47  1  0.00459877  0.56192832  0.68553084  1.0
  H  H48  1  0.72322230  0.23307441  0.10958581  1.0
  H  H49  1  0.68807223  0.24546013  0.06446258  1.0
  H  H50  1  0.51618138  0.02753974  0.14036181  1.0
  H  H51  1  0.50429773  0.06223023  0.18550334  1.0
  H  H52  1  0.64538276  0.13572310  0.02183860  1.0
  H  H53  1  0.71427776  0.15703154  0.03324742  1.0
  H  H54  1  0.61498885  0.10383074  0.22811669  1.0
  H  H55  1  0.59329176  0.03534471  0.21665193  1.0
  H  H56  1  0.21503203  0.95245703  0.82850730  1.0
  H  H57  1  0.22145566  0.02622954  0.84484704  1.0
  H  H58  1  0.54011864  0.80285764  0.91631608  1.0
  H  H59  1  0.55739725  0.75291146  0.87619625  1.0
  H  H60  1  0.29760049  0.03458672  0.92147640  1.0
  H  H61  1  0.22392544  0.02823671  0.90487031  1.0
  H  H62  1  0.44729775  0.71042127  0.83358785  1.0
  H  H63  1  0.49744154  0.69309070  0.87372058  1.0
  C  C64  1  0.06126800  0.31592883  0.56186310  1.0
  C  C65  1  0.06983844  0.56982981  0.56971107  1.0
  C  C66  1  0.18313875  0.43931245  0.43882213  1.0
  C  C67  1  0.93804206  0.68434444  0.43853524  1.0
  C  C68  1  0.93018262  0.43020626  0.43027506  1.0
  C  C69  1  0.81685940  0.56086098  0.56132395  1.0
  C  C70  1  0.56563650  0.31105178  0.31152996  1.0
  C  C71  1  0.68028649  0.17992404  0.18025953  1.0
  C  C72  1  0.68923948  0.43285355  0.18865838  1.0
  C  C73  1  0.93444330  0.18839026  0.18867967  1.0
  C  C74  1  0.81978803  0.32007385  0.31974647  1.0
  C  C75  1  0.81168872  0.06683389  0.31113858  1.0
  C  C76  1  0.43400540  0.68884009  0.68823843  1.0
  C  C77  1  0.31986685  0.82003398  0.81968216  1.0
  C  C78  1  0.18919906  0.93288979  0.68864264  1.0
  C  C79  1  0.06559081  0.81108533  0.81152940  1.0
  C  C80  1  0.18017467  0.68001554  0.68024467  1.0
  C  C81  1  0.31172219  0.56681038  0.81105128  1.0
  C  C82  1  0.43800711  0.18435105  0.93850931  1.0
  C  C83  1  0.43017499  0.93019590  0.93024807  1.0
  C  C84  1  0.68308306  0.93935870  0.93882299  1.0
  C  C85  1  0.56139458  0.81584679  0.06181577  1.0
  C  C86  1  0.56972964  0.06997520  0.06970884  1.0
  C  C87  1  0.31656717  0.06093966  0.06103127  1.0
  C  C88  1  0.90227968  0.40237982  0.40222702  1.0
  C  C89  1  0.84779292  0.34805263  0.34765562  1.0
  C  C90  1  0.82902015  0.44735521  0.38868167  1.0
  C  C91  1  0.92042882  0.30245711  0.36184018  1.0
  C  C92  1  0.80281366  0.42124717  0.36115200  1.0
  C  C93  1  0.94792129  0.32984057  0.38806830  1.0
  C  C94  1  0.09778187  0.59775884  0.59769905  1.0
  C  C95  1  0.15230761  0.65205490  0.65225827  1.0
  C  C96  1  0.14177555  0.64055468  0.58200033  1.0
  C  C97  1  0.10959475  0.60798435  0.66795648  1.0
  C  C98  1  0.16736081  0.66857476  0.60887048  1.0
  C  C99  1  0.08142433  0.58255973  0.64108393  1.0
  C  C100  1  0.30258503  0.45399844  0.40115261  1.0
  C  C101  1  0.44632532  0.29615002  0.34932978  1.0
  C  C102  1  0.25804843  0.41394562  0.41378929  1.0
  C  C103  1  0.49070764  0.33634485  0.33658331  1.0
  C  C104  1  0.37770803  0.33897322  0.37273218  1.0
  C  C105  1  0.37102237  0.41133516  0.37758528  1.0
  C  C106  1  0.72681467  0.57566121  0.62837422  1.0
  C  C107  1  0.52400815  0.67407135  0.62116252  1.0
  C  C108  1  0.74165983  0.58599138  0.58608104  1.0
  C  C109  1  0.50918737  0.66355108  0.66344981  1.0
  C  C110  1  0.60318312  0.64191036  0.60832590  1.0
  C  C111  1  0.64762127  0.60745323  0.64119994  1.0
  C  C112  1  0.07600816  0.22567570  0.62890302  1.0
  C  C113  1  0.17445225  0.02311608  0.62160727  1.0
  C  C114  1  0.08654160  0.24068350  0.58661917  1.0
  C  C115  1  0.16412247  0.00809894  0.66389360  1.0
  C  C116  1  0.14263995  0.10227886  0.60880146  1.0
  C  C117  1  0.10816180  0.14651752  0.64170275  1.0
  C  C118  1  0.84467275  0.80081521  0.39780895  1.0
  C  C119  1  0.90500882  0.95051899  0.35202040  1.0
  C  C120  1  0.91345082  0.75941235  0.41362141  1.0
  C  C121  1  0.83634890  0.99178676  0.33607733  1.0
  C  C122  1  0.90828099  0.88086014  0.37438944  1.0
  C  C123  1  0.84160997  0.87026935  0.37526821  1.0
  C  C124  1  0.65235074  0.15204746  0.15227198  1.0
  C  C125  1  0.59767825  0.09789173  0.09769734  1.0
  C  C126  1  0.66743197  0.16854322  0.10888138  1.0
  C  C127  1  0.58127502  0.08271845  0.14108650  1.0
  C  C128  1  0.64175586  0.14060779  0.08200772  1.0
  C  C129  1  0.60953004  0.10806316  0.16796006  1.0
  C  C130  1  0.67455272  0.52304482  0.12160215  1.0
  C  C131  1  0.57598034  0.72562648  0.12886267  1.0
  C  C132  1  0.66414039  0.50804331  0.16388789  1.0
  C  C133  1  0.58662826  0.74061095  0.08657612  1.0
  C  C134  1  0.60813675  0.64646285  0.14167163  1.0
  C  C135  1  0.64271554  0.60220590  0.10878322  1.0
  C  C136  1  0.08001835  0.12412587  0.17730906  1.0
  C  C137  1  0.17096875  0.12448441  0.07240964  1.0
  C  C138  1  0.00922712  0.16329099  0.16350113  1.0
  C  C139  1  0.24178389  0.08566000  0.08620868  1.0
  C  C140  1  0.11200722  0.13867867  0.10551702  1.0
  C  C141  1  0.13897742  0.11006507  0.14420639  1.0
  C  C142  1  0.34787352  0.84801162  0.84758379  1.0
  C  C143  1  0.40230866  0.90236365  0.90218290  1.0
  C  C144  1  0.30287936  0.92122008  0.86108505  1.0
  C  C145  1  0.44796613  0.82982639  0.88803023  1.0
  C  C146  1  0.32907516  0.94732818  0.88860279  1.0
  C  C147  1  0.42050131  0.80244062  0.86177039  1.0
  C  C148  1  0.40507018  0.45049898  0.85193728  1.0
  C  C149  1  0.34469910  0.30082099  0.89774233  1.0
  C  C150  1  0.33641369  0.49177261  0.83598959  1.0
  C  C151  1  0.41345938  0.25941241  0.91357231  1.0
  C  C152  1  0.34164727  0.37026603  0.87519274  1.0
  C  C153  1  0.40832741  0.38084777  0.87431724  1.0
  C  C154  1  0.94628548  0.79619098  0.84934049  1.0
  C  C155  1  0.80254462  0.95405056  0.90115856  1.0
  C  C156  1  0.99066906  0.83638236  0.83658414  1.0
  C  C157  1  0.75800916  0.91399882  0.91379469  1.0
  C  C158  1  0.87098541  0.91137861  0.87759122  1.0
  C  C159  1  0.87767160  0.83901586  0.87274262  1.0
  S  S160  1  0.29889060  0.32454923  0.39716722  1.0
  S  S161  1  0.44960188  0.42597650  0.35295200  1.0
  S  S162  1  0.65984411  0.63419294  0.56173979  1.0
  S  S163  1  0.59098903  0.61480033  0.68777927  1.0
  S  S164  1  0.13530013  0.15909607  0.56225047  1.0
  S  S165  1  0.11587679  0.08970675  0.68827257  1.0
  S  S166  1  0.97447486  0.80446371  0.40132964  1.0
  S  S167  1  0.77560967  0.94642205  0.34811297  1.0
  S  S168  1  0.61579067  0.58967919  0.18824821  1.0
  S  S169  1  0.63546807  0.65899571  0.06222739  1.0
  S  S170  1  0.01380814  0.18307529  0.11043241  1.0
  S  S171  1  0.23720054  0.06620091  0.13928241  1.0
  S  S172  1  0.27566303  0.44640433  0.84803197  1.0
  S  S173  1  0.47449489  0.30445542  0.90127572  1.0
  S  S174  1  0.94956102  0.92602119  0.85295109  1.0
  S  S175  1  0.79885187  0.82459540  0.89717842  1.0
  N  N176  1  0.77970428  0.51915373  0.39988528  1.0
  N  N177  1  0.96984603  0.23073992  0.35053546  1.0
  N  N178  1  0.73083773  0.47038485  0.35005394  1.0
  N  N179  1  0.01962353  0.28036184  0.39947064  1.0
  N  N180  1  0.16044396  0.66006009  0.54046308  1.0
  N  N181  1  0.09035126  0.58901555  0.70949812  1.0
  N  N182  1  0.20904370  0.71001647  0.58982414  1.0
  N  N183  1  0.04004748  0.54081273  0.66011748  1.0
  N  N184  1  0.70926583  0.20980989  0.08984643  1.0
  N  N185  1  0.53981130  0.04106013  0.16011596  1.0
  N  N186  1  0.66048939  0.16006627  0.04046816  1.0
  N  N187  1  0.59027686  0.08910416  0.20949811  1.0
  N  N188  1  0.23087668  0.97035452  0.84998914  1.0
  N  N189  1  0.51964230  0.78036852  0.89944291  1.0
  N  N190  1  0.27974913  0.01918645  0.89977784  1.0
  N  N191  1  0.46994410  0.73079367  0.85043293  1.0
  O  O192  1  0.99997184  0.49999147  0.50004827  1.0
  O  O193  1  0.07902069  0.31616853  0.52302965  1.0
  O  O194  1  0.03536005  0.52644798  0.58488686  1.0
  O  O195  1  0.15762561  0.50377379  0.45195268  1.0
  O  O196  1  0.02406904  0.37395360  0.58121588  1.0
  O  O197  1  0.15044002  0.39413250  0.44518279  1.0
  O  O198  1  0.08056849  0.58943739  0.53077266  1.0
  O  O199  1  0.00523003  0.65587430  0.44904296  1.0
  O  O200  1  0.89027011  0.49841557  0.43986208  1.0
  O  O201  1  0.89048786  0.65442386  0.44740169  1.0
  O  O202  1  0.99378255  0.38568216  0.44455171  1.0
  O  O203  1  0.87506165  0.52886231  0.58080908  1.0
  O  O204  1  0.81684306  0.57356841  0.52238556  1.0
  O  O205  1  0.74989642  0.25002774  0.25004779  1.0
  O  O206  1  0.59562030  0.35871556  0.30257573  1.0
  O  O207  1  0.66054310  0.16931512  0.21920190  1.0
  O  O208  1  0.72102048  0.37471779  0.16920030  1.0
  O  O209  1  0.59388351  0.24418530  0.30099042  1.0
  O  O210  1  0.67674634  0.43280349  0.22758632  1.0
  O  O211  1  0.72381234  0.21429391  0.16514002  1.0
  O  O212  1  0.87613847  0.22564979  0.16929931  1.0
  O  O213  1  0.86430882  0.25646024  0.30555681  1.0
  O  O214  1  0.93439927  0.17087979  0.22742099  1.0
  O  O215  1  0.75145437  0.35978975  0.31020552  1.0
  O  O216  1  0.74690649  0.09257534  0.29803849  1.0
  O  O217  1  0.85681909  0.09937844  0.30487471  1.0
  O  O218  1  0.24985730  0.75004341  0.75002646  1.0
  O  O219  1  0.37584871  0.72595662  0.66890521  1.0
  O  O220  1  0.36442494  0.75650596  0.80541951  1.0
  O  O221  1  0.17673120  0.93278834  0.72757202  1.0
  O  O222  1  0.43395295  0.67121598  0.72707828  1.0
  O  O223  1  0.22094603  0.87479981  0.66915285  1.0
  O  O224  1  0.25147070  0.85969032  0.81021530  1.0
  O  O225  1  0.09557249  0.85875910  0.80255582  1.0
  O  O226  1  0.16047747  0.66938618  0.71918626  1.0
  O  O227  1  0.09385258  0.74420683  0.80099879  1.0
  O  O228  1  0.22360076  0.71448248  0.66509743  1.0
  O  O229  1  0.35680345  0.59940663  0.80478056  1.0
  O  O230  1  0.24692931  0.59250720  0.79795827  1.0
  O  O231  1  0.49995265  0.99998656  0.00005330  1.0
  O  O232  1  0.50519751  0.15583140  0.94900407  1.0
  O  O233  1  0.39019737  0.99839341  0.93986510  1.0
  O  O234  1  0.65038344  0.89419251  0.94515481  1.0
  O  O235  1  0.39039371  0.15448995  0.94740281  1.0
  O  O236  1  0.65757332  0.00380632  0.95196891  1.0
  O  O237  1  0.49378219  0.88571792  0.94451338  1.0
  O  O238  1  0.57907800  0.81607344  0.02297601  1.0
  O  O239  1  0.53529153  0.02654791  0.08486407  1.0
  O  O240  1  0.52429515  0.87389280  0.08115807  1.0
  O  O241  1  0.58043679  0.08962293  0.03076462  1.0
  O  O242  1  0.31647334  0.07379606  0.02219119  1.0
  O  O243  1  0.37496005  0.02869627  0.08052222  1.0
