# generated using pymatgen
data_Zn4H4C40O13F16
_symmetry_space_group_name_H-M   'P 1'
_cell_length_a   23.85285005
_cell_length_b   23.85300004
_cell_length_c   23.85125813
_cell_angle_alpha   66.14190897
_cell_angle_beta   72.67360107
_cell_angle_gamma   107.32289302
_symmetry_Int_Tables_number   1
_chemical_formula_structural   Zn4H4C40O13F16
_chemical_formula_sum   'Zn8 H8 C80 O26 F32'
_cell_volume   10399.92397446
_cell_formula_units_Z   2
loop_
 _symmetry_equiv_pos_site_id
 _symmetry_equiv_pos_as_xyz
  1  'x, y, z'
loop_
 _atom_site_type_symbol
 _atom_site_label
 _atom_site_symmetry_multiplicity
 _atom_site_fract_x
 _atom_site_fract_y
 _atom_site_fract_z
 _atom_site_occupancy
  Zn  Zn0  1  0.05647391  0.10052834  0.45593065  1.0
  Zn  Zn1  1  0.05647181  0.95594254  0.48758333  1.0
  Zn  Zn2  1  0.94352238  0.95592962  0.60054155  1.0
  Zn  Zn3  1  0.94354144  0.98759906  0.45592785  1.0
  Zn  Zn4  1  0.94352914  0.39947164  0.04406659  1.0
  Zn  Zn5  1  0.05647883  0.54406827  0.89945833  1.0
  Zn  Zn6  1  0.94352933  0.54405780  0.01241194  1.0
  Zn  Zn7  1  0.05645792  0.51240307  0.04407282  1.0
  H  H8  1  0.92403824  0.12558898  0.29845428  1.0
  H  H9  1  0.07596346  0.37441158  0.20154422  1.0
  H  H10  1  0.92403639  0.22248987  0.20155164  1.0
  H  H11  1  0.07596376  0.27751017  0.29844795  1.0
  H  H12  1  0.92403671  0.79844127  0.77752740  1.0
  H  H13  1  0.07596615  0.70155802  0.72247029  1.0
  H  H14  1  0.92403915  0.70153883  0.87442587  1.0
  H  H15  1  0.07596302  0.79845993  0.62557140  1.0
  C  C16  1  0.18050220  0.09024400  0.40975467  1.0
  C  C17  1  0.99999823  0.86078105  0.63921839  1.0
  C  C18  1  0.99999218  0.09024632  0.59025050  1.0
  C  C19  1  0.81950131  0.90976435  0.59022920  1.0
  C  C20  1  0.00000322  0.13921993  0.36077869  1.0
  C  C21  1  0.99998949  0.90974396  0.40975333  1.0
  C  C22  1  0.99999785  0.40975760  0.90974434  1.0
  C  C23  1  0.00000351  0.63921771  0.86077900  1.0
  C  C24  1  0.81950013  0.40975313  0.09025620  1.0
  C  C25  1  0.99999544  0.59025880  0.09024345  1.0
  C  C26  1  0.99999717  0.36078064  0.13921978  1.0
  C  C27  1  0.18049899  0.59025504  0.90976387  1.0
  C  C28  1  0.00000145  0.19652764  0.30347362  1.0
  C  C29  1  0.99999943  0.30347397  0.19652555  1.0
  C  C30  1  0.95693477  0.18024708  0.27669069  1.0
  C  C31  1  0.04306606  0.31975348  0.22330891  1.0
  C  C32  1  0.95693438  0.23362435  0.22331274  1.0
  C  C33  1  0.04306669  0.26637673  0.27668615  1.0
  C  C34  1  0.99999849  0.80347385  0.69652665  1.0
  C  C35  1  0.00000301  0.69652440  0.80347019  1.0
  C  C36  1  0.95693449  0.77668265  0.76638480  1.0
  C  C37  1  0.04306744  0.72331559  0.73361233  1.0
  C  C38  1  0.95693503  0.72330381  0.81976207  1.0
  C  C39  1  0.04306622  0.77669390  0.68023547  1.0
  C  C40  1  0.99999686  0.37220784  0.87218335  1.0
  C  C41  1  0.95727316  0.29975120  0.90736547  1.0
  C  C42  1  0.95734623  0.26506972  0.87245918  1.0
  C  C43  1  0.99999426  0.30035211  0.80033626  1.0
  C  C44  1  0.04264359  0.37246763  0.76504343  1.0
  C  C45  1  0.04271870  0.40737452  0.79972411  1.0
  C  C46  1  0.99999052  0.26523056  0.76522026  1.0
  C  C47  1  0.99998478  0.23477764  0.73476974  1.0
  C  C48  1  0.99997734  0.19965663  0.69965420  1.0
  C  C49  1  0.95734015  0.12753718  0.73494929  1.0
  C  C50  1  0.95726285  0.09263030  0.70026968  1.0
  C  C51  1  0.99997371  0.12780248  0.62780512  1.0
  C  C52  1  0.04267781  0.20026164  0.59262170  1.0
  C  C53  1  0.04261059  0.23494152  0.62752982  1.0
  C  C54  1  0.00000892  0.62783402  0.12777764  1.0
  C  C55  1  0.04273651  0.63539067  0.15750462  1.0
  C  C56  1  0.04265933  0.67022072  0.19226174  1.0
  C  C57  1  0.00000271  0.69967825  0.19963574  1.0
  C  C58  1  0.95735875  0.69231676  0.17016479  1.0
  C  C59  1  0.95728972  0.65756624  0.13532834  1.0
  C  C60  1  0.99999527  0.73478486  0.23476389  1.0
  C  C61  1  0.99998780  0.76522053  0.26523114  1.0
  C  C62  1  0.99997895  0.80032431  0.30036265  1.0
  C  C63  1  0.04261058  0.80766857  0.32984963  1.0
  C  C64  1  0.04267915  0.84241333  0.36469062  1.0
  C  C65  1  0.99997529  0.87216646  0.37222081  1.0
  C  C66  1  0.95726192  0.86463018  0.34247513  1.0
  C  C67  1  0.95734007  0.82980224  0.30771562  1.0
  C  C68  1  0.74439062  0.37220131  0.12780657  1.0
  C  C69  1  0.70710858  0.29974616  0.15755352  1.0
  C  C70  1  0.63752120  0.26506569  0.19231037  1.0
  C  C71  1  0.60068944  0.30035080  0.19965977  1.0
  C  C72  1  0.63752024  0.37246872  0.17017432  1.0
  C  C73  1  0.70710673  0.40737458  0.13534184  1.0
  C  C74  1  0.53045371  0.26522763  0.23478617  1.0
  C  C75  1  0.46955043  0.23476568  0.26525085  1.0
  C  C76  1  0.39931523  0.19964463  0.30037204  1.0
  C  C77  1  0.36248389  0.12752940  0.32984400  1.0
  C  C78  1  0.29289715  0.09262300  0.36467971  1.0
  C  C79  1  0.25561256  0.12778994  0.37222820  1.0
  C  C80  1  0.29289480  0.20024444  0.34250283  1.0
  C  C81  1  0.36248125  0.23492385  0.30774794  1.0
  C  C82  1  0.25560912  0.62782153  0.87220534  1.0
  C  C83  1  0.29289768  0.65758013  0.79974145  1.0
  C  C84  1  0.36248403  0.69233011  0.76506444  1.0
  C  C85  1  0.39931180  0.69967146  0.80035738  1.0
  C  C86  1  0.36247375  0.67018056  0.87248214  1.0
  C  C87  1  0.29288747  0.63535262  0.90738653  1.0
  C  C88  1  0.46954740  0.73479150  0.76523185  1.0
  C  C89  1  0.53045158  0.76524880  0.73475828  1.0
  C  C90  1  0.60068657  0.80036464  0.69963587  1.0
  C  C91  1  0.63752635  0.82983934  0.62751372  1.0
  C  C92  1  0.70711397  0.86467303  0.59260788  1.0
  C  C93  1  0.74439142  0.87221928  0.62778580  1.0
  C  C94  1  0.70710111  0.84248158  0.70024646  1.0
  C  C95  1  0.63751462  0.80772846  0.73492435  1.0
  O  O96  1  0.00000012  0.99999820  0.50000081  1.0
  O  O97  1  0.15188971  0.12689185  0.41326138  1.0
  O  O98  1  0.04030098  0.88298660  0.57671103  1.0
  O  O99  1  0.95981467  0.02497988  0.62690896  1.0
  O  O100  1  0.15189021  0.02498746  0.43483508  1.0
  O  O101  1  0.04017191  0.12688233  0.52499637  1.0
  O  O102  1  0.95969137  0.88297745  0.65732742  1.0
  O  O103  1  0.84811032  0.91327211  0.62689146  1.0
  O  O104  1  0.95970641  0.07671960  0.38297621  1.0
  O  O105  1  0.84811829  0.93485433  0.52497454  1.0
  O  O106  1  0.04030577  0.15732088  0.38298050  1.0
  O  O107  1  0.04016998  0.91327759  0.43483325  1.0
  O  O108  1  0.95983278  0.93484232  0.41326592  1.0
  O  O109  1  0.00000143  0.50000198  0.99999855  1.0
  O  O110  1  0.95983393  0.37311606  0.97500276  1.0
  O  O111  1  0.04031221  0.61702338  0.84267153  1.0
  O  O112  1  0.84811192  0.47501019  0.06517396  1.0
  O  O113  1  0.04017337  0.47502280  0.87308709  1.0
  O  O114  1  0.84811279  0.37310954  0.08673139  1.0
  O  O115  1  0.95969875  0.61701164  0.92328550  1.0
  O  O116  1  0.95982626  0.58673278  0.06515638  1.0
  O  O117  1  0.04029757  0.42328304  0.11702119  1.0
  O  O118  1  0.04015116  0.56515185  0.08673891  1.0
  O  O119  1  0.95969534  0.34268124  0.11702008  1.0
  O  O120  1  0.15189001  0.58672165  0.87311227  1.0
  O  O121  1  0.15188146  0.56516765  0.97502395  1.0
  F  F122  1  0.91432890  0.26046613  0.97620907  1.0
  F  F123  1  0.08566492  0.47621593  0.76042416  1.0
  F  F124  1  0.08445246  0.40863137  0.69594549  1.0
  F  F125  1  0.91553503  0.19597805  0.90863152  1.0
  F  F126  1  0.91554526  0.09137230  0.80405062  1.0
  F  F127  1  0.08440404  0.30403855  0.59134892  1.0
  F  F128  1  0.08560257  0.23955209  0.52377090  1.0
  F  F129  1  0.91433033  0.02378618  0.73957415  1.0
  F  F130  1  0.08568927  0.60950705  0.15383763  1.0
  F  F131  1  0.91434767  0.65391341  0.10942986  1.0
  F  F132  1  0.91554481  0.71959293  0.17581383  1.0
  F  F133  1  0.08446817  0.67586779  0.21954241  1.0
  F  F134  1  0.08440554  0.78036837  0.32422303  1.0
  F  F135  1  0.91554604  0.82417397  0.28041585  1.0
  F  F136  1  0.91433014  0.89053838  0.34611509  1.0
  F  F137  1  0.08560307  0.84604682  0.39061025  1.0
  F  F138  1  0.73665944  0.26045524  0.15391590  1.0
  F  F139  1  0.73665542  0.47621773  0.10942539  1.0
  F  F140  1  0.60459189  0.40863516  0.17580230  1.0
  F  F141  1  0.60459592  0.19597023  0.21961233  1.0
  F  F142  1  0.39540984  0.09136356  0.32420225  1.0
  F  F143  1  0.39540935  0.30401293  0.28046907  1.0
  F  F144  1  0.26334348  0.23952947  0.34616852  1.0
  F  F145  1  0.26334660  0.02378255  0.39058012  1.0
  F  F146  1  0.26335226  0.65395124  0.76044233  1.0
  F  F147  1  0.26333215  0.60943243  0.97623503  1.0
  F  F148  1  0.39539537  0.67580000  0.90865747  1.0
  F  F149  1  0.39541653  0.71964074  0.69596071  1.0
  F  F150  1  0.60460754  0.82420317  0.59133921  1.0
  F  F151  1  0.60458069  0.78044137  0.80402162  1.0
  F  F152  1  0.73664422  0.84613398  0.73954400  1.0
  F  F153  1  0.73667129  0.89057282  0.52376358  1.0
