# generated using pymatgen
data_ZnH22C24NO10
_symmetry_space_group_name_H-M   'P 1'
_cell_length_a   13.94710162
_cell_length_b   15.13064030
_cell_length_c   15.87406340
_cell_angle_alpha   89.70708238
_cell_angle_beta   89.91463493
_cell_angle_gamma   89.29225384
_symmetry_Int_Tables_number   1
_chemical_formula_structural   ZnH22C24NO10
_chemical_formula_sum   'Zn2 H44 C48 N2 O20'
_cell_volume   3349.57827418
_cell_formula_units_Z   2
loop_
 _symmetry_equiv_pos_site_id
 _symmetry_equiv_pos_as_xyz
  1  'x, y, z'
loop_
 _atom_site_type_symbol
 _atom_site_label
 _atom_site_symmetry_multiplicity
 _atom_site_fract_x
 _atom_site_fract_y
 _atom_site_fract_z
 _atom_site_occupancy
  Zn  Zn0  1  0.39020992  0.50262032  0.51184612  1.0
  Zn  Zn1  1  0.59447508  0.51040915  0.50258617  1.0
  H  H2  1  0.35762914  0.06607737  0.41374630  1.0
  H  H3  1  0.53588465  0.96588399  0.62776459  1.0
  H  H4  1  0.43359088  0.92720169  0.37362921  1.0
  H  H5  1  0.62893718  0.06759955  0.54513899  1.0
  H  H6  1  0.74468176  0.58556522  0.39352137  1.0
  H  H7  1  0.23814271  0.63043719  0.54314614  1.0
  H  H8  1  0.74137287  0.42866145  0.60692609  1.0
  H  H9  1  0.24549165  0.36730162  0.47560792  1.0
  H  H10  1  0.25100547  0.45915121  0.03240068  1.0
  H  H11  1  0.29209772  0.51876937  0.12362574  1.0
  H  H12  1  0.22211867  0.42095990  0.13677130  1.0
  H  H13  1  0.69267082  0.43559035  0.80851373  1.0
  H  H14  1  0.73986704  0.37609894  0.89799548  1.0
  H  H15  1  0.80242630  0.47002922  0.85708479  1.0
  H  H16  1  0.39207488  0.24421530  0.93213234  1.0
  H  H17  1  0.43063085  0.30082703  0.83785159  1.0
  H  H18  1  0.30574826  0.28330097  0.85615681  1.0
  H  H19  1  0.74774554  0.41006970  0.12662039  1.0
  H  H20  1  0.67773917  0.46157330  0.20894467  1.0
  H  H21  1  0.78629023  0.51160981  0.17260192  1.0
  H  H22  1  0.38858940  0.35706397  0.34516040  1.0
  H  H23  1  0.29960848  0.30126564  0.28572493  1.0
  H  H24  1  0.42203679  0.26573243  0.27830992  1.0
  H  H25  1  0.51547359  0.73317429  0.77655783  1.0
  H  H26  1  0.55139149  0.66997382  0.68637317  1.0
  H  H27  1  0.43118951  0.71341920  0.69372187  1.0
  H  H28  1  0.28919325  0.72278447  0.41588616  1.0
  H  H29  1  0.32813592  0.70335734  0.30997390  1.0
  H  H30  1  0.30304637  0.81454078  0.34400134  1.0
  H  H31  1  0.78896442  0.27807996  0.50547595  1.0
  H  H32  1  0.70393263  0.29245368  0.42188863  1.0
  H  H33  1  0.75265933  0.18382636  0.44566086  1.0
  H  H34  1  0.85263321  0.69749931  0.34850370  1.0
  H  H35  1  0.84299663  0.60465312  0.27905500  1.0
  H  H36  1  0.94854106  0.67122387  0.27685235  1.0
  H  H37  1  0.13735299  0.74988994  0.51233967  1.0
  H  H38  1  0.13436445  0.71690087  0.62125936  1.0
  H  H39  1  0.03494010  0.77704061  0.57641089  1.0
  H  H40  1  0.83770018  0.31212012  0.65372757  1.0
  H  H41  1  0.84095611  0.40712268  0.72090972  1.0
  H  H42  1  0.93841191  0.32847490  0.72212289  1.0
  H  H43  1  0.14373632  0.24931662  0.50203378  1.0
  H  H44  1  0.15242780  0.27721823  0.39252141  1.0
  H  H45  1  0.04909507  0.21986076  0.43114129  1.0
  C  C46  1  0.49496695  0.33923666  0.47240398  1.0
  C  C47  1  0.48137669  0.67509793  0.53298095  1.0
  C  C48  1  0.49072215  0.05474708  0.48408125  1.0
  C  C49  1  0.48472317  0.95860725  0.49913595  1.0
  C  C50  1  0.88883865  0.54808962  0.43741225  1.0
  C  C51  1  0.09500922  0.57586949  0.52328250  1.0
  C  C52  1  0.88683246  0.45470930  0.56095563  1.0
  C  C53  1  0.09920976  0.42229686  0.48329640  1.0
  C  C54  1  0.78841758  0.55042169  0.43981334  1.0
  C  C55  1  0.19518996  0.57355645  0.52671078  1.0
  C  C56  1  0.78659945  0.46047355  0.56014879  1.0
  C  C57  1  0.19951436  0.42444253  0.48817875  1.0
  C  C58  1  0.93961741  0.49984402  0.49914605  1.0
  C  C59  1  0.04539935  0.49910890  0.50117245  1.0
  C  C60  1  0.49431402  0.52942949  0.34510513  1.0
  C  C61  1  0.50282353  0.46897056  0.66751352  1.0
  C  C62  1  0.44091389  0.41279311  0.96834182  1.0
  C  C63  1  0.59875935  0.48804555  0.05245042  1.0
  C  C64  1  0.43706397  0.42571878  0.05536866  1.0
  C  C65  1  0.60331916  0.47444800  0.96498588  1.0
  C  C66  1  0.52233208  0.44105541  0.92179005  1.0
  C  C67  1  0.51380713  0.46754476  0.09706996  1.0
  C  C68  1  0.51784210  0.44438111  0.83314693  1.0
  C  C69  1  0.50370233  0.49070081  0.18246641  1.0
  C  C70  1  0.49585851  0.51419371  0.25549514  1.0
  C  C71  1  0.51062731  0.45264325  0.75696227  1.0
  C  C72  1  0.41907268  0.10064081  0.43948761  1.0
  C  C73  1  0.51294171  0.92305460  0.57683215  1.0
  C  C74  1  0.45208738  0.90185192  0.43597204  1.0
  C  C75  1  0.56986451  0.10168117  0.51334850  1.0
  C  C76  1  0.42276409  0.19222412  0.42907479  1.0
  C  C77  1  0.50966732  0.83191349  0.59281561  1.0
  C  C78  1  0.45083012  0.81124947  0.45100562  1.0
  C  C79  1  0.57530743  0.19264862  0.50140310  1.0
  C  C80  1  0.49967807  0.24093841  0.46270499  1.0
  C  C81  1  0.47909184  0.77431996  0.52896716  1.0
  C  C82  1  0.27657278  0.45306886  0.09772493  1.0
  C  C83  1  0.73151682  0.44172159  0.86832494  1.0
  C  C84  1  0.37453573  0.29692089  0.88637374  1.0
  C  C85  1  0.72360165  0.47347259  0.15375851  1.0
  C  C86  1  0.36676553  0.29264050  0.32085647  1.0
  C  C87  1  0.50695626  0.72561166  0.70836051  1.0
  C  C88  1  0.33169743  0.74918559  0.36307580  1.0
  C  C89  1  0.72896085  0.24769651  0.47226457  1.0
  C  C90  1  0.89261673  0.64370163  0.31730848  1.0
  C  C91  1  0.09090200  0.72737824  0.56414691  1.0
  C  C92  1  0.88457516  0.36152570  0.68252456  1.0
  C  C93  1  0.10275266  0.26966811  0.44587324  1.0
  N  N94  1  0.74058184  0.50757997  0.50059627  1.0
  N  N95  1  0.24421109  0.49905426  0.50937532  1.0
  O  O96  1  0.41468586  0.37018871  0.49818855  1.0
  O  O97  1  0.56344769  0.63807659  0.53771863  1.0
  O  O98  1  0.40119882  0.63628849  0.52823454  1.0
  O  O99  1  0.56967444  0.38401609  0.45828130  1.0
  O  O100  1  0.41456839  0.51753508  0.38249313  1.0
  O  O101  1  0.58106580  0.46573144  0.62564619  1.0
  O  O102  1  0.41949443  0.48633289  0.63954645  1.0
  O  O103  1  0.57398696  0.54964275  0.37856369  1.0
  O  O104  1  0.36063487  0.39703909  0.10227802  1.0
  O  O105  1  0.68439280  0.50207669  0.92496984  1.0
  O  O106  1  0.36151018  0.37997892  0.92921308  1.0
  O  O107  1  0.67545312  0.52644899  0.09076811  1.0
  O  O108  1  0.34605726  0.23001237  0.38712488  1.0
  O  O109  1  0.53753050  0.80785108  0.67231928  1.0
  O  O110  1  0.43065673  0.75371969  0.38602137  1.0
  O  O111  1  0.65476968  0.23452044  0.53388844  1.0
  O  O112  1  0.94221320  0.58933673  0.37774472  1.0
  O  O113  1  0.04109919  0.64859383  0.54165750  1.0
  O  O114  1  0.93777209  0.40874997  0.61979481  1.0
  O  O115  1  0.04916624  0.34973180  0.46110565  1.0
