# generated using pymatgen
data_AlH6C21N3(OF)6
_symmetry_space_group_name_H-M   'P 1'
_cell_length_a   3.96746803
_cell_length_b   27.96153761
_cell_length_c   27.96671093
_cell_angle_alpha   60.00855572
_cell_angle_beta   89.98979429
_cell_angle_gamma   89.98712559
_symmetry_Int_Tables_number   1
_chemical_formula_structural   AlH6C21N3(OF)6
_chemical_formula_sum   'Al2 H12 C42 N6 O12 F12'
_cell_volume   2687.10064929
_cell_formula_units_Z   2
loop_
 _symmetry_equiv_pos_site_id
 _symmetry_equiv_pos_as_xyz
  1  'x, y, z'
loop_
 _atom_site_type_symbol
 _atom_site_label
 _atom_site_symmetry_multiplicity
 _atom_site_fract_x
 _atom_site_fract_y
 _atom_site_fract_z
 _atom_site_occupancy
  Al  Al0  1  0.01273426  0.50001289  0.99998706  1.0
  Al  Al1  1  0.00480167  0.83332948  0.33334930  1.0
  H  H2  1  0.68311613  0.69379796  0.48935113  1.0
  H  H3  1  0.65669900  0.64447186  0.59302165  1.0
  H  H4  1  0.43567276  0.53622120  0.74846153  1.0
  H  H5  1  0.55913236  0.69435910  0.73926461  1.0
  H  H6  1  0.68321078  0.81682997  0.19383983  1.0
  H  H7  1  0.65666136  0.76250452  0.14449033  1.0
  H  H8  1  0.43546873  0.71532149  0.03624214  1.0
  H  H9  1  0.55893526  0.56637259  0.19434519  1.0
  H  H10  1  0.68311911  0.98936126  0.31681422  1.0
  H  H11  1  0.65660595  0.09303556  0.26246828  1.0
  H  H12  1  0.43576214  0.24846120  0.21529773  1.0
  H  H13  1  0.55900410  0.23927476  0.06635208  1.0
  C  C14  1  0.51176953  0.41544110  0.04747401  1.0
  C  C15  1  0.51175241  0.53710243  0.91542338  1.0
  C  C16  1  0.51158515  0.54749050  0.03707779  1.0
  C  C17  1  0.50491349  0.79787127  0.41782235  1.0
  C  C18  1  0.50506163  0.78429911  0.29790075  1.0
  C  C19  1  0.50492342  0.91780312  0.28431562  1.0
  C  C20  1  0.50486208  0.77089689  0.47913049  1.0
  C  C21  1  0.60170194  0.71509827  0.51101971  1.0
  C  C22  1  0.58804735  0.68782876  0.56804550  1.0
  C  C23  1  0.48863436  0.71610016  0.59564595  1.0
  C  C24  1  0.40340353  0.77230674  0.56400380  1.0
  C  C25  1  0.40527547  0.79898111  0.50640957  1.0
  C  C26  1  0.46276239  0.56041878  0.76893990  1.0
  C  C27  1  0.49622329  0.61796571  0.73781220  1.0
  C  C28  1  0.53621793  0.64965739  0.76367699  1.0
  C  C29  1  0.54356661  0.62251979  0.82062631  1.0
  C  C30  1  0.50627850  0.56490494  0.85387988  1.0
  C  C31  1  0.46335481  0.53528235  0.82605131  1.0
  C  C32  1  0.50502417  0.74995517  0.27092728  1.0
  C  C33  1  0.60179066  0.77386768  0.21513676  1.0
  C  C34  1  0.58803398  0.74412300  0.18784271  1.0
  C  C35  1  0.48861967  0.68825815  0.21610497  1.0
  C  C36  1  0.40343208  0.66369860  0.27230334  1.0
  C  C37  1  0.40541763  0.69460565  0.29900587  1.0
  C  C38  1  0.46256615  0.67064469  0.06043411  1.0
  C  C39  1  0.49605669  0.64422175  0.11796547  1.0
  C  C40  1  0.53598488  0.58666743  0.14964689  1.0
  C  C41  1  0.54328694  0.55685645  0.12249597  1.0
  C  C42  1  0.50607240  0.58122888  0.06488723  1.0
  C  C43  1  0.46314377  0.63867831  0.03527259  1.0
  C  C44  1  0.50490897  0.97911974  0.24995576  1.0
  C  C45  1  0.60169355  0.01101845  0.27385951  1.0
  C  C46  1  0.58794761  0.06805676  0.24409045  1.0
  C  C47  1  0.48857716  0.09563831  0.18823666  1.0
  C  C48  1  0.40331362  0.06399033  0.16368371  1.0
  C  C49  1  0.40529865  0.00638528  0.19460882  1.0
  C  C50  1  0.46285614  0.26893806  0.17063182  1.0
  C  C51  1  0.49623570  0.23782537  0.14419739  1.0
  C  C52  1  0.53611220  0.26368184  0.08665455  1.0
  C  C53  1  0.54340745  0.32064191  0.05683948  1.0
  C  C54  1  0.50629733  0.35389240  0.08121644  1.0
  C  C55  1  0.46344540  0.32606256  0.13865922  1.0
  N  N56  1  0.47965746  0.69304791  0.65316397  1.0
  N  N57  1  0.48855014  0.64070177  0.67997038  1.0
  N  N58  1  0.47961983  0.65379070  0.19304131  1.0
  N  N59  1  0.48845631  0.67933162  0.14071076  1.0
  N  N60  1  0.47956692  0.15316039  0.15377216  1.0
  N  N61  1  0.48857774  0.17998195  0.17929406  1.0
  O  O62  1  0.27686425  0.55576900  0.00284981  1.0
  O  O63  1  0.27694441  0.44140211  0.05574688  1.0
  O  O64  1  0.27701550  0.50286771  0.94137843  1.0
  O  O65  1  0.75011709  0.51287909  0.04979956  1.0
  O  O66  1  0.75021492  0.54983108  0.93730374  1.0
  O  O67  1  0.75025913  0.43731535  0.01286608  1.0
  O  O68  1  0.26838727  0.89144661  0.27687228  1.0
  O  O69  1  0.26837549  0.83167961  0.39147407  1.0
  O  O70  1  0.26854970  0.77684875  0.33170846  1.0
  O  O71  1  0.73961406  0.89603956  0.32000129  1.0
  O  O72  1  0.73980633  0.81997396  0.28399009  1.0
  O  O73  1  0.73971571  0.78396161  0.39605319  1.0
  F  F74  1  0.31791433  0.85280944  0.47841220  1.0
  F  F75  1  0.31238503  0.80130527  0.58846945  1.0
  F  F76  1  0.43100492  0.47971568  0.85590728  1.0
  F  F77  1  0.57846097  0.65280955  0.84586441  1.0
  F  F78  1  0.31814809  0.66878191  0.35281612  1.0
  F  F79  1  0.31232851  0.61024576  0.30128197  1.0
  F  F80  1  0.43077171  0.66438926  0.97971891  1.0
  F  F81  1  0.57810557  0.50133027  0.15277232  1.0
  F  F82  1  0.31802757  0.97837460  0.16879084  1.0
  F  F83  1  0.31218584  0.08843650  0.11025275  1.0
  F  F84  1  0.43115081  0.35592042  0.16437573  1.0
  F  F85  1  0.57806077  0.34588122  0.00132520  1.0
