# generated using pymatgen
data_ZnH12C18(NO)6
_symmetry_space_group_name_H-M   'P 1'
_cell_length_a   11.10932147
_cell_length_b   15.98655015
_cell_length_c   17.22461462
_cell_angle_alpha   82.24816810
_cell_angle_beta   89.46979709
_cell_angle_gamma   86.27833528
_symmetry_Int_Tables_number   1
_chemical_formula_structural   ZnH12C18(NO)6
_chemical_formula_sum   'Zn2 H24 C36 N12 O12'
_cell_volume   3024.73901409
_cell_formula_units_Z   2
loop_
 _symmetry_equiv_pos_site_id
 _symmetry_equiv_pos_as_xyz
  1  'x, y, z'
loop_
 _atom_site_type_symbol
 _atom_site_label
 _atom_site_symmetry_multiplicity
 _atom_site_fract_x
 _atom_site_fract_y
 _atom_site_fract_z
 _atom_site_occupancy
  Zn  Zn0  1  0.50682291  0.40788407  0.50098781  1.0
  Zn  Zn1  1  0.49293756  0.59061850  0.49406141  1.0
  H  H2  1  0.60329610  0.70939124  0.57695687  1.0
  H  H3  1  0.60968162  0.86577824  0.57815672  1.0
  H  H4  1  0.32790498  0.90071073  0.40364486  1.0
  H  H5  1  0.67009096  0.09792792  0.59737368  1.0
  H  H6  1  0.38200042  0.12969406  0.42773977  1.0
  H  H7  1  0.38912995  0.28717650  0.42590851  1.0
  H  H8  1  0.48769981  0.61512981  0.73225532  1.0
  H  H9  1  0.49056991  0.61346107  0.87787479  1.0
  H  H10  1  0.50671534  0.34173985  0.90710953  1.0
  H  H11  1  0.48818593  0.65818033  0.08818146  1.0
  H  H12  1  0.50606517  0.38665148  0.11714897  1.0
  H  H13  1  0.50954261  0.38513077  0.26322437  1.0
  H  H14  1  0.22420854  0.60252714  0.59720300  1.0
  H  H15  1  0.77553062  0.61057400  0.60660640  1.0
  H  H16  1  0.88887995  0.40417066  0.43650938  1.0
  H  H17  1  0.11455768  0.39993848  0.43155327  1.0
  H  H18  1  0.29744345  0.67097803  0.41752122  1.0
  H  H19  1  0.24756266  0.77063333  0.37160884  1.0
  H  H20  1  0.70128197  0.32815959  0.57872670  1.0
  H  H21  1  0.75093569  0.22911784  0.62717335  1.0
  H  H22  1  0.50430359  0.32694701  0.69762245  1.0
  H  H23  1  0.49779760  0.27151405  0.79300010  1.0
  H  H24  1  0.49873094  0.67284781  0.29745525  1.0
  H  H25  1  0.49741492  0.72848462  0.20193507  1.0
  C  C26  1  0.49269759  0.48717357  0.65021137  1.0
  C  C27  1  0.73769439  0.50202458  0.50793449  1.0
  C  C28  1  0.50484951  0.51266675  0.34535499  1.0
  C  C29  1  0.26243876  0.49360537  0.49638765  1.0
  C  C30  1  0.54469203  0.75436855  0.53907167  1.0
  C  C31  1  0.54846747  0.84022142  0.53989976  1.0
  C  C32  1  0.46923085  0.89359487  0.48878257  1.0
  C  C33  1  0.38999349  0.85903156  0.44205451  1.0
  C  C34  1  0.38986689  0.77011808  0.44586391  1.0
  C  C35  1  0.60723867  0.13905924  0.55904530  1.0
  C  C36  1  0.52648881  0.10369427  0.51407262  1.0
  C  C37  1  0.44531798  0.15637074  0.46374748  1.0
  C  C38  1  0.44972905  0.24245833  0.46272725  1.0
  C  C39  1  0.60807157  0.22818463  0.55333414  1.0
  C  C40  1  0.49649881  0.48018714  0.73655748  1.0
  C  C41  1  0.49217676  0.55552968  0.77141203  1.0
  C  C42  1  0.49331214  0.55527057  0.85152531  1.0
  C  C43  1  0.49791794  0.47643291  0.89997286  1.0
  C  C44  1  0.50256024  0.40116085  0.86744604  1.0
  C  C45  1  0.50321255  0.40057608  0.78562840  1.0
  C  C46  1  0.49298709  0.59874911  0.12786501  1.0
  C  C47  1  0.49725421  0.52357598  0.09525975  1.0
  C  C48  1  0.50286555  0.44473699  0.14371751  1.0
  C  C49  1  0.50458113  0.44459988  0.22382390  1.0
  C  C50  1  0.50093242  0.51980963  0.25882669  1.0
  C  C51  1  0.49423902  0.59932614  0.20971313  1.0
  C  C52  1  0.12779178  0.49633620  0.50498120  1.0
  C  C53  1  0.06474885  0.55207814  0.55178350  1.0
  C  C54  1  0.06445397  0.44306815  0.46582175  1.0
  C  C55  1  0.12604931  0.60412848  0.59712043  1.0
  C  C56  1  0.06292490  0.65579441  0.64289579  1.0
  C  C57  1  0.87289284  0.50007673  0.51167549  1.0
  C  C58  1  0.93800326  0.44515046  0.46887303  1.0
  C  C59  1  0.93524634  0.55341417  0.55560320  1.0
  C  C60  1  0.87347920  0.60714010  0.60411343  1.0
  C  C61  1  0.93529155  0.65786816  0.64589708  1.0
  N  N62  1  0.46975343  0.71926694  0.49266396  1.0
  N  N63  1  0.46136129  0.98331806  0.48041677  1.0
  N  N64  1  0.53454751  0.01387641  0.52294764  1.0
  N  N65  1  0.52765635  0.27850379  0.50635998  1.0
  N  N66  1  0.49893733  0.46577592  0.98284756  1.0
  N  N67  1  0.49579216  0.53426616  0.01237137  1.0
  N  N68  1  0.31272803  0.73352316  0.40219437  1.0
  N  N69  1  0.68689565  0.26558497  0.59492759  1.0
  N  N70  1  0.51227639  0.32498031  0.75664437  1.0
  N  N71  1  0.48604555  0.67483235  0.23878631  1.0
  N  N72  1  0.13313032  0.70101139  0.69439934  1.0
  N  N73  1  0.86316575  0.72061177  0.68503245  1.0
  O  O74  1  0.50313586  0.41890114  0.61793855  1.0
  O  O75  1  0.47865880  0.56116384  0.61138287  1.0
  O  O76  1  0.67971151  0.57340399  0.50443819  1.0
  O  O77  1  0.69245339  0.43093090  0.50640896  1.0
  O  O78  1  0.50986076  0.58064966  0.37739704  1.0
  O  O79  1  0.50341031  0.43868383  0.38411506  1.0
  O  O80  1  0.31753781  0.42125236  0.50317002  1.0
  O  O81  1  0.31001221  0.56472240  0.48233100  1.0
  O  O82  1  0.22155743  0.73688490  0.66526884  1.0
  O  O83  1  0.10039977  0.69669381  0.76357895  1.0
  O  O84  1  0.76474425  0.70004621  0.71330278  1.0
  O  O85  1  0.90404481  0.79118422  0.68329935  1.0
