# generated using pymatgen
data_ZnH12C27N2O11
_symmetry_space_group_name_H-M   'P 1'
_cell_length_a   9.61984631
_cell_length_b   10.71390520
_cell_length_c   23.75107700
_cell_angle_alpha   89.25567234
_cell_angle_beta   88.91594153
_cell_angle_gamma   87.84636556
_symmetry_Int_Tables_number   1
_chemical_formula_structural   ZnH12C27N2O11
_chemical_formula_sum   'Zn2 H24 C54 N4 O22'
_cell_volume   2445.57973303
_cell_formula_units_Z   2
loop_
 _symmetry_equiv_pos_site_id
 _symmetry_equiv_pos_as_xyz
  1  'x, y, z'
loop_
 _atom_site_type_symbol
 _atom_site_label
 _atom_site_symmetry_multiplicity
 _atom_site_fract_x
 _atom_site_fract_y
 _atom_site_fract_z
 _atom_site_occupancy
  Zn  Zn0  1  0.35533492  0.50890734  0.50291504  1.0
  Zn  Zn1  1  0.64608205  0.48603202  0.49666044  1.0
  H  H2  1  0.80611980  0.33374480  0.94538804  1.0
  H  H3  1  0.63342238  0.08438257  0.42103253  1.0
  H  H4  1  0.24963071  0.03913289  0.48589052  1.0
  H  H5  1  0.75122926  0.95576112  0.51453451  1.0
  H  H6  1  0.43213762  0.89734639  0.41350785  1.0
  H  H7  1  0.56909571  0.09759065  0.58690155  1.0
  H  H8  1  0.21546983  0.31184235  0.58565829  1.0
  H  H9  1  0.78696472  0.68644789  0.41388479  1.0
  H  H10  1  0.03458173  0.21511797  0.42967989  1.0
  H  H11  1  0.96524339  0.78151593  0.56935579  1.0
  H  H12  1  0.16321277  0.60261913  0.37653102  1.0
  H  H13  1  0.18856857  0.65170723  0.05459405  1.0
  H  H14  1  0.83857146  0.39267357  0.62284850  1.0
  H  H15  1  0.62227643  0.70063538  0.15816341  1.0
  H  H16  1  0.34523548  0.21190025  0.76441508  1.0
  H  H17  1  0.39324681  0.29878193  0.37654917  1.0
  H  H18  1  0.60842958  0.69498509  0.62325363  1.0
  H  H19  1  0.80683856  0.33528979  0.05209091  1.0
  H  H20  1  0.18892588  0.65152232  0.94789151  1.0
  H  H21  1  0.60533805  0.67974974  0.31594243  1.0
  H  H22  1  0.40176034  0.31274193  0.68375620  1.0
  H  H23  1  0.40330620  0.32283451  0.21842576  1.0
  H  H24  1  0.59288116  0.67358652  0.78158213  1.0
  H  H25  1  0.36740595  0.91023472  0.57942028  1.0
  C  C26  1  0.46074131  0.25950251  0.49411309  1.0
  C  C27  1  0.55550997  0.59111845  0.70143993  1.0
  C  C28  1  0.44545136  0.40253250  0.23952711  1.0
  C  C29  1  0.55284479  0.59289795  0.76051135  1.0
  C  C30  1  0.50116702  0.50033888  0.20894889  1.0
  C  C31  1  0.50002982  0.49450794  0.79139356  1.0
  C  C32  1  0.36085978  0.02078718  0.49211824  1.0
  C  C33  1  0.63998764  0.97403148  0.50830882  1.0
  C  C34  1  0.42584451  0.95096585  0.54426245  1.0
  C  C35  1  0.57488919  0.04385048  0.45619881  1.0
  C  C36  1  0.52781337  0.87273436  0.50446250  1.0
  C  C37  1  0.54006523  0.73528175  0.50643206  1.0
  C  C38  1  0.47304828  0.12204882  0.49605819  1.0
  C  C39  1  0.46159328  0.94368864  0.45205293  1.0
  C  C40  1  0.53929163  0.05104015  0.54842714  1.0
  C  C41  1  0.49975939  0.51295329  0.38947123  1.0
  C  C42  1  0.50182823  0.48112649  0.61048522  1.0
  C  C43  1  0.97641748  0.39264891  0.47207937  1.0
  C  C44  1  0.02488335  0.60389857  0.52765038  1.0
  C  C45  1  0.06378463  0.40144031  0.52596343  1.0
  C  C46  1  0.93752382  0.59507976  0.47379212  1.0
  C  C47  1  0.05580850  0.50599929  0.44837099  1.0
  C  C48  1  0.55938445  0.60105628  0.23632486  1.0
  C  C49  1  0.94546828  0.49050959  0.55135010  1.0
  C  C50  1  0.38355295  0.55364393  0.87894974  1.0
  C  C51  1  0.61551684  0.43767941  0.12096057  1.0
  C  C52  1  0.61334467  0.43390192  0.87809080  1.0
  C  C53  1  0.38329588  0.55520221  0.12196254  1.0
  C  C54  1  0.61128308  0.43503930  0.94043820  1.0
  C  C55  1  0.38431529  0.55196444  0.05964710  1.0
  C  C56  1  0.49799607  0.49361619  0.97004192  1.0
  C  C57  1  0.49778131  0.49361037  0.03004015  1.0
  C  C58  1  0.38481004  0.55191899  0.94131443  1.0
  C  C59  1  0.44478071  0.39180295  0.76409108  1.0
  C  C60  1  0.61156409  0.43599193  0.05869300  1.0
  C  C61  1  0.72093477  0.37821954  0.96954038  1.0
  C  C62  1  0.27409883  0.60774072  0.03047204  1.0
  C  C63  1  0.72122708  0.37889521  0.02865260  1.0
  C  C64  1  0.27437308  0.60771888  0.97134556  1.0
  C  C65  1  0.12740070  0.29242689  0.55812112  1.0
  C  C66  1  0.87403424  0.70491436  0.44209054  1.0
  C  C67  1  0.94362774  0.27881216  0.43921939  1.0
  C  C68  1  0.05669959  0.71790026  0.56048553  1.0
  C  C69  1  0.11338133  0.51473143  0.38902965  1.0
  C  C70  1  0.55889861  0.60157427  0.29522292  1.0
  C  C71  1  0.88773241  0.48110020  0.61061286  1.0
  C  C72  1  0.62327651  0.70593572  0.20496556  1.0
  C  C73  1  0.38304996  0.28362087  0.79372925  1.0
  C  C74  1  0.38967318  0.29401005  0.32989276  1.0
  C  C75  1  0.60705070  0.70186542  0.66989985  1.0
  C  C76  1  0.44567509  0.39141010  0.70520394  1.0
  C  C77  1  0.49977398  0.50560027  0.32641801  1.0
  C  C78  1  0.50219003  0.48849406  0.67358399  1.0
  C  C79  1  0.44333938  0.40408472  0.29847531  1.0
  N  N80  1  0.50179330  0.49893653  0.85189556  1.0
  N  N81  1  0.49975953  0.49712279  0.14823536  1.0
  N  N82  1  0.14080398  0.51621756  0.50287682  1.0
  N  N83  1  0.86054238  0.48017730  0.49690873  1.0
  O  O84  1  0.34138959  0.31656357  0.49226421  1.0
  O  O85  1  0.71226679  0.39276218  0.14851203  1.0
  O  O86  1  0.70553222  0.38126171  0.84974350  1.0
  O  O87  1  0.28990126  0.60585650  0.15039236  1.0
  O  O88  1  0.07112994  0.19224079  0.55645473  1.0
  O  O89  1  0.92942087  0.80526630  0.44512165  1.0
  O  O90  1  0.82612960  0.26038103  0.42410861  1.0
  O  O91  1  0.17346683  0.73667691  0.57637183  1.0
  O  O92  1  0.09387196  0.43063630  0.35635633  1.0
  O  O93  1  0.90624722  0.56493966  0.64355547  1.0
  O  O94  1  0.67536846  0.79381081  0.22803147  1.0
  O  O95  1  0.65943047  0.67828389  0.50813621  1.0
  O  O96  1  0.37114242  0.26928534  0.84472472  1.0
  O  O97  1  0.34580337  0.20227981  0.30686164  1.0
  O  O98  1  0.64424814  0.79627696  0.69290355  1.0
  O  O99  1  0.57627247  0.31379163  0.49536161  1.0
  O  O100  1  0.42443493  0.68103103  0.50550179  1.0
  O  O101  1  0.38259330  0.51148839  0.41525415  1.0
  O  O102  1  0.61887694  0.48286735  0.58473191  1.0
  O  O103  1  0.61749928  0.52165077  0.41223022  1.0
  O  O104  1  0.38383929  0.47259178  0.58795773  1.0
  O  O105  1  0.28750978  0.59969965  0.85130177  1.0
