# generated using pymatgen
data_ZnH5C11NClO4F
_symmetry_space_group_name_H-M   'P 1'
_cell_length_a   9.73540055
_cell_length_b   11.03828441
_cell_length_c   11.07924211
_cell_angle_alpha   90.84346908
_cell_angle_beta   90.11878899
_cell_angle_gamma   91.76941110
_symmetry_Int_Tables_number   1
_chemical_formula_structural   ZnH5C11NClO4F
_chemical_formula_sum   'Zn2 H10 C22 N2 Cl2 O8 F2'
_cell_volume   1189.89840017
_cell_formula_units_Z   2
loop_
 _symmetry_equiv_pos_site_id
 _symmetry_equiv_pos_as_xyz
  1  'x, y, z'
loop_
 _atom_site_type_symbol
 _atom_site_label
 _atom_site_symmetry_multiplicity
 _atom_site_fract_x
 _atom_site_fract_y
 _atom_site_fract_z
 _atom_site_occupancy
  Zn  Zn0  1  0.36443361  0.49758789  0.50130149  1.0
  Zn  Zn1  1  0.64556505  0.50800630  0.50125022  1.0
  H  H2  1  0.72258728  0.57175501  0.89283714  1.0
  H  H3  1  0.87532391  0.63848350  0.63527019  1.0
  H  H4  1  0.72007696  0.56966446  0.11699616  1.0
  H  H5  1  0.22885596  0.34162076  0.10798438  1.0
  H  H6  1  0.17597428  0.49744214  0.88447944  1.0
  H  H7  1  0.17366530  0.49437040  0.11184766  1.0
  H  H8  1  0.23092132  0.34461942  0.88078932  1.0
  H  H9  1  0.36408435  0.11423901  0.63841536  1.0
  H  H10  1  0.36431208  0.88713358  0.63826165  1.0
  H  H11  1  0.86052437  0.36579664  0.36994177  1.0
  C  C12  1  0.50153816  0.73952451  0.49431140  1.0
  C  C13  1  0.39296760  0.47683355  0.06269107  1.0
  C  C14  1  0.51145800  0.51092074  0.87130543  1.0
  C  C15  1  0.50897442  0.50800786  0.13154221  1.0
  C  C16  1  0.62898634  0.54442413  0.94034883  1.0
  C  C17  1  0.62768290  0.54315931  0.06619574  1.0
  C  C18  1  0.24445578  0.43164953  0.06836642  1.0
  C  C19  1  0.24590282  0.43352221  0.92563122  1.0
  C  C20  1  0.57445126  0.93970037  0.39855767  1.0
  C  C21  1  0.57447111  0.06730472  0.39891548  1.0
  C  C22  1  0.50011980  0.12991868  0.48721711  1.0
  C  C23  1  0.49846467  0.26586701  0.49515325  1.0
  C  C24  1  0.50038470  0.87529995  0.48677704  1.0
  C  C25  1  0.42354361  0.06429369  0.57221724  1.0
  C  C26  1  0.42359598  0.93855341  0.57204884  1.0
  C  C27  1  0.92256268  0.42585022  0.42855397  1.0
  C  C28  1  0.93086922  0.57718112  0.57654851  1.0
  C  C29  1  0.06568236  0.42494981  0.43139993  1.0
  C  C30  1  0.07359685  0.57184369  0.57635881  1.0
  C  C31  1  0.51404027  0.50867997  0.73684999  1.0
  C  C32  1  0.51060357  0.50353239  0.26585214  1.0
  C  C33  1  0.39425060  0.47840939  0.93661588  1.0
  N  N34  1  0.14176966  0.49708351  0.50430890  1.0
  N  N35  1  0.85876425  0.50333397  0.50170855  1.0
  Cl  Cl36  1  0.65973989  0.86281224  0.28648911  1.0
  Cl  Cl37  1  0.65988103  0.14528989  0.28635737  1.0
  O  O38  1  0.38482741  0.68455612  0.49445419  1.0
  O  O39  1  0.38061054  0.31181453  0.50265997  1.0
  O  O40  1  0.61824193  0.69219234  0.50371055  1.0
  O  O41  1  0.61396931  0.32273825  0.49750620  1.0
  O  O42  1  0.39770772  0.50098827  0.68334336  1.0
  O  O43  1  0.39443858  0.49408417  0.31862401  1.0
  O  O44  1  0.63107204  0.51354384  0.68523025  1.0
  O  O45  1  0.62773687  0.50884050  0.31792854  1.0
  F  F46  1  0.13198365  0.34979551  0.35897799  1.0
  F  F47  1  0.14728874  0.64334681  0.65114930  1.0
