# generated using pymatgen
data_Al6H33C83N5O28
_symmetry_space_group_name_H-M   'P 1'
_cell_length_a   12.44174061
_cell_length_b   12.50813299
_cell_length_c   27.98141819
_cell_angle_alpha   89.89200166
_cell_angle_beta   89.61685475
_cell_angle_gamma   118.93039511
_symmetry_Int_Tables_number   1
_chemical_formula_structural   Al6H33C83N5O28
_chemical_formula_sum   'Al6 H33 C83 N5 O28'
_cell_volume   3810.98732666
_cell_formula_units_Z   1
loop_
 _symmetry_equiv_pos_site_id
 _symmetry_equiv_pos_as_xyz
  1  'x, y, z'
loop_
 _atom_site_type_symbol
 _atom_site_label
 _atom_site_symmetry_multiplicity
 _atom_site_fract_x
 _atom_site_fract_y
 _atom_site_fract_z
 _atom_site_occupancy
  Al  Al0  1  0.59317460  0.40291640  0.49552178  1.0
  Al  Al1  1  0.59169502  0.65808309  0.49844993  1.0
  Al  Al2  1  0.34812212  0.42784101  0.49752248  1.0
  Al  Al3  1  0.06046906  0.90376977  0.98611682  1.0
  Al  Al4  1  0.32578614  0.91611484  0.98195808  1.0
  Al  Al5  1  0.09997602  0.66870108  0.98323625  1.0
  H  H6  1  0.29053980  0.79653217  0.29690544  1.0
  H  H7  1  0.70061994  0.43448086  0.63081827  1.0
  H  H8  1  0.84731311  0.80637294  0.86987675  1.0
  H  H9  1  0.98221853  0.55177583  0.84927258  1.0
  H  H10  1  0.83040944  0.81922199  0.61628356  1.0
  H  H11  1  0.42364909  0.54016395  0.27256084  1.0
  H  H12  1  0.52005464  0.25511412  0.19049274  1.0
  H  H13  1  0.66224018  0.66090437  0.27382588  1.0
  H  H14  1  0.00119975  0.65639705  0.29984197  1.0
  H  H15  1  0.57608608  0.77192090  0.62581477  1.0
  H  H16  1  0.55366014  0.79517716  0.71252655  1.0
  H  H17  1  0.69370533  0.65414000  0.18610533  1.0
  H  H18  1  0.44677353  0.90246734  0.85473991  1.0
  H  H19  1  0.27502294  0.81716692  0.20931817  1.0
  H  H20  1  0.19234831  0.51059425  0.61720423  1.0
  H  H21  1  0.20905552  0.28396334  0.62548159  1.0
  H  H22  1  0.18459141  0.23101142  0.71175526  1.0
  H  H23  1  0.49380621  0.18498473  0.61346430  1.0
  H  H24  1  0.40774927  0.56050798  0.18491257  1.0
  H  H25  1  0.79714429  0.79528255  0.78386077  1.0
  H  H26  1  0.75964147  0.46252453  0.71665349  1.0
  H  H27  1  0.93713813  0.54317506  0.76227239  1.0
  H  H28  1  0.03309126  0.65000646  0.21218460  1.0
  H  H29  1  0.13258260  0.07837978  0.28671221  1.0
  H  H30  1  0.12521908  0.03944476  0.19914555  1.0
  H  H31  1  0.21942043  0.49466568  0.77901542  1.0
  H  H32  1  0.19140029  0.51871178  0.86563760  1.0
  H  H33  1  0.16612235  0.53933615  0.70361649  1.0
  H  H34  1  0.50066248  0.18397582  0.77298565  1.0
  H  H35  1  0.12226371  0.10358099  0.76842931  1.0
  H  H36  1  0.46796523  0.12658025  0.69938313  1.0
  H  H37  1  0.64370737  0.25105957  0.51606947  1.0
  H  H38  1  0.94851883  0.99666496  0.95801651  1.0
  C  C39  1  0.73352738  0.62304132  0.43203034  1.0
  C  C40  1  0.21682615  0.11647525  0.26546278  1.0
  C  C41  1  0.21274218  0.09487307  0.21674518  1.0
  C  C42  1  0.40108682  0.61795306  0.43131352  1.0
  C  C43  1  0.43536976  0.21670999  0.21144756  1.0
  C  C44  1  0.43972915  0.23856166  0.26051765  1.0
  C  C45  1  0.32960390  0.18855039  0.28840372  1.0
  C  C46  1  0.32199617  0.14485900  0.18908155  1.0
  C  C47  1  0.31656851  0.12107653  0.13957534  1.0
  C  C48  1  0.33612028  0.21352030  0.33775810  1.0
  C  C49  1  0.30772459  0.09705205  0.09716060  1.0
  C  C50  1  0.38255034  0.61221081  0.20956295  1.0
  C  C51  1  0.78514261  0.65026004  0.38473185  1.0
  C  C52  1  0.74349664  0.65923745  0.26001963  1.0
  C  C53  1  0.76053888  0.65470048  0.21122825  1.0
  C  C54  1  0.38336691  0.29079912  0.42717195  1.0
  C  C55  1  0.95230156  0.65274248  0.22590515  1.0
  C  C56  1  0.93505439  0.65710042  0.27470639  1.0
  C  C57  1  0.83023370  0.65998524  0.29243916  1.0
  C  C58  1  0.86525636  0.65131008  0.19344582  1.0
  C  C59  1  0.88565845  0.65141950  0.14370473  1.0
  C  C60  1  0.80826510  0.65753912  0.34210279  1.0
  C  C61  1  0.39152512  0.60101537  0.25855416  1.0
  C  C62  1  0.90648123  0.65707939  0.10088827  1.0
  C  C63  1  0.38539733  0.64121898  0.61605142  1.0
  C  C64  1  0.48658652  0.72196245  0.64319974  1.0
  C  C65  1  0.47316935  0.73503460  0.69180400  1.0
  C  C66  1  0.71453882  0.60175770  0.56861323  1.0
  C  C67  1  0.35779400  0.67015470  0.71447784  1.0
  C  C68  1  0.25664822  0.58941657  0.68688232  1.0
  C  C69  1  0.27032093  0.57412839  0.63837855  1.0
  C  C70  1  0.26763708  0.58482505  0.79522249  1.0
  C  C71  1  0.25326762  0.59731165  0.84391790  1.0
  C  C72  1  0.35868129  0.66745823  0.29075027  1.0
  C  C73  1  0.39675034  0.81332165  0.83795853  1.0
  C  C74  1  0.40751185  0.80135649  0.78859227  1.0
  C  C75  1  0.34406353  0.68542712  0.76615500  1.0
  C  C76  1  0.31877438  0.71182085  0.86569075  1.0
  C  C77  1  0.35288063  0.23772449  0.61441777  1.0
  C  C78  1  0.40533176  0.62002254  0.56529369  1.0
  C  C79  1  0.26494207  0.24932347  0.64219062  1.0
  C  C80  1  0.25211693  0.21989143  0.69050143  1.0
  C  C81  1  0.32623544  0.17744213  0.71213476  1.0
  C  C82  1  0.41270220  0.16363345  0.68378410  1.0
  C  C83  1  0.34050479  0.69027720  0.19107346  1.0
  C  C84  1  0.42623478  0.19416008  0.63551994  1.0
  C  C85  1  0.41204239  0.15542126  0.79008078  1.0
  C  C86  1  0.39898572  0.12388623  0.83872592  1.0
  C  C87  1  0.18889980  0.08501313  0.83670100  1.0
  C  C88  1  0.20220441  0.11356197  0.78783254  1.0
  C  C89  1  0.31349741  0.14840361  0.76369227  1.0
  C  C90  1  0.37536201  0.28136389  0.56408431  1.0
  C  C91  1  0.28624157  0.08632816  0.86296139  1.0
  C  C92  1  0.76099267  0.62475167  0.61856881  1.0
  C  C93  1  0.74375836  0.52489726  0.64685148  1.0
  C  C94  1  0.33005467  0.70162071  0.14111261  1.0
  C  C95  1  0.77800165  0.54140227  0.69448690  1.0
  C  C96  1  0.83241565  0.65741517  0.71568523  1.0
  C  C97  1  0.85259481  0.75838652  0.68631711  1.0
  C  C98  1  0.81552278  0.74128909  0.63833220  1.0
  C  C99  1  0.83859294  0.74229039  0.79766266  1.0
  C  C100  1  0.86476457  0.74761406  0.84608141  1.0
  C  C101  1  0.94118654  0.60405909  0.83441678  1.0
  C  C102  1  0.37986496  0.64494838  0.38343583  1.0
  C  C103  1  0.91541464  0.59933023  0.78598523  1.0
  C  C104  1  0.86391697  0.66843827  0.76682995  1.0
  C  C105  1  0.36928319  0.65603947  0.34068304  1.0
  C  C106  1  0.91662701  0.67894231  0.86469724  1.0
  C  C107  1  0.28057247  0.04710212  0.04977913  1.0
  C  C108  1  0.29166874  0.73069184  0.05022095  1.0
  C  C109  1  0.95360328  0.69160297  0.05304079  1.0
  C  C110  1  0.26473668  0.03849622  0.91292539  1.0
  C  C111  1  0.29628881  0.73114011  0.91648891  1.0
  C  C112  1  0.95599026  0.69560501  0.91543386  1.0
  C  C113  1  0.31616958  0.74511764  0.27227447  1.0
  C  C114  1  0.30747828  0.75653725  0.22327399  1.0
  C  C115  1  0.47787872  0.91096934  0.76169299  1.0
  C  C116  1  0.31917082  0.71163561  0.09830247  1.0
  C  C117  1  0.50560417  0.13151227  0.86104504  1.0
  C  C118  1  0.07206120  0.05548768  0.85724528  1.0
  C  C119  1  0.91448184  0.88080010  0.70357061  1.0
  C  C120  1  0.55570673  0.31155088  0.28248857  1.0
  C  C121  1  0.34939540  0.24045052  0.37992883  1.0
  N  N122  1  0.53346456  0.00310575  0.74093266  1.0
  N  N123  1  0.59880425  0.14080873  0.87402692  1.0
  N  N124  1  0.97387785  0.03729549  0.86827185  1.0
  N  N125  1  0.96561763  0.98271527  0.71571965  1.0
  N  N126  1  0.65204014  0.37172072  0.29942851  1.0
  O  O127  1  0.49062402  0.31877301  0.44004495  1.0
  O  O128  1  0.19246818  0.64659424  0.03230226  1.0
  O  O129  1  0.97610386  0.61657405  0.02893734  1.0
  O  O130  1  0.71039941  0.52193713  0.45040960  1.0
  O  O131  1  0.95841764  0.78423908  0.93782379  1.0
  O  O132  1  0.16045154  0.00550547  0.93102335  1.0
  O  O133  1  0.35243098  0.02888249  0.93297612  1.0
  O  O134  1  0.36771406  0.83558815  0.93455084  1.0
  O  O135  1  0.20278337  0.64598932  0.93768530  1.0
  O  O136  1  0.99136731  0.62170634  0.93259688  1.0
  O  O137  1  0.16432949  0.82916135  0.98329759  1.0
  O  O138  1  0.50864933  0.69552007  0.54614176  1.0
  O  O139  1  0.70978383  0.70354886  0.45121420  1.0
  O  O140  1  0.50161986  0.69283073  0.45110444  1.0
  O  O141  1  0.31933936  0.51653703  0.44937685  1.0
  O  O142  1  0.30345035  0.30682153  0.45117889  1.0
  O  O143  1  0.46829290  0.28925731  0.54231128  1.0
  O  O144  1  0.68089497  0.49659642  0.55228040  1.0
  O  O145  1  0.70786900  0.68903120  0.54650030  1.0
  O  O146  1  0.32274957  0.52508264  0.54456198  1.0
  O  O147  1  0.29999612  0.31439666  0.54643207  1.0
  O  O148  1  0.50957232  0.49731481  0.49724943  1.0
  O  O149  1  0.97371630  0.79586073  0.03933389  1.0
  O  O150  1  0.17416778  0.01421187  0.03460713  1.0
  O  O151  1  0.36613821  0.03552835  0.02784567  1.0
  O  O152  1  0.36457177  0.83244212  0.03013918  1.0
  O  O153  1  0.67223052  0.31924274  0.49411600  1.0
  O  O154  1  0.97228219  0.97749421  0.98836380  1.0
