# generated using pymatgen
data_Zn4H30C32O15
_symmetry_space_group_name_H-M   'P 1'
_cell_length_a   17.95706291
_cell_length_b   18.48096338
_cell_length_c   19.48664333
_cell_angle_alpha   63.71257572
_cell_angle_beta   63.68788291
_cell_angle_gamma   89.90113325
_symmetry_Int_Tables_number   1
_chemical_formula_structural   Zn4H30C32O15
_chemical_formula_sum   'Zn8 H60 C64 O30'
_cell_volume   5042.76774797
_cell_formula_units_Z   2
loop_
 _symmetry_equiv_pos_site_id
 _symmetry_equiv_pos_as_xyz
  1  'x, y, z'
loop_
 _atom_site_type_symbol
 _atom_site_label
 _atom_site_symmetry_multiplicity
 _atom_site_fract_x
 _atom_site_fract_y
 _atom_site_fract_z
 _atom_site_occupancy
  Zn  Zn0  1  0.94581238  0.53257106  0.92346191  1.0
  Zn  Zn1  1  0.97077183  0.38250947  0.06947127  1.0
  Zn  Zn2  1  0.96939696  0.55837242  0.06243354  1.0
  Zn  Zn3  1  0.13093593  0.54309498  0.91283794  1.0
  Zn  Zn4  1  0.56078437  0.96847356  0.06232080  1.0
  Zn  Zn5  1  0.53620112  0.95174758  0.91924531  1.0
  Zn  Zn6  1  0.54557921  0.12600569  0.91397096  1.0
  Zn  Zn7  1  0.37837303  0.97098321  0.06838970  1.0
  H  H8  1  0.22574488  0.83041105  0.34514564  1.0
  H  H9  1  0.47358947  0.83801267  0.32443675  1.0
  H  H10  1  0.27635311  0.67918975  0.63849674  1.0
  H  H11  1  0.02830536  0.66932503  0.65966457  1.0
  H  H12  1  0.68207700  0.27348647  0.64193434  1.0
  H  H13  1  0.67910118  0.03639740  0.65373099  1.0
  H  H14  1  0.83636557  0.23603102  0.34112930  1.0
  H  H15  1  0.83769439  0.47306509  0.32921982  1.0
  H  H16  1  0.89851813  0.80036849  0.88405459  1.0
  H  H17  1  0.88171906  0.78511602  0.98659854  1.0
  H  H18  1  0.79487169  0.87995961  0.98068872  1.0
  H  H19  1  0.80946239  0.89182232  0.87998677  1.0
  H  H20  1  0.67540589  0.76634797  0.12470968  1.0
  H  H21  1  0.60235305  0.70079139  0.12644465  1.0
  H  H22  1  0.76103788  0.67017790  0.12835391  1.0
  H  H23  1  0.68912453  0.60720294  0.12615804  1.0
  H  H24  1  0.79647085  0.70831624  0.88067551  1.0
  H  H25  1  0.71254226  0.62789017  0.97937519  1.0
  H  H26  1  0.62182748  0.71879599  0.98150266  1.0
  H  H27  1  0.70488861  0.79821895  0.88105064  1.0
  H  H28  1  0.21488708  0.30676887  0.87682704  1.0
  H  H29  1  0.13219403  0.22857168  0.98050231  1.0
  H  H30  1  0.22205074  0.13685592  0.97971745  1.0
  H  H31  1  0.30471492  0.21600827  0.87673987  1.0
  H  H32  1  0.20733300  0.12142856  0.12009257  1.0
  H  H33  1  0.28006016  0.18754263  0.11793872  1.0
  H  H34  1  0.11890204  0.21470763  0.12009424  1.0
  H  H35  1  0.19302039  0.28120602  0.11602212  1.0
  H  H36  1  0.32095962  0.40402678  0.86949226  1.0
  H  H37  1  0.31214857  0.39501117  0.96651307  1.0
  H  H38  1  0.40049144  0.30186074  0.96903108  1.0
  H  H39  1  0.41025868  0.31200635  0.87123157  1.0
  H  H40  1  0.90558084  0.27163740  0.91783542  1.0
  H  H41  1  0.86909844  0.35621182  0.86377010  1.0
  H  H42  1  0.78235727  0.26632374  0.85907431  1.0
  H  H43  1  0.81876265  0.18202131  0.91372141  1.0
  H  H44  1  0.65306574  0.30437345  0.94563129  1.0
  H  H45  1  0.59634713  0.24688087  0.06175950  1.0
  H  H46  1  0.73911376  0.39386740  0.95192742  1.0
  H  H47  1  0.68292310  0.33468600  0.06796161  1.0
  H  H48  1  0.82582984  0.18785169  0.08517569  1.0
  H  H49  1  0.73518585  0.21405960  0.14624480  1.0
  H  H50  1  0.64764675  0.12474453  0.14177811  1.0
  H  H51  1  0.73813360  0.09827059  0.08109312  1.0
  H  H52  1  0.17946538  0.81251097  0.90567173  1.0
  H  H53  1  0.27275774  0.78502898  0.84910101  1.0
  H  H54  1  0.35428900  0.88036417  0.85272066  1.0
  H  H55  1  0.26009474  0.90393979  0.91364636  1.0
  H  H56  1  0.40648095  0.76105709  0.93117978  1.0
  H  H57  1  0.35310565  0.70385291  0.04723107  1.0
  H  H58  1  0.32036797  0.66551346  0.93165548  1.0
  H  H59  1  0.26520435  0.61086383  0.04777902  1.0
  H  H60  1  0.09842157  0.73444045  0.07329411  1.0
  H  H61  1  0.13073110  0.65004622  0.13197851  1.0
  H  H62  1  0.21965309  0.73924024  0.13521961  1.0
  H  H63  1  0.18328346  0.82287664  0.08117558  1.0
  H  H64  1  0.11056747  0.78594376  0.43099511  1.0
  H  H65  1  0.39073485  0.72280907  0.55327033  1.0
  H  H66  1  0.72023796  0.38561672  0.55930643  1.0
  H  H67  1  0.79096506  0.12400544  0.42342073  1.0
  C  C68  1  0.85766198  0.35840653  0.00402959  1.0
  C  C69  1  0.89126104  0.39789789  0.22970992  1.0
  C  C70  1  0.85518739  0.63634622  0.99796675  1.0
  C  C71  1  0.14919964  0.64577220  0.98659189  1.0
  C  C72  1  0.10985892  0.62017617  0.75478576  1.0
  C  C73  1  0.14978606  0.36890665  0.98811849  1.0
  C  C74  1  0.63969893  0.85945797  0.99494593  1.0
  C  C75  1  0.62850225  0.11148434  0.75341159  1.0
  C  C76  1  0.64554319  0.14119405  0.99475630  1.0
  C  C77  1  0.36666372  0.14584690  0.98962007  1.0
  C  C78  1  0.39307454  0.88759335  0.22903081  1.0
  C  C79  1  0.35907689  0.86895744  0.99216087  1.0
  C  C80  1  0.26308466  0.81250840  0.37900162  1.0
  C  C81  1  0.40432159  0.81760422  0.36596037  1.0
  C  C82  1  0.36837230  0.77197862  0.45622995  1.0
  C  C83  1  0.27730946  0.74387069  0.51234055  1.0
  C  C84  1  0.23888443  0.69674058  0.60476724  1.0
  C  C85  1  0.09758304  0.69048905  0.61807832  1.0
  C  C86  1  0.13340715  0.73670450  0.52780122  1.0
  C  C87  1  0.22446830  0.76519930  0.47151200  1.0
  C  C88  1  0.35155500  0.83802563  0.32715722  1.0
  C  C89  1  0.15046275  0.67046879  0.65677608  1.0
  C  C90  1  0.70066445  0.23924981  0.60584714  1.0
  C  C91  1  0.69840331  0.10393084  0.61404578  1.0
  C  C92  1  0.74304444  0.14147167  0.52338422  1.0
  C  C93  1  0.76951674  0.23022235  0.46979448  1.0
  C  C94  1  0.81678344  0.27024257  0.37721010  1.0
  C  C95  1  0.81859296  0.40555963  0.36893871  1.0
  C  C96  1  0.77252377  0.36805781  0.45953117  1.0
  C  C97  1  0.74674957  0.27927350  0.51320644  1.0
  C  C98  1  0.67732468  0.15312024  0.65529624  1.0
  C  C99  1  0.84102196  0.35635126  0.32777640  1.0
  C  C100  1  0.84877471  0.78386933  0.95109243  1.0
  C  C101  1  0.79028388  0.84560357  0.94839144  1.0
  C  C102  1  0.69604734  0.79789021  0.99548453  1.0
  C  C103  1  0.67010635  0.73339112  0.09142817  1.0
  C  C104  1  0.72779947  0.67084132  0.09254270  1.0
  C  C105  1  0.79492591  0.69429658  0.99741267  1.0
  C  C106  1  0.74868924  0.69196039  0.94815203  1.0
  C  C107  1  0.68884176  0.75226873  0.94841039  1.0
  C  C108  1  0.19961402  0.26222008  0.94449635  1.0
  C  C109  1  0.25921918  0.20130095  0.94447577  1.0
  C  C110  1  0.30989437  0.20743891  0.98932909  1.0
  C  C111  1  0.24498889  0.18564646  0.08440186  1.0
  C  C112  1  0.18658773  0.24740047  0.08376787  1.0
  C  C113  1  0.21033341  0.31090334  0.98828651  1.0
  C  C114  1  0.30437733  0.35866730  0.93717834  1.0
  C  C115  1  0.36325522  0.29736597  0.93836243  1.0
  C  C116  1  0.84776776  0.29327756  0.92034017  1.0
  C  C117  1  0.79008972  0.23374707  0.91739247  1.0
  C  C118  1  0.70066070  0.19810618  0.00087788  1.0
  C  C119  1  0.66086978  0.27152065  0.00382621  1.0
  C  C120  1  0.71832713  0.33053026  0.00758379  1.0
  C  C121  1  0.79808686  0.29812515  0.00597179  1.0
  C  C122  1  0.76920941  0.21052861  0.08540973  1.0
  C  C123  1  0.71121519  0.15128130  0.08251908  1.0
  C  C124  1  0.23571796  0.79072741  0.90821481  1.0
  C  C125  1  0.29047844  0.85264773  0.91151007  1.0
  C  C126  1  0.30092198  0.80735038  0.99406525  1.0
  C  C127  1  0.34296946  0.73510402  0.99022584  1.0
  C  C128  1  0.28551313  0.67287111  0.98990017  1.0
  C  C129  1  0.20548925  0.70377403  0.99063007  1.0
  C  C130  1  0.15503826  0.71209731  0.07342142  1.0
  C  C131  1  0.21222825  0.77165961  0.07663251  1.0
  O  O132  1  0.00624293  0.50335293  0.99119023  1.0
  O  O133  1  0.87603545  0.43482447  0.94652706  1.0
  O  O134  1  0.91261317  0.35116702  0.19505068  1.0
  O  O135  1  0.89175484  0.62924339  0.04309778  1.0
  O  O136  1  0.88596993  0.32853709  0.05792274  1.0
  O  O137  1  0.86596007  0.60046416  0.95264413  1.0
  O  O138  1  0.90871475  0.47717407  0.18858069  1.0
  O  O139  1  0.06880231  0.62956412  0.03693793  1.0
  O  O140  1  0.15942576  0.60358016  0.78790638  1.0
  O  O141  1  0.18594974  0.61898432  0.93254051  1.0
  O  O142  1  0.02820559  0.59795062  0.79726973  1.0
  O  O143  1  0.07013491  0.33427647  0.04163776  1.0
  O  O144  1  0.18250860  0.44652629  0.93438782  1.0
  O  O145  1  0.50333908  0.00534604  0.99185439  1.0
  O  O146  1  0.63888752  0.89899463  0.03487509  1.0
  O  O147  1  0.61186405  0.03218224  0.79450633  1.0
  O  O148  1  0.62268088  0.17591077  0.93657023  1.0
  O  O149  1  0.59780347  0.86747556  0.95466577  1.0
  O  O150  1  0.62737647  0.06337176  0.04715951  1.0
  O  O151  1  0.60730998  0.15812306  0.78822742  1.0
  O  O152  1  0.44669271  0.17596512  0.93593187  1.0
  O  O153  1  0.34469170  0.91067917  0.19495683  1.0
  O  O154  1  0.32923898  0.06874694  0.04300935  1.0
  O  O155  1  0.47460672  0.90275591  0.18729581  1.0
  O  O156  1  0.43689262  0.89443604  0.93043696  1.0
  O  O157  1  0.32668648  0.89106457  0.05060611  1.0
  O  O158  1  0.07836072  0.75372999  0.49499834  1.0
  O  O159  1  0.42320105  0.75488995  0.48927640  1.0
  O  O160  1  0.75286884  0.41902605  0.49541012  1.0
  O  O161  1  0.76082257  0.09055691  0.48736874  1.0
