# generated using pymatgen
data_Mg3H54(C22O5)4
_symmetry_space_group_name_H-M   'P 1'
_cell_length_a   11.22147251
_cell_length_b   14.03257180
_cell_length_c   16.22223098
_cell_angle_alpha   80.43446387
_cell_angle_beta   75.61537201
_cell_angle_gamma   77.61080294
_symmetry_Int_Tables_number   1
_chemical_formula_structural   Mg3H54(C22O5)4
_chemical_formula_sum   'Mg3 H54 C88 O20'
_cell_volume   2399.48644599
_cell_formula_units_Z   1
loop_
 _symmetry_equiv_pos_site_id
 _symmetry_equiv_pos_as_xyz
  1  'x, y, z'
loop_
 _atom_site_type_symbol
 _atom_site_label
 _atom_site_symmetry_multiplicity
 _atom_site_fract_x
 _atom_site_fract_y
 _atom_site_fract_z
 _atom_site_occupancy
  Mg  Mg0  1  0.34024345  0.42368944  0.79071446  1.0
  Mg  Mg1  1  0.67416454  0.39377388  0.72617398  1.0
  Mg  Mg2  1  0.00779035  0.44980620  0.86134940  1.0
  H  H3  1  0.49661086  0.35289922  0.62249679  1.0
  H  H4  1  0.08838677  0.72804836  0.65020492  1.0
  H  H5  1  0.05243736  0.97001730  0.44210675  1.0
  H  H6  1  0.47651351  0.62300120  0.23113394  1.0
  H  H7  1  0.80208626  0.12558647  0.23658697  1.0
  H  H8  1  0.58591072  0.69043236  0.34406151  1.0
  H  H9  1  0.10743372  0.96428531  0.01502239  1.0
  H  H10  1  0.23507248  0.83855191  0.43936657  1.0
  H  H11  1  0.05940149  0.14276868  0.00244485  1.0
  H  H12  1  0.62307017  0.10665703  0.01887507  1.0
  H  H13  1  0.72669861  0.03010086  0.13896827  1.0
  H  H14  1  0.28549530  0.82779791  0.01459715  1.0
  H  H15  1  0.95595740  0.21827483  0.88394742  1.0
  H  H16  1  0.60286251  0.70830501  0.04136985  1.0
  H  H17  1  0.20457654  0.65338798  0.44674232  1.0
  H  H18  1  0.23754012  0.63156909  0.09326883  1.0
  H  H19  1  0.92184970  0.38697917  0.70699791  1.0
  H  H20  1  0.85410454  0.49347504  0.69976164  1.0
  H  H21  1  0.54472828  0.26774243  0.82975366  1.0
  H  H22  1  0.49916850  0.27602899  0.74070479  1.0
  H  H23  1  0.64505744  0.59719146  0.47643005  1.0
  H  H24  1  0.66897778  0.61880482  0.91359532  1.0
  H  H25  1  0.26501776  0.55896967  0.57896375  1.0
  H  H26  1  0.30096720  0.54718140  0.96237479  1.0
  H  H27  1  0.60112153  0.87265721  0.13618665  1.0
  H  H28  1  0.18129799  0.21948785  0.35106446  1.0
  H  H29  1  0.87090250  0.73049664  0.32998552  1.0
  H  H30  1  0.07280537  0.17821321  0.23883488  1.0
  H  H31  1  0.57970227  0.89748213  0.55594775  1.0
  H  H32  1  0.41610612  0.00384761  0.14187826  1.0
  H  H33  1  0.61579377  0.72373694  0.57212938  1.0
  H  H34  1  0.06299707  0.74493244  0.53588581  1.0
  H  H35  1  0.95543692  0.81455890  0.42008072  1.0
  H  H36  1  0.39177160  0.02455783  0.56201459  1.0
  H  H37  1  0.72378037  0.65009026  0.68929551  1.0
  H  H38  1  0.09594641  0.08719806  0.57448119  1.0
  H  H39  1  0.46666621  0.17155642  0.13498038  1.0
  H  H40  1  0.37381563  0.26453247  0.44924197  1.0
  H  H41  1  0.75933639  0.46377147  0.87332811  1.0
  H  H42  1  0.82486324  0.35785725  0.86343798  1.0
  H  H43  1  0.15523406  0.57119007  0.75840989  1.0
  H  H44  1  0.14966968  0.56878107  0.85998384  1.0
  H  H45  1  0.02629429  0.27696925  0.10368850  1.0
  H  H46  1  0.03671038  0.18331161  0.69922010  1.0
  H  H47  1  0.41899580  0.27015096  0.00087998  1.0
  H  H48  1  0.95284623  0.83746547  0.15571011  1.0
  H  H49  1  0.06682905  0.75297031  0.02747288  1.0
  H  H50  1  0.32110900  0.35490207  0.57684445  1.0
  H  H51  1  0.68415293  0.06847672  0.37936700  1.0
  H  H52  1  0.56601698  0.16946070  0.49533368  1.0
  H  H53  1  0.91068286  0.23064069  0.52760464  1.0
  H  H54  1  0.02894057  0.13223218  0.40950973  1.0
  H  H55  1  0.77677703  0.58390567  0.06836612  1.0
  H  H56  1  0.65944121  0.67072692  0.19504263  1.0
  C  C57  1  0.11158758  0.93580400  0.22949052  1.0
  C  C58  1  0.35376440  0.73236135  0.30635203  1.0
  C  C59  1  0.25731640  0.81644088  0.30652671  1.0
  C  C60  1  0.21610608  0.85649316  0.22900598  1.0
  C  C61  1  0.27588597  0.81423942  0.15145466  1.0
  C  C62  1  0.04723207  0.97466732  0.30817581  1.0
  C  C63  1  0.95502187  0.04167098  0.15553072  1.0
  C  C64  1  0.09761145  0.93843163  0.38270483  1.0
  C  C65  1  0.39022396  0.68125013  0.38669601  1.0
  C  C66  1  0.90036096  0.08124738  0.07963876  1.0
  C  C67  1  0.37048677  0.72933241  0.15311253  1.0
  C  C68  1  0.93438337  0.04421776  0.30968775  1.0
  C  C69  1  0.40820446  0.69114740  0.22967399  1.0
  C  C70  1  0.06879570  0.97311723  0.15196507  1.0
  C  C71  1  0.88888100  0.07223535  0.23458950  1.0
  C  C72  1  0.71043690  0.22144522  0.87796667  1.0
  C  C73  1  0.78132793  0.16864607  0.94421490  1.0
  C  C74  1  0.51456738  0.66302991  0.39582840  1.0
  C  C75  1  0.41615321  0.67558063  0.07643706  1.0
  C  C76  1  0.86517767  0.09373361  0.38568037  1.0
  C  C77  1  0.13789204  0.93435264  0.07430965  1.0
  C  C78  1  0.19836427  0.86365634  0.38172006  1.0
  C  C79  1  0.96451248  0.13279565  0.00601147  1.0
  C  C80  1  0.71869285  0.11399508  0.01619627  1.0
  C  C81  1  0.77690005  0.07165579  0.08313352  1.0
  C  C82  1  0.23651187  0.85798903  0.07416479  1.0
  C  C83  1  0.90549711  0.17637537  0.93933704  1.0
  C  C84  1  0.53739091  0.67117875  0.02519381  1.0
  C  C85  1  0.30036885  0.64405777  0.45449342  1.0
  C  C86  1  0.33202662  0.62888915  0.05373948  1.0
  C  C87  1  0.45806354  0.57491558  0.53775588  1.0
  C  C88  1  0.48827173  0.57767386  0.92907632  1.0
  C  C89  1  0.49257109  0.51106253  0.61537640  1.0
  C  C90  1  0.66414500  0.27266600  0.58356264  1.0
  C  C91  1  0.54801462  0.61136207  0.47042111  1.0
  C  C92  1  0.51793315  0.52742725  0.85005700  1.0
  C  C93  1  0.57408555  0.62148990  0.95257062  1.0
  C  C94  1  0.33379572  0.59123329  0.52832980  1.0
  C  C95  1  0.73118225  0.20683457  0.51825830  1.0
  C  C96  1  0.36729658  0.58123451  0.98069882  1.0
  C  C97  1  0.55423264  0.91342990  0.34643592  1.0
  C  C98  1  0.30489529  0.11179583  0.27492849  1.0
  C  C99  1  0.40072055  0.02734678  0.27362478  1.0
  C  C100  1  0.44533434  0.98886161  0.34992870  1.0
  C  C101  1  0.38650094  0.03037811  0.42820123  1.0
  C  C102  1  0.61555360  0.87449606  0.26713343  1.0
  C  C103  1  0.71967337  0.81340470  0.41417848  1.0
  C  C104  1  0.55912902  0.90653694  0.19491567  1.0
  C  C105  1  0.27301133  0.16643183  0.19518803  1.0
  C  C106  1  0.77791473  0.77497560  0.48787034  1.0
  C  C107  1  0.28732836  0.11222135  0.42842234  1.0
  C  C108  1  0.73092415  0.80775897  0.26213991  1.0
  C  C109  1  0.24993117  0.15147724  0.35214820  1.0
  C  C110  1  0.60430611  0.88019692  0.42137897  1.0
  C  C111  1  0.78221234  0.78193469  0.33457081  1.0
  C  C112  1  0.96268702  0.64468715  0.69108369  1.0
  C  C113  1  0.89977461  0.69355015  0.62199843  1.0
  C  C114  1  0.14875755  0.19834851  0.18669214  1.0
  C  C115  1  0.24088246  0.16803155  0.50409718  1.0
  C  C116  1  0.79765485  0.76066482  0.18364566  1.0
  C  C117  1  0.54084284  0.92123861  0.49915342  1.0
  C  C118  1  0.45661880  0.97990274  0.19799184  1.0
  C  C119  1  0.71309583  0.72962839  0.56507120  1.0
  C  C120  1  0.96413271  0.74083785  0.54595354  1.0
  C  C121  1  0.90439876  0.77939807  0.47932581  1.0
  C  C122  1  0.43637457  0.99270887  0.50252142  1.0
  C  C123  1  0.77360046  0.68782997  0.63084051  1.0
  C  C124  1  0.14492894  0.14651190  0.57442902  1.0
  C  C125  1  0.37022383  0.19307571  0.12753913  1.0
  C  C126  1  0.30084213  0.24605042  0.50449151  1.0
  C  C127  1  0.21993464  0.27879703  0.04421913  1.0
  C  C128  1  0.17876142  0.27281421  0.64689350  1.0
  C  C129  1  0.19627817  0.33918194  0.96272164  1.0
  C  C130  1  0.99436733  0.61241025  0.96267371  1.0
  C  C131  1  0.12238935  0.25323244  0.11141665  1.0
  C  C132  1  0.16171041  0.32438161  0.72405805  1.0
  C  C133  1  0.11200412  0.19995417  0.64487325  1.0
  C  C134  1  0.34405664  0.24896955  0.05316965  1.0
  C  C135  1  0.92777209  0.66412598  0.03957972  1.0
  C  C136  1  0.91359008  0.78235031  0.13646880  1.0
  C  C137  1  0.97763379  0.73513342  0.06479225  1.0
  C  C138  1  0.27151344  0.29676019  0.57548031  1.0
  C  C139  1  0.73403846  0.10461638  0.41115652  1.0
  C  C140  1  0.66753535  0.16086763  0.47637762  1.0
  C  C141  1  0.86211816  0.19406599  0.49523225  1.0
  C  C142  1  0.92781471  0.13844352  0.42964283  1.0
  C  C143  1  0.81346722  0.64059196  0.08762226  1.0
  C  C144  1  0.74869231  0.68896461  0.15830835  1.0
  O  O145  1  0.75956585  0.28281927  0.81802292  1.0
  O  O146  1  0.60030010  0.20449592  0.88683132  1.0
  O  O147  1  0.85127701  0.42944023  0.68412009  1.0
  O  O148  1  0.51224795  0.31961367  0.77727824  1.0
  O  O149  1  0.54158443  0.29789326  0.58657087  1.0
  O  O150  1  0.92664389  0.57823539  0.74507873  1.0
  O  O151  1  0.07007465  0.67339584  0.69430458  1.0
  O  O152  1  0.83360816  0.41676552  0.88642817  1.0
  O  O153  1  0.16866335  0.52270185  0.80746581  1.0
  O  O154  1  0.08630524  0.35530824  0.94876149  1.0
  O  O155  1  0.05062343  0.36191030  0.76153894  1.0
  O  O156  1  0.93575437  0.55885292  0.93718843  1.0
  O  O157  1  0.26049435  0.32879010  0.74599982  1.0
  O  O158  1  0.29007087  0.37043333  0.91303513  1.0
  O  O159  1  0.10640244  0.62462670  0.92729247  1.0
  O  O160  1  0.59805915  0.50470607  0.63244531  1.0
  O  O161  1  0.63257595  0.49174429  0.81736188  1.0
  O  O162  1  0.71857646  0.30175358  0.62988875  1.0
  O  O163  1  0.42749841  0.52143055  0.81911726  1.0
  O  O164  1  0.41048953  0.45854084  0.65824263  1.0
