# generated using pymatgen
data_Mg2H13C24BrO6
_symmetry_space_group_name_H-M   'P 1'
_cell_length_a   6.84141238
_cell_length_b   34.40681675
_cell_length_c   34.40075878
_cell_angle_alpha   119.56381789
_cell_angle_beta   93.79631515
_cell_angle_gamma   93.80111873
_symmetry_Int_Tables_number   1
_chemical_formula_structural   Mg2H13C24BrO6
_chemical_formula_sum   'Mg6 H39 C72 Br3 O18'
_cell_volume   6982.08761006
_cell_formula_units_Z   3
loop_
 _symmetry_equiv_pos_site_id
 _symmetry_equiv_pos_as_xyz
  1  'x, y, z'
loop_
 _atom_site_type_symbol
 _atom_site_label
 _atom_site_symmetry_multiplicity
 _atom_site_fract_x
 _atom_site_fract_y
 _atom_site_fract_z
 _atom_site_occupancy
  Mg  Mg0  1  0.17734503  0.67005361  0.30458947  1.0
  Mg  Mg1  1  0.87292739  0.69543148  0.36549327  1.0
  Mg  Mg2  1  0.50729318  0.63455251  0.33001668  1.0
  Mg  Mg3  1  0.69655500  0.33020672  0.69570165  1.0
  Mg  Mg4  1  0.00088305  0.30423353  0.63447269  1.0
  Mg  Mg5  1  0.36629492  0.36545824  0.66973729  1.0
  H  H6  1  0.04739590  0.93714075  0.49976431  1.0
  H  H7  1  0.54803459  0.50018179  0.43728739  1.0
  H  H8  1  0.11014482  0.56263820  0.06296151  1.0
  H  H9  1  0.26152180  0.00850997  0.53586557  1.0
  H  H10  1  0.72588780  0.46407395  0.47257435  1.0
  H  H11  1  0.25314910  0.52737915  0.99161053  1.0
  H  H12  1  0.80976828  0.06771001  0.49598358  1.0
  H  H13  1  0.31392105  0.50401739  0.57167927  1.0
  H  H14  1  0.74179046  0.42838603  0.93230962  1.0
  H  H15  1  0.08590772  0.11487021  0.54112675  1.0
  H  H16  1  0.54500814  0.45884244  0.57370434  1.0
  H  H17  1  0.97073550  0.42636612  0.88513799  1.0
  H  H18  1  0.44529720  0.07140112  0.55406844  1.0
  H  H19  1  0.89157900  0.44594880  0.51733847  1.0
  H  H20  1  0.37385127  0.48262316  0.92859907  1.0
  H  H21  1  0.21966623  0.17941857  0.58045173  1.0
  H  H22  1  0.63931396  0.41945558  0.59886654  1.0
  H  H23  1  0.04020966  0.40102293  0.82058101  1.0
  H  H24  1  0.93763071  0.19591718  0.62469235  1.0
  H  H25  1  0.31325254  0.37532369  0.57131774  1.0
  H  H26  1  0.74157300  0.42876210  0.80400154  1.0
  H  H27  1  0.75039617  0.11984226  0.58429356  1.0
  H  H28  1  0.16675454  0.41575526  0.53562792  1.0
  H  H29  1  0.63069489  0.46443873  0.88012331  1.0
  H  H30  1  0.78880923  0.88978103  0.45419540  1.0
  H  H31  1  0.33492711  0.54585917  0.43550979  1.0
  H  H32  1  0.89851200  0.56445150  0.11033338  1.0
  H  H33  1  0.40138584  0.92825809  0.44948008  1.0
  H  H34  1  0.95242947  0.55049407  0.47878096  1.0
  H  H35  1  0.47264656  0.52125989  0.07174756  1.0
  H  H36  1  0.65210513  0.82187237  0.42177270  1.0
  H  H37  1  0.22987794  0.57812079  0.39998489  1.0
  H  H38  1  0.82958653  0.59996247  0.17811346  1.0
  H  H39  1  0.93201455  0.80285898  0.37744521  1.0
  H  H40  1  0.55446187  0.62264576  0.42553523  1.0
  H  H41  1  0.12865181  0.57453636  0.19724279  1.0
  H  H42  1  0.11470594  0.87951247  0.41846241  1.0
  H  H43  1  0.69626714  0.58163909  0.46118019  1.0
  H  H44  1  0.23459609  0.53887048  0.12053621  1.0
  C  C45  1  0.74306018  0.99841007  0.47654560  1.0
  C  C46  1  0.26701345  0.52346466  0.52180693  1.0
  C  C47  1  0.74451592  0.47820350  0.00163268  1.0
  C  C48  1  0.80262750  0.96000737  0.47708683  1.0
  C  C49  1  0.32609559  0.52293737  0.48286359  1.0
  C  C50  1  0.84236147  0.51713504  0.04006384  1.0
  C  C51  1  0.99524045  0.96606021  0.49891284  1.0
  C  C52  1  0.49676826  0.50107222  0.46708074  1.0
  C  C53  1  0.02900685  0.53289556  0.03403168  1.0
  C  C54  1  0.11626996  0.00634315  0.51941881  1.0
  C  C55  1  0.59714945  0.48054885  0.48687168  1.0
  C  C56  1  0.10994588  0.51311568  0.99375019  1.0
  C  C57  1  0.05189259  0.04441730  0.51935979  1.0
  C  C58  1  0.53289916  0.48064461  0.52503736  1.0
  C  C59  1  0.00742077  0.47501491  0.95563405  1.0
  C  C60  1  0.86269536  0.03920489  0.49744253  1.0
  C  C61  1  0.36559544  0.50256326  0.54172828  1.0
  C  C62  1  0.82333884  0.45833045  0.96082148  1.0
  C  C63  1  0.16732782  0.08809764  0.54003337  1.0
  C  C64  1  0.62761851  0.45994819  0.54803932  1.0
  C  C65  1  0.07904992  0.45199496  0.91191491  1.0
  C  C66  1  0.36007334  0.09829788  0.55687838  1.0
  C  C67  1  0.80354366  0.44311224  0.54141565  1.0
  C  C68  1  0.26165723  0.45857277  0.90169824  1.0
  C  C69  1  0.46853625  0.14307711  0.57906461  1.0
  C  C70  1  0.88987990  0.42091445  0.56400885  1.0
  C  C71  1  0.32544334  0.43598162  0.85690754  1.0
  C  C72  1  0.37716847  0.18174444  0.58964496  1.0
  C  C73  1  0.78770957  0.41028233  0.59204019  1.0
  C  C74  1  0.19537254  0.40789381  0.81823950  1.0
  C  C75  1  0.47919324  0.22507382  0.61298891  1.0
  C  C76  1  0.86619704  0.38690663  0.61201779  1.0
  C  C77  1  0.25400575  0.38791501  0.77489478  1.0
  C  C78  1  0.68685071  0.23092512  0.62664449  1.0
  C  C79  1  0.06017867  0.37326137  0.60423413  1.0
  C  C80  1  0.45576389  0.39572392  0.76903481  1.0
  C  C81  1  0.77959692  0.19169907  0.61468807  1.0
  C  C82  1  0.16513187  0.38527584  0.57703266  1.0
  C  C83  1  0.58781041  0.42298908  0.80825583  1.0
  C  C84  1  0.67383310  0.14929196  0.59205797  1.0
  C  C85  1  0.08228618  0.40795199  0.55727239  1.0
  C  C86  1  0.52458074  0.44275059  0.85068878  1.0
  C  C87  1  0.36302460  0.26299727  0.62318033  1.0
  C  C88  1  0.73979179  0.37672324  0.63973931  1.0
  C  C89  1  0.09997278  0.36016702  0.73696326  1.0
  C  C90  1  0.69448291  0.91551750  0.45756176  1.0
  C  C91  1  0.23732077  0.54246796  0.45789105  1.0
  C  C92  1  0.77846847  0.54209428  0.08455857  1.0
  C  C93  1  0.49861875  0.90277715  0.44463780  1.0
  C  C94  1  0.05425186  0.55535077  0.45810306  1.0
  C  C95  1  0.59521687  0.54191526  0.09725318  1.0
  C  C96  1  0.39906817  0.85719073  0.42321189  1.0
  C  C97  1  0.97570944  0.57678696  0.43398622  1.0
  C  C98  1  0.54114715  0.56604983  0.14283372  1.0
  C  C99  1  0.49427512  0.81889972  0.41229612  1.0
  C  C100  1  0.08158877  0.58764684  0.40654371  1.0
  C  C101  1  0.67473947  0.59342526  0.18110720  1.0
  C  C102  1  0.39474507  0.77521212  0.38836969  1.0
  C  C103  1  0.00594863  0.61156066  0.38677969  1.0
  C  C104  1  0.61908705  0.61320495  0.22481191  1.0
  C  C105  1  0.18682258  0.76887213  0.37470639  1.0
  C  C106  1  0.81184189  0.62528898  0.39417740  1.0
  C  C107  1  0.41754332  0.60586054  0.23117803  1.0
  C  C108  1  0.09028788  0.80768622  0.38740689  1.0
  C  C109  1  0.70270410  0.61263882  0.42035097  1.0
  C  C110  1  0.28206493  0.57970361  0.19238470  1.0
  C  C111  1  0.19318955  0.85029382  0.41052109  1.0
  C  C112  1  0.78259354  0.58954057  0.43985841  1.0
  C  C113  1  0.34222677  0.56020176  0.14975596  1.0
  C  C114  1  0.51203072  0.73729806  0.37765260  1.0
  C  C115  1  0.13400779  0.62229834  0.35960845  1.0
  C  C116  1  0.77445933  0.64035932  0.26271615  1.0
  Br  Br117  1  0.50032356  0.99829021  0.44529062  1.0
  Br  Br118  1  0.05573713  0.55477310  0.55298872  1.0
  Br  Br119  1  0.50228834  0.44695834  0.00176565  1.0
  O  O120  1  0.69245152  0.74397658  0.39337305  1.0
  O  O121  1  0.29871423  0.60657591  0.35055450  1.0
  O  O122  1  0.94825034  0.64936932  0.25603433  1.0
  O  O123  1  0.42679516  0.69689622  0.35101330  1.0
  O  O124  1  0.07561286  0.64898945  0.34588481  1.0
  O  O125  1  0.72976835  0.65412188  0.30314392  1.0
  O  O126  1  0.08104673  0.72838505  0.35039568  1.0
  O  O127  1  0.73048953  0.64966175  0.37806406  1.0
  O  O128  1  0.35237092  0.62200843  0.27167814  1.0
  O  O129  1  0.18296821  0.25623566  0.60723126  1.0
  O  O130  1  0.57553423  0.39262561  0.64886181  1.0
  O  O131  1  0.92659334  0.35102950  0.74374818  1.0
  O  O132  1  0.44841244  0.30342196  0.64958176  1.0
  O  O133  1  0.79875790  0.35034864  0.65380019  1.0
  O  O134  1  0.14491786  0.34609840  0.69652939  1.0
  O  O135  1  0.79438668  0.27129546  0.65026968  1.0
  O  O136  1  0.14413305  0.34964570  0.62099405  1.0
  O  O137  1  0.52291348  0.37896928  0.72865123  1.0
