# generated using pymatgen
data_AlH8C13SO5
_symmetry_space_group_name_H-M   'P 1'
_cell_length_a   6.85012850
_cell_length_b   12.75608761
_cell_length_c   17.54183365
_cell_angle_alpha   78.79669125
_cell_angle_beta   82.93345285
_cell_angle_gamma   74.50455067
_symmetry_Int_Tables_number   1
_chemical_formula_structural   AlH8C13SO5
_chemical_formula_sum   'Al2 H16 C26 S2 O10'
_cell_volume   1444.85075706
_cell_formula_units_Z   2
loop_
 _symmetry_equiv_pos_site_id
 _symmetry_equiv_pos_as_xyz
  1  'x, y, z'
loop_
 _atom_site_type_symbol
 _atom_site_label
 _atom_site_symmetry_multiplicity
 _atom_site_fract_x
 _atom_site_fract_y
 _atom_site_fract_z
 _atom_site_occupancy
  Al  Al0  1  0.50011355  0.49998075  0.50000016  1.0
  Al  Al1  1  0.00008101  0.50000748  0.50001440  1.0
  H  H2  1  0.28267293  0.38318885  0.57519712  1.0
  H  H3  1  0.71772945  0.61647291  0.42452861  1.0
  H  H4  1  0.65319597  0.49036530  0.28128368  1.0
  H  H5  1  0.73345791  0.48723921  0.13932478  1.0
  H  H6  1  0.03151858  0.50426823  0.25524864  1.0
  H  H7  1  0.96781927  0.49740508  0.74462500  1.0
  H  H8  1  0.34770476  0.50765310  0.71889015  1.0
  H  H9  1  0.26748960  0.50993681  0.86094026  1.0
  H  H10  1  0.38262496  0.85134564  0.50308009  1.0
  H  H11  1  0.61766408  0.14858002  0.49687680  1.0
  H  H12  1  0.01721146  0.42685880  0.11093105  1.0
  H  H13  1  0.12452217  0.51355937  0.03580386  1.0
  H  H14  1  0.93397570  0.57313895  0.10401077  1.0
  H  H15  1  0.06358401  0.42739760  0.89744660  1.0
  H  H16  1  0.87292255  0.49083152  0.96394392  1.0
  H  H17  1  0.98417561  0.57411888  0.88754564  1.0
  C  C18  1  0.84563919  0.30423925  0.50217264  1.0
  C  C19  1  0.70727002  0.49744507  0.63851463  1.0
  C  C20  1  0.15460524  0.69570003  0.49785727  1.0
  C  C21  1  0.29291330  0.50254993  0.36148587  1.0
  C  C22  1  0.33655300  0.49842423  0.27652919  1.0
  C  C23  1  0.53584302  0.49309285  0.24377254  1.0
  C  C24  1  0.58029172  0.49166822  0.16493893  1.0
  C  C25  1  0.42850287  0.49668173  0.11603998  1.0
  C  C26  1  0.22747732  0.50073191  0.14873946  1.0
  C  C27  1  0.18526325  0.50113784  0.22874939  1.0
  C  C28  1  0.47850863  0.49835743  0.03503470  1.0
  C  C29  1  0.52149657  0.50106204  0.96503147  1.0
  C  C30  1  0.57151586  0.50276132  0.88401978  1.0
  C  C31  1  0.77202800  0.50000599  0.85120992  1.0
  C  C32  1  0.81439318  0.49965462  0.77119267  1.0
  C  C33  1  0.66358779  0.50139172  0.72349539  1.0
  C  C34  1  0.46471654  0.50555143  0.75636381  1.0
  C  C35  1  0.42024788  0.50660298  0.83523326  1.0
  C  C36  1  0.21891443  0.88259628  0.50138174  1.0
  C  C37  1  0.78137283  0.11733435  0.49858168  1.0
  C  C38  1  0.09289828  0.81479839  0.49925931  1.0
  C  C39  1  0.90736092  0.18513941  0.50072691  1.0
  C  C40  1  0.89440956  0.00724588  0.49879127  1.0
  C  C41  1  0.10588941  0.99269771  0.50113764  1.0
  C  C42  1  0.06685397  0.50407844  0.09711448  1.0
  C  C43  1  0.93202006  0.49773368  0.90279820  1.0
  S  S44  1  0.83715277  0.88410410  0.49710098  1.0
  S  S45  1  0.16311943  0.11583816  0.50285371  1.0
  O  O46  1  0.65615671  0.35006303  0.50103611  1.0
  O  O47  1  0.88550932  0.49807468  0.60745119  1.0
  O  O48  1  0.01183979  0.64962793  0.49479325  1.0
  O  O49  1  0.44230943  0.50799555  0.39616822  1.0
  O  O50  1  0.34408136  0.64986079  0.49900761  1.0
  O  O51  1  0.11463345  0.50204916  0.39255776  1.0
  O  O52  1  0.98836595  0.35033265  0.50526454  1.0
  O  O53  1  0.55795282  0.49194811  0.60381671  1.0
  O  O54  1  0.26301447  0.44930738  0.53609768  1.0
  O  O55  1  0.73718560  0.55065029  0.46389376  1.0
