# generated using pymatgen
data_ZnH3C17I2N3(Cl3O2)2
_symmetry_space_group_name_H-M   'P 1'
_cell_length_a   10.85850291
_cell_length_b   16.17521015
_cell_length_c   17.24857491
_cell_angle_alpha   89.36480012
_cell_angle_beta   89.29797925
_cell_angle_gamma   88.27205064
_symmetry_Int_Tables_number   1
_chemical_formula_structural   ZnH3C17I2N3(Cl3O2)2
_chemical_formula_sum   'Zn2 H6 C34 I4 N6 Cl12 O8'
_cell_volume   3027.73599950
_cell_formula_units_Z   2
loop_
 _symmetry_equiv_pos_site_id
 _symmetry_equiv_pos_as_xyz
  1  'x, y, z'
loop_
 _atom_site_type_symbol
 _atom_site_label
 _atom_site_symmetry_multiplicity
 _atom_site_fract_x
 _atom_site_fract_y
 _atom_site_fract_z
 _atom_site_occupancy
  Zn  Zn0  1  0.50929928  0.41116497  0.51258690  1.0
  Zn  Zn1  1  0.49042841  0.58889915  0.48735789  1.0
  H  H2  1  0.09100108  0.57690257  0.60526217  1.0
  H  H3  1  0.90876691  0.42300924  0.39487916  1.0
  H  H4  1  0.63231659  0.70562088  0.56688423  1.0
  H  H5  1  0.36778831  0.29438917  0.43296663  1.0
  H  H6  1  0.07064922  0.35405837  0.50879708  1.0
  H  H7  1  0.92912242  0.64585056  0.49131649  1.0
  C  C8  1  0.48250259  0.52469454  0.64938776  1.0
  C  C9  1  0.57787460  0.23050163  0.55756191  1.0
  C  C10  1  0.42245360  0.85635659  0.45072492  1.0
  C  C11  1  0.57743999  0.14371260  0.54933304  1.0
  C  C12  1  0.50311746  0.88991406  0.50498413  1.0
  C  C13  1  0.49695202  0.11010716  0.49496550  1.0
  C  C14  1  0.57985529  0.83434204  0.54743796  1.0
  C  C15  1  0.42030927  0.16568364  0.45241865  1.0
  C  C16  1  0.57452362  0.74997380  0.53480219  1.0
  C  C17  1  0.42554034  0.25006101  0.46508797  1.0
  C  C18  1  0.73700716  0.50666113  0.50578959  1.0
  C  C19  1  0.51753676  0.47553132  0.35056201  1.0
  C  C20  1  0.26275105  0.49329634  0.49427824  1.0
  C  C21  1  0.96372281  0.46742036  0.56803210  1.0
  C  C22  1  0.03606320  0.53248844  0.43209314  1.0
  C  C23  1  0.04863370  0.54327890  0.55844093  1.0
  C  C24  1  0.95114428  0.45663402  0.44170448  1.0
  C  C25  1  0.12559099  0.49354103  0.49546816  1.0
  C  C26  1  0.87419180  0.50637543  0.50467082  1.0
  C  C27  1  0.03904487  0.41868368  0.50458370  1.0
  C  C28  1  0.96072625  0.58124213  0.49554459  1.0
  C  C29  1  0.47342742  0.53091493  0.73686523  1.0
  C  C30  1  0.46618604  0.51919959  0.90061377  1.0
  C  C31  1  0.52712411  0.46922469  0.26309573  1.0
  C  C32  1  0.56498603  0.56700119  0.78090407  1.0
  C  C33  1  0.43613886  0.43269729  0.21891759  1.0
  C  C34  1  0.56354376  0.56017957  0.86232537  1.0
  C  C35  1  0.43812021  0.43925076  0.13749059  1.0
  C  C36  1  0.53532831  0.48059409  0.09935150  1.0
  C  C37  1  0.36757717  0.49114119  0.85622049  1.0
  C  C38  1  0.63344446  0.50907101  0.14392901  1.0
  C  C39  1  0.37263410  0.49556656  0.77508566  1.0
  C  C40  1  0.62789581  0.50478799  0.22507011  1.0
  C  C41  1  0.42191341  0.76956113  0.44251425  1.0
  I  I42  1  0.91338009  0.41651980  0.67747390  1.0
  I  I43  1  0.08672327  0.58321793  0.32265530  1.0
  I  I44  1  0.29398285  0.36756290  0.27413704  1.0
  I  I45  1  0.70697197  0.63204922  0.72539165  1.0
  N  N46  1  0.45243767  0.51019950  0.98204535  1.0
  N  N47  1  0.54924100  0.48957772  0.01794017  1.0
  N  N48  1  0.49621181  0.71875734  0.48382014  1.0
  N  N49  1  0.50366474  0.28128471  0.51616815  1.0
  N  N50  1  0.50203541  0.97374370  0.52707310  1.0
  N  N51  1  0.49806777  0.02630421  0.47288597  1.0
  Cl  Cl52  1  0.68155133  0.86921552  0.61393751  1.0
  Cl  Cl53  1  0.32468642  0.72529802  0.37965154  1.0
  Cl  Cl54  1  0.67888058  0.08355234  0.60136779  1.0
  Cl  Cl55  1  0.32085043  0.91652893  0.39881848  1.0
  Cl  Cl56  1  0.31886248  0.13078220  0.38579038  1.0
  Cl  Cl57  1  0.32794665  0.39230176  0.08460365  1.0
  Cl  Cl58  1  0.67467585  0.60648785  0.91497525  1.0
  Cl  Cl59  1  0.24378967  0.44783085  0.90188510  1.0
  Cl  Cl60  1  0.75711707  0.55275908  0.09847910  1.0
  Cl  Cl61  1  0.25291170  0.45857209  0.72234661  1.0
  Cl  Cl62  1  0.74704366  0.54222877  0.27801446  1.0
  Cl  Cl63  1  0.67481157  0.27477724  0.62059118  1.0
  O  O64  1  0.49868836  0.45134505  0.62526177  1.0
  O  O65  1  0.50093089  0.54885875  0.37466041  1.0
  O  O66  1  0.47351175  0.59063699  0.60964941  1.0
  O  O67  1  0.52661532  0.40959429  0.39032269  1.0
  O  O68  1  0.69129900  0.43545511  0.51164378  1.0
  O  O69  1  0.30843105  0.56452254  0.48861196  1.0
  O  O70  1  0.67843167  0.57576302  0.49922379  1.0
  O  O71  1  0.32137395  0.42417718  0.50057148  1.0
