# generated using pymatgen
data_Al6H62C105(S2O13)4
_symmetry_space_group_name_H-M   'P 1'
_cell_length_a   13.23290943
_cell_length_b   13.53988224
_cell_length_c   27.16609875
_cell_angle_alpha   88.34540895
_cell_angle_beta   87.40920543
_cell_angle_gamma   61.31422058
_symmetry_Int_Tables_number   1
_chemical_formula_structural   Al6H62C105(S2O13)4
_chemical_formula_sum   'Al6 H62 C105 S8 O52'
_cell_volume   4265.49817972
_cell_formula_units_Z   1
loop_
 _symmetry_equiv_pos_site_id
 _symmetry_equiv_pos_as_xyz
  1  'x, y, z'
loop_
 _atom_site_type_symbol
 _atom_site_label
 _atom_site_symmetry_multiplicity
 _atom_site_fract_x
 _atom_site_fract_y
 _atom_site_fract_z
 _atom_site_occupancy
  Al  Al0  1  0.80036960  0.56272045  0.50607085  1.0
  Al  Al1  1  0.03513993  0.57936780  0.50462420  1.0
  Al  Al2  1  0.05395352  0.35005398  0.50378660  1.0
  Al  Al3  1  0.84921690  0.08710301  0.01271345  1.0
  Al  Al4  1  0.61267233  0.31950104  0.01375950  1.0
  Al  Al5  1  0.59852671  0.10569285  0.01716001  1.0
  H  H6  1  0.42464275  0.44476826  0.76664421  1.0
  H  H7  1  0.83005297  0.54454573  0.79546498  1.0
  H  H8  1  0.65446452  0.78518061  0.79877547  1.0
  H  H9  1  0.59994779  0.95486033  0.72520124  1.0
  H  H10  1  0.85464847  0.64427602  0.74303321  1.0
  H  H11  1  0.72836255  0.03834715  0.77768421  1.0
  H  H12  1  0.37439087  0.49261154  0.12855449  1.0
  H  H13  1  0.20706483  0.57297259  0.37219972  1.0
  H  H14  1  0.24453786  0.64583942  0.29349256  1.0
  H  H15  1  0.43610235  0.15163109  0.14234359  1.0
  H  H16  1  0.40571867  0.07674383  0.22216411  1.0
  H  H17  1  0.34733312  0.10330289  0.31041126  1.0
  H  H18  1  0.26523727  0.23181261  0.38285617  1.0
  H  H19  1  0.06333480  0.22835877  0.37181149  1.0
  H  H20  1  0.12204294  0.14917910  0.20034570  1.0
  H  H21  1  0.20831430  0.47760671  0.74073950  1.0
  H  H22  1  0.14654091  0.15884225  0.28821061  1.0
  H  H23  1  0.62378181  0.39185669  0.15297311  1.0
  H  H24  1  0.54009306  0.46556788  0.23603328  1.0
  H  H25  1  0.56707716  0.48723938  0.32412100  1.0
  H  H26  1  0.69958379  0.44925365  0.39313289  1.0
  H  H27  1  0.63273221  0.89579610  0.13842911  1.0
  H  H28  1  0.59069628  0.76135399  0.30066301  1.0
  H  H29  1  0.91498174  0.96447167  0.14767097  1.0
  H  H30  1  0.22378083  0.30747310  0.80541540  1.0
  H  H31  1  0.00766283  0.94375039  0.22675520  1.0
  H  H32  1  0.98307743  0.78297126  0.38624703  1.0
  H  H33  1  0.33301904  0.14420056  0.72908011  1.0
  H  H34  1  0.54944708  0.11228439  0.75738718  1.0
  H  H35  1  0.05877536  0.21579868  0.79941576  1.0
  H  H36  1  0.90161154  0.16961700  0.74994582  1.0
  H  H37  1  0.56073563  0.53417096  0.81111571  1.0
  H  H38  1  0.66772111  0.24854972  0.74970823  1.0
  H  H39  1  0.11204894  0.64109420  0.73249857  1.0
  H  H40  1  0.16445903  0.90433661  0.71168454  1.0
  H  H41  1  0.05540231  0.04332943  0.69922117  1.0
  H  H42  1  0.12783518  0.01090828  0.75599615  1.0
  H  H43  1  0.93442358  0.02198718  0.77233824  1.0
  H  H44  1  0.04470297  0.88454062  0.78056876  1.0
  H  H45  1  0.01597078  0.83998577  0.69274276  1.0
  H  H46  1  0.90006585  0.97755800  0.68789266  1.0
  H  H47  1  0.53780775  0.44556126  0.66942302  1.0
  H  H48  1  0.45663706  0.65691899  0.19793951  1.0
  H  H49  1  0.19514218  0.99921933  0.06060198  1.0
  H  H50  1  0.25773535  0.01154694  0.11525567  1.0
  H  H51  1  0.23813415  0.89090891  0.10574682  1.0
  H  H52  1  0.08422512  0.01962129  0.16451818  1.0
  H  H53  1  0.02472520  0.01586688  0.10749721  1.0
  H  H54  1  0.00511399  0.19500078  0.08141825  1.0
  H  H55  1  0.08880851  0.19854517  0.12923361  1.0
  H  H56  1  0.48983701  0.97578203  0.38342350  1.0
  H  H57  1  0.41132049  0.89219324  0.15805939  1.0
  H  H58  1  0.18776608  0.86616550  0.26735392  1.0
  H  H59  1  0.00879102  0.62945983  0.69911237  1.0
  H  H60  1  0.13976801  0.51554862  0.67399966  1.0
  H  H61  1  0.02804479  0.60358088  0.63562016  1.0
  H  H62  1  0.01031509  0.43296265  0.64617116  1.0
  H  H63  1  0.89770752  0.53607418  0.68148823  1.0
  H  H64  1  0.06353277  0.44376694  0.75251684  1.0
  H  H65  1  0.11280582  0.32643921  0.71308999  1.0
  H  H66  1  0.61116547  0.64183559  0.47815536  1.0
  H  H67  1  0.03687128  0.95816855  0.98485447  1.0
  C  C68  1  0.86319697  0.70737125  0.57105309  1.0
  C  C69  1  0.25995503  0.35389869  0.61071223  1.0
  C  C70  1  0.47221014  0.19310931  0.75345605  1.0
  C  C71  1  0.41349404  0.28266728  0.79625486  1.0
  C  C72  1  0.35199190  0.21168592  0.73799156  1.0
  C  C73  1  0.34047540  0.30807420  0.70035646  1.0
  C  C74  1  0.29221805  0.30099360  0.77953485  1.0
  C  C75  1  0.28411504  0.39604249  0.74388799  1.0
  C  C76  1  0.44199958  0.27407119  0.84660209  1.0
  C  C77  1  0.30106855  0.32783150  0.65140533  1.0
  C  C78  1  0.88811711  0.25219450  0.76035228  1.0
  C  C79  1  0.19202670  0.38870245  0.56724732  1.0
  C  C80  1  0.97413554  0.27868283  0.78704293  1.0
  C  C81  1  0.83821171  0.34910950  0.91689947  1.0
  C  C82  1  0.86928983  0.34093247  0.62574117  1.0
  C  C83  1  0.78634276  0.33452271  0.79435730  1.0
  C  C84  1  0.87293866  0.36239782  0.82257131  1.0
  C  C85  1  0.76159893  0.43517945  0.75772887  1.0
  C  C86  1  0.86229375  0.34984478  0.72208883  1.0
  C  C87  1  0.84787234  0.46056820  0.78471715  1.0
  C  C88  1  0.94953717  0.37818774  0.74976823  1.0
  C  C89  1  0.86364930  0.36328690  0.87464812  1.0
  C  C90  1  0.88662433  0.37303232  0.57646451  1.0
  C  C91  1  0.86191458  0.34215641  0.67055157  1.0
  C  C92  1  0.68427123  0.90533040  0.74123912  1.0
  C  C93  1  0.71422709  0.81107577  0.78139673  1.0
  C  C94  1  0.77808248  0.91450728  0.90198239  1.0
  C  C95  1  0.82629021  0.77021484  0.61613717  1.0
  C  C96  1  0.75473965  0.95102545  0.76862031  1.0
  C  C97  1  0.78400532  0.85755845  0.80998052  1.0
  C  C98  1  0.86697297  0.87307122  0.73803875  1.0
  C  C99  1  0.79624844  0.82603062  0.70968304  1.0
  C  C100  1  0.89651782  0.77685254  0.77820184  1.0
  C  C101  1  0.86119952  0.70253613  0.43660030  1.0
  C  C102  1  0.82552943  0.73229789  0.75098132  1.0
  C  C103  1  0.77977205  0.88317949  0.86026718  1.0
  C  C104  1  0.80764062  0.80136623  0.65882166  1.0
  C  C105  1  0.23548736  0.49144399  0.35519904  1.0
  C  C106  1  0.27186594  0.47571249  0.30528966  1.0
  C  C107  1  0.33758160  0.44569921  0.20176036  1.0
  C  C108  1  0.30091495  0.55142880  0.22664439  1.0
  C  C109  1  0.27112970  0.56539802  0.27583840  1.0
  C  C110  1  0.37271628  0.42651325  0.15176310  1.0
  C  C111  1  0.40737899  0.32096695  0.13082936  1.0
  C  C112  1  0.17976645  0.42388012  0.43359355  1.0
  C  C113  1  0.26930955  0.29857609  0.36086403  1.0
  C  C114  1  0.30790899  0.27933901  0.31133872  1.0
  C  C115  1  0.30709510  0.36985805  0.28251078  1.0
  C  C116  1  0.34567212  0.17267655  0.28830787  1.0
  C  C117  1  0.37791865  0.15781915  0.23950384  1.0
  C  C118  1  0.37519442  0.24806000  0.20952566  1.0
  C  C119  1  0.33988380  0.35512416  0.23143349  1.0
  C  C120  1  0.40743937  0.23318865  0.15934651  1.0
  C  C121  1  0.23223099  0.40366117  0.38262846  1.0
  C  C122  1  0.97794651  0.27118974  0.35648538  1.0
  C  C123  1  0.90226762  0.36125551  0.43757537  1.0
  C  C124  1  0.96427283  0.26201152  0.30640142  1.0
  C  C125  1  0.93399874  0.24727844  0.20384927  1.0
  C  C126  1  0.04637622  0.19551149  0.22436208  1.0
  C  C127  1  0.06056476  0.20100915  0.27339052  1.0
  C  C128  1  0.91895583  0.23609548  0.15330128  1.0
  C  C129  1  0.80477748  0.28754291  0.13671921  1.0
  C  C130  1  0.77162006  0.39514857  0.36863778  1.0
  C  C131  1  0.75369366  0.38367333  0.31920222  1.0
  C  C132  1  0.85128411  0.31789946  0.28725079  1.0
  C  C133  1  0.64072576  0.43736564  0.29941956  1.0
  C  C134  1  0.46243425  0.28879534  0.71692523  1.0
  C  C135  1  0.62604371  0.42631542  0.25089822  1.0
  C  C136  1  0.72258561  0.36330318  0.21793583  1.0
  C  C137  1  0.83630035  0.30905321  0.23636484  1.0
  C  C138  1  0.70957130  0.35192003  0.16804136  1.0
  C  C139  1  0.88282166  0.33899268  0.38693841  1.0
  C  C140  1  0.73016758  0.78754977  0.36468702  1.0
  C  C141  1  0.72415174  0.80830445  0.31345643  1.0
  C  C142  1  0.71036146  0.85995310  0.20992444  1.0
  C  C143  1  0.64059269  0.81688008  0.23447715  1.0
  C  C144  1  0.64393975  0.79539311  0.28399367  1.0
  C  C145  1  0.40358341  0.37842562  0.75868469  1.0
  C  C146  1  0.69859382  0.89614349  0.16076667  1.0
  C  C147  1  0.77168287  0.93374855  0.13902363  1.0
  C  C148  1  0.90876701  0.79599816  0.36574991  1.0
  C  C149  1  0.89471911  0.83762980  0.31711850  1.0
  C  C150  1  0.80582596  0.83627924  0.28942911  1.0
  C  C151  1  0.96682601  0.87866384  0.29287133  1.0
  C  C152  1  0.95428786  0.91083759  0.24437132  1.0
  C  C153  1  0.87033475  0.90359797  0.21554599  1.0
  C  C154  1  0.79544534  0.86594681  0.23846790  1.0
  C  C155  1  0.85846523  0.93558935  0.16565561  1.0
  C  C156  1  0.45934714  0.27500216  0.89028795  1.0
  C  C157  1  0.82965828  0.76842799  0.38925510  1.0
  C  C158  1  0.79250584  0.30537365  0.95573504  1.0
  C  C159  1  0.49429263  0.26376083  0.94057785  1.0
  C  C160  1  0.76481878  0.96928209  0.94807352  1.0
  C  C161  1  0.77814026  0.26742046  0.08662715  1.0
  C  C162  1  0.45690775  0.29514918  0.07944891  1.0
  C  C163  1  0.75180852  0.97912791  0.08764353  1.0
  C  C164  1  0.94827785  0.90955300  0.71457670  1.0
  C  C165  1  0.00320372  0.94967055  0.75225846  1.0
  C  C166  1  0.09216564  0.97926117  0.72850529  1.0
  C  C167  1  0.02478007  0.17241843  0.12016562  1.0
  C  C168  1  0.07997698  0.04330642  0.12519582  1.0
  C  C169  1  0.19997295  0.98257059  0.10048465  1.0
  C  C170  1  0.03626838  0.40540854  0.72442482  1.0
  C  C171  1  0.99223005  0.48453255  0.67915036  1.0
  C  C172  1  0.04590788  0.56185428  0.67166180  1.0
  S  S173  1  0.62815470  0.54816344  0.74045840  1.0
  S  S174  1  0.68255308  0.30458949  0.82495136  1.0
  S  S175  1  0.03067949  0.68676333  0.80500534  1.0
  S  S176  1  0.56805547  0.27598046  0.67155292  1.0
  S  S177  1  0.28817939  0.67161478  0.19335680  1.0
  S  S178  1  0.60375288  0.80363136  0.39922892  1.0
  S  S179  1  0.55803640  0.77567799  0.19923542  1.0
  S  S180  1  0.06938984  0.89327138  0.32843127  1.0
  O  O181  1  0.81200427  0.47001579  0.56321561  1.0
  O  O182  1  0.14486216  0.52161168  0.45238927  1.0
  O  O183  1  0.16717898  0.34507598  0.45475003  1.0
  O  O184  1  0.00401782  0.29731179  0.45453334  1.0
  O  O185  1  0.96554178  0.49706209  0.50559319  1.0
  O  O186  1  0.83695937  0.00153969  0.95762820  1.0
  O  O187  1  0.85263510  0.20291504  0.96643499  1.0
  O  O188  1  0.69037118  0.37362333  0.97310031  1.0
  O  O189  1  0.51896093  0.33616564  0.95761706  1.0
  O  O190  1  0.50141510  0.17710953  0.96412231  1.0
  O  O191  1  0.67624668  0.98423264  0.97538032  1.0
  O  O192  1  0.79665187  0.67888126  0.55181736  1.0
  O  O193  1  0.83121960  0.98898616  0.06479073  1.0
  O  O194  1  0.84860664  0.17561844  0.06625989  1.0
  O  O195  1  0.68255814  0.34121243  0.06832035  1.0
  O  O196  1  0.48298578  0.36490156  0.05687616  1.0
  O  O197  1  0.47774350  0.20047694  0.06173710  1.0
  O  O198  1  0.65045087  0.00943201  0.07146598  1.0
  O  O199  1  0.68531984  0.17127138  0.01423663  1.0
  O  O200  1  0.96820189  0.67968977  0.55569929  1.0
  O  O201  1  0.15743071  0.48835980  0.55039315  1.0
  O  O202  1  0.16668422  0.31601788  0.55032490  1.0
  O  O203  1  0.97917081  0.30480722  0.55248103  1.0
  O  O204  1  0.82256174  0.44364025  0.46044091  1.0
  O  O205  1  0.80611709  0.65011165  0.44788482  1.0
  O  O206  1  0.94690153  0.69608155  0.45959014  1.0
  O  O207  1  0.64949889  0.63180528  0.71598916  1.0
  O  O208  1  0.56145589  0.50477008  0.71670666  1.0
  O  O209  1  0.56931525  0.59610971  0.79239343  1.0
  O  O210  1  0.72835660  0.23504015  0.86750763  1.0
  O  O211  1  0.57783655  0.41247948  0.83082465  1.0
  O  O212  1  0.66540034  0.22961237  0.78714899  1.0
  O  O213  1  0.05260698  0.74183795  0.84405929  1.0
  O  O214  1  0.03705756  0.57774620  0.81259640  1.0
  O  O215  1  0.12321791  0.67666028  0.76138768  1.0
  O  O216  1  0.67464269  0.25065153  0.69641276  1.0
  O  O217  1  0.57466637  0.20032762  0.63442329  1.0
  O  O218  1  0.51821342  0.39711887  0.64848650  1.0
  O  O219  1  0.21987802  0.69015024  0.15117322  1.0
  O  O220  1  0.25642113  0.76254867  0.22792640  1.0
  O  O221  1  0.41567843  0.63438982  0.17363605  1.0
  O  O222  1  0.58446372  0.70940710  0.39236616  1.0
  O  O223  1  0.60035426  0.85091992  0.44623770  1.0
  O  O224  1  0.50384693  0.90598164  0.36763031  1.0
  O  O225  1  0.61788429  0.72163753  0.15424447  1.0
  O  O226  1  0.51293030  0.71735173  0.23157371  1.0
  O  O227  1  0.45261140  0.89856493  0.18605391  1.0
  O  O228  1  0.00845582  0.98566337  0.36152622  1.0
  O  O229  1  0.14828676  0.78294408  0.34747622  1.0
  O  O230  1  0.13544130  0.93137838  0.28886892  1.0
  O  O231  1  0.65045835  0.62422953  0.50891311  1.0
  O  O232  1  0.00026925  0.00772272  0.01252973  1.0
