# generated using pymatgen
data_AlH7C12SNO5F
_symmetry_space_group_name_H-M   'P 1'
_cell_length_a   6.64552205
_cell_length_b   12.76293522
_cell_length_c   16.87913238
_cell_angle_alpha   91.16529021
_cell_angle_beta   96.65540898
_cell_angle_gamma   104.79783257
_symmetry_Int_Tables_number   1
_chemical_formula_structural   AlH7C12SNO5F
_chemical_formula_sum   'Al2 H14 C24 S2 N2 O10 F2'
_cell_volume   1372.95633675
_cell_formula_units_Z   2
loop_
 _symmetry_equiv_pos_site_id
 _symmetry_equiv_pos_as_xyz
  1  'x, y, z'
loop_
 _atom_site_type_symbol
 _atom_site_label
 _atom_site_symmetry_multiplicity
 _atom_site_fract_x
 _atom_site_fract_y
 _atom_site_fract_z
 _atom_site_occupancy
  Al  Al0  1  0.00045745  0.49959975  0.49988960  1.0
  Al  Al1  1  0.50047640  0.49953477  0.50003631  1.0
  H  H2  1  0.17071780  0.37466323  0.44445047  1.0
  H  H3  1  0.83021103  0.62437750  0.55565632  1.0
  H  H4  1  0.63428834  0.57012426  0.73704345  1.0
  H  H5  1  0.70806333  0.57109037  0.88636627  1.0
  H  H6  1  0.06936558  0.39223163  0.89404790  1.0
  H  H7  1  0.92815162  0.61004293  0.10593699  1.0
  H  H8  1  0.29118096  0.42878393  0.11391582  1.0
  H  H9  1  0.36621716  0.42877529  0.26314130  1.0
  H  H10  1  0.83577262  0.33122995  0.78269550  1.0
  H  H11  1  0.93118381  0.31394355  0.68997727  1.0
  H  H12  1  0.84431011  0.42965703  0.70873865  1.0
  H  H13  1  0.15584381  0.57135326  0.29016563  1.0
  H  H14  1  0.06781507  0.68617437  0.31067938  1.0
  H  H15  1  0.16209090  0.67115120  0.21735928  1.0
  C  C16  1  0.64917440  0.30467039  0.50388829  1.0
  C  C17  1  0.71910084  0.50741439  0.35637273  1.0
  C  C18  1  0.35192855  0.69447860  0.49603461  1.0
  C  C19  1  0.28157351  0.49207798  0.64359646  1.0
  C  C20  1  0.30997195  0.48372947  0.73202438  1.0
  C  C21  1  0.51131022  0.53224932  0.77266384  1.0
  C  C22  1  0.55313674  0.53294731  0.85489089  1.0
  C  C23  1  0.38986554  0.48231454  0.89837149  1.0
  C  C24  1  0.19079987  0.43192351  0.85816869  1.0
  C  C25  1  0.14483892  0.43141334  0.77510756  1.0
  C  C26  1  0.80740626  0.56971156  0.14189613  1.0
  C  C27  1  0.60840406  0.51903677  0.10181345  1.0
  C  C28  1  0.44594113  0.46737262  0.14531480  1.0
  C  C29  1  0.48852525  0.46750792  0.22750853  1.0
  C  C30  1  0.68983416  0.51639963  0.26801425  1.0
  C  C31  1  0.85414956  0.56964385  0.22490026  1.0
  C  C32  1  0.29797704  0.88463862  0.51989352  1.0
  C  C33  1  0.70328038  0.11450875  0.48000439  1.0
  C  C34  1  0.40860131  0.81331340  0.49630900  1.0
  C  C35  1  0.59269412  0.18582295  0.50360677  1.0
  C  C36  1  0.59762156  0.00451537  0.48562283  1.0
  C  C37  1  0.40354840  0.99463475  0.51424826  1.0
  C  C38  1  0.92718550  0.37349452  0.73730554  1.0
  C  C39  1  0.07180458  0.62769675  0.26260534  1.0
  S  S40  1  0.64834557  0.88127876  0.46686604  1.0
  S  S41  1  0.35300399  0.11788647  0.53310872  1.0
  N  N42  1  0.40938758  0.47630009  0.98227567  1.0
  N  N43  1  0.58837301  0.52535447  0.01793495  1.0
  O  O44  1  0.83443336  0.35164776  0.49063636  1.0
  O  O45  1  0.55364019  0.48471272  0.39132811  1.0
  O  O46  1  0.49523799  0.64832769  0.48324204  1.0
  O  O47  1  0.09579197  0.47957833  0.60874705  1.0
  O  O48  1  0.16647046  0.64755475  0.50909727  1.0
  O  O49  1  0.44727235  0.51437650  0.60876905  1.0
  O  O50  1  0.50588265  0.35075495  0.51682979  1.0
  O  O51  1  0.90504545  0.51978562  0.39101491  1.0
  O  O52  1  0.21584712  0.44974526  0.46449928  1.0
  O  O53  1  0.78511916  0.54936223  0.53544470  1.0
  F  F54  1  0.11012651  0.85441330  0.54708456  1.0
  F  F55  1  0.89114900  0.14467082  0.45281713  1.0
