# generated using pymatgen
data_AlH12C15N2O5
_symmetry_space_group_name_H-M   'P 1'
_cell_length_a   6.65476702
_cell_length_b   15.28361682
_cell_length_c   16.87948407
_cell_angle_alpha   92.45341775
_cell_angle_beta   96.21993763
_cell_angle_gamma   102.21417882
_symmetry_Int_Tables_number   1
_chemical_formula_structural   AlH12C15N2O5
_chemical_formula_sum   'Al2 H24 C30 N4 O10'
_cell_volume   1664.23306387
_cell_formula_units_Z   2
loop_
 _symmetry_equiv_pos_site_id
 _symmetry_equiv_pos_as_xyz
  1  'x, y, z'
loop_
 _atom_site_type_symbol
 _atom_site_label
 _atom_site_symmetry_multiplicity
 _atom_site_fract_x
 _atom_site_fract_y
 _atom_site_fract_z
 _atom_site_occupancy
  Al  Al0  1  0.99604346  0.49827806  0.49896198  1.0
  Al  Al1  1  0.49441786  0.49476948  0.49984366  1.0
  H  H2  1  0.17619263  0.38824061  0.45486469  1.0
  H  H3  1  0.80421221  0.60634771  0.53839689  1.0
  H  H4  1  0.58958028  0.45578105  0.73226602  1.0
  H  H5  1  0.65562489  0.45356097  0.88180942  1.0
  H  H6  1  0.09010499  0.54197919  0.90196615  1.0
  H  H7  1  0.92602318  0.53844455  0.10029592  1.0
  H  H8  1  0.27341932  0.44960525  0.11308330  1.0
  H  H9  1  0.34829401  0.44574810  0.26226379  1.0
  H  H10  1  0.74375779  0.93181639  0.43596582  1.0
  H  H11  1  0.32047126  0.05893764  0.58741784  1.0
  H  H12  1  0.85420998  0.22703314  0.43660782  1.0
  H  H13  1  0.77075180  0.06215181  0.42118081  1.0
  H  H14  1  0.10751061  0.76986532  0.53538513  1.0
  H  H15  1  0.18661454  0.93469823  0.54421333  1.0
  H  H16  1  0.94715133  0.54243940  0.68739244  1.0
  H  H17  1  0.88161245  0.56353510  0.78296813  1.0
  H  H18  1  0.07646477  0.53200811  0.31362102  1.0
  H  H19  1  0.16119748  0.55420230  0.22024663  1.0
  H  H20  1  0.80152122  0.80671413  0.37654635  1.0
  H  H21  1  0.61099800  0.70415113  0.36416080  1.0
  H  H22  1  0.79651035  0.72551603  0.44877099  1.0
  H  H23  1  0.23520990  0.26198411  0.57893075  1.0
  H  H24  1  0.45400130  0.28939053  0.65113618  1.0
  H  H25  1  0.27517770  0.18464650  0.65171850  1.0
  C  C26  1  0.67097564  0.33573681  0.51323324  1.0
  C  C27  1  0.70248293  0.48968520  0.35357837  1.0
  C  C28  1  0.32450593  0.65783926  0.48474810  1.0
  C  C29  1  0.28686335  0.50360791  0.64503735  1.0
  C  C30  1  0.30845252  0.50211010  0.73273410  1.0
  C  C31  1  0.48396207  0.47613204  0.77076826  1.0
  C  C32  1  0.52180663  0.47496693  0.85270103  1.0
  C  C33  1  0.37710266  0.50056517  0.89944966  1.0
  C  C34  1  0.19945704  0.52415177  0.86368187  1.0
  C  C35  1  0.15998065  0.52623199  0.77976419  1.0
  C  C36  1  0.80066150  0.51957816  0.13714118  1.0
  C  C37  1  0.59816899  0.49742990  0.09964412  1.0
  C  C38  1  0.42981957  0.47020890  0.14403013  1.0
  C  C39  1  0.47240706  0.46798872  0.22572777  1.0
  C  C40  1  0.67545223  0.49256218  0.26594394  1.0
  C  C41  1  0.84578877  0.51871209  0.22091557  1.0
  C  C42  1  0.37842884  0.75706369  0.48142400  1.0
  C  C43  1  0.62571864  0.23636046  0.51542694  1.0
  C  C44  1  0.55806560  0.80326581  0.45069405  1.0
  C  C45  1  0.60292957  0.89706414  0.45844153  1.0
  C  C46  1  0.47229310  0.18880627  0.55875910  1.0
  C  C47  1  0.43367561  0.09512473  0.55168926  1.0
  C  C48  1  0.73499324  0.18908299  0.46882853  1.0
  C  C49  1  0.68829248  0.09601584  0.46078996  1.0
  C  C50  1  0.24760137  0.80639816  0.51373985  1.0
  C  C51  1  0.29433538  0.89941279  0.51955379  1.0
  C  C52  1  0.47750392  0.94730705  0.49352077  1.0
  C  C53  1  0.53375975  0.04658571  0.50185449  1.0
  C  C54  1  0.69885346  0.75758738  0.40787941  1.0
  C  C55  1  0.35344399  0.23357861  0.61313497  1.0
  N  N56  1  0.39693685  0.50158377  0.98389633  1.0
  N  N57  1  0.57820186  0.50130489  0.01565445  1.0
  N  N58  1  0.98848573  0.55309964  0.74740608  1.0
  N  N59  1  0.04546340  0.54429113  0.25533011  1.0
  O  O60  1  0.85667904  0.37553114  0.50650800  1.0
  O  O61  1  0.54133262  0.48131194  0.38983519  1.0
  O  O62  1  0.47162907  0.61612062  0.48553600  1.0
  O  O63  1  0.10786915  0.50583206  0.60889213  1.0
  O  O64  1  0.13573787  0.62067554  0.48945546  1.0
  O  O65  1  0.44744449  0.50357770  0.60997434  1.0
  O  O66  1  0.51943122  0.37431667  0.51516721  1.0
  O  O67  1  0.88661556  0.49524354  0.38872125  1.0
  O  O68  1  0.21382215  0.45273106  0.46618543  1.0
  O  O69  1  0.77541150  0.54132744  0.53252847  1.0
