# generated using pymatgen
data_LaH12C21NO6
_symmetry_space_group_name_H-M   'P 1'
_cell_length_a   13.02371438
_cell_length_b   14.74747924
_cell_length_c   14.74744238
_cell_angle_alpha   111.72593552
_cell_angle_beta   107.11419794
_cell_angle_gamma   107.11429999
_symmetry_Int_Tables_number   1
_chemical_formula_structural   LaH12C21NO6
_chemical_formula_sum   'La3 H36 C63 N3 O18'
_cell_volume   2240.47497153
_cell_formula_units_Z   3
loop_
 _symmetry_equiv_pos_site_id
 _symmetry_equiv_pos_as_xyz
  1  'x, y, z'
loop_
 _atom_site_type_symbol
 _atom_site_label
 _atom_site_symmetry_multiplicity
 _atom_site_fract_x
 _atom_site_fract_y
 _atom_site_fract_z
 _atom_site_occupancy
  La  La0  1  0.82355024  0.32354362  0.64710825  1.0
  La  La1  1  0.17644979  0.35289071  0.67645612  1.0
  La  La2  1  0.50000155  0.32353901  0.67645925  1.0
  H  H3  1  0.65484523  0.47968735  0.30087067  1.0
  H  H4  1  0.35391774  0.69918788  0.17881753  1.0
  H  H5  1  0.17527154  0.82121940  0.52042887  1.0
  H  H6  1  0.64607981  0.82118010  0.30081101  1.0
  H  H7  1  0.82473191  0.47957349  0.17878236  1.0
  H  H8  1  0.34515383  0.69913030  0.52031300  1.0
  H  H9  1  0.64166740  0.37927554  0.40320962  1.0
  H  H10  1  0.23846369  0.59680761  0.97604513  1.0
  H  H11  1  0.26250839  0.02397939  0.62071849  1.0
  H  H12  1  0.76153344  0.02395263  0.40319136  1.0
  H  H13  1  0.73749476  0.37928332  0.97602209  1.0
  H  H14  1  0.35833238  0.59679156  0.62072544  1.0
  H  H15  1  0.66850385  0.65484273  0.66666667  1.0
  H  H16  1  0.00183684  0.33338303  0.98816929  1.0
  H  H17  1  0.01369199  0.01176167  0.34513680  1.0
  H  H18  1  0.99816443  0.01182982  0.66666667  1.0
  H  H19  1  0.98630937  0.65486402  0.98823861  1.0
  H  H20  1  0.33149515  0.33329901  0.34515805  1.0
  H  H21  1  0.68824914  0.75872905  0.56924731  1.0
  H  H22  1  0.11916216  0.43078251  0.18948798  1.0
  H  H23  1  0.92968680  0.81043719  0.24136014  1.0
  H  H24  1  0.88083996  0.81051212  0.56921808  1.0
  H  H25  1  0.07031506  0.75864143  0.18956336  1.0
  H  H26  1  0.31175150  0.43075335  0.24127200  1.0
  H  H27  1  0.45556201  0.53825297  0.24236711  1.0
  H  H28  1  0.21325938  0.75761083  0.29597565  1.0
  H  H29  1  0.91725528  0.70403543  0.46167858  1.0
  H  H30  1  0.78674077  0.70402324  0.24238830  1.0
  H  H31  1  0.08274687  0.53832256  0.29596365  1.0
  H  H32  1  0.54443746  0.75763355  0.46174734  1.0
  H  H33  1  0.35152664  0.43939381  0.03783161  1.0
  H  H34  1  0.31372226  0.96214341  0.40153052  1.0
  H  H35  1  0.91203356  0.59836194  0.56056364  1.0
  H  H36  1  0.68627635  0.59846682  0.03785457  1.0
  H  H37  1  0.08796804  0.43943582  0.40163614  1.0
  H  H38  1  0.64847190  0.96216772  0.56060534  1.0
  C  C39  1  0.67348571  0.62688999  0.42774188  1.0
  C  C40  1  0.24580627  0.57229750  0.19914626  1.0
  C  C41  1  0.04675057  0.80082725  0.37317065  1.0
  C  C42  1  0.75419518  0.80085311  0.42770224  1.0
  C  C43  1  0.95325179  0.62683168  0.19917435  1.0
  C  C44  1  0.32651343  0.57225769  0.37311014  1.0
  C  C45  1  0.65816059  0.51849004  0.38118421  1.0
  C  C46  1  0.27693145  0.61887996  0.13728822  1.0
  C  C47  1  0.13982141  0.86270272  0.48157335  1.0
  C  C48  1  0.72306955  0.86271220  0.38112183  1.0
  C  C49  1  0.86018275  0.51842884  0.13729960  1.0
  C  C50  1  0.34183949  0.61881637  0.48151154  1.0
  C  C51  1  0.65075793  0.46216536  0.43837847  1.0
  C  C52  1  0.21235761  0.56167002  0.02376911  1.0
  C  C53  1  0.18874190  0.97623764  0.53782468  1.0
  C  C54  1  0.78764306  0.97623195  0.43833100  1.0
  C  C55  1  0.81126100  0.46217780  0.02376543  1.0
  C  C56  1  0.34924285  0.56162191  0.53783357  1.0
  C  C57  1  0.65610290  0.51127992  0.54232398  1.0
  C  C58  1  0.11371255  0.45775139  0.96893942  1.0
  C  C59  1  0.14495381  0.03108573  0.48872279  1.0
  C  C60  1  0.88628545  0.03105948  0.54224638  1.0
  C  C61  1  0.85504750  0.51127824  0.96891466  1.0
  C  C62  1  0.34389853  0.45767953  0.48872239  1.0
  C  C63  1  0.66783721  0.61800457  0.58732997  1.0
  C  C64  1  0.08051233  0.41275367  0.03068495  1.0
  C  C65  1  0.04995343  0.96929690  0.38200662  1.0
  C  C66  1  0.91948996  0.96931344  0.58724473  1.0
  C  C67  1  0.95004819  0.61799404  0.03070323  1.0
  C  C68  1  0.33216464  0.41267325  0.38199725  1.0
  C  C69  1  0.67722628  0.67538119  0.53165373  1.0
  C  C70  1  0.14569645  0.46837162  0.14372530  1.0
  C  C71  1  0.00205241  0.85624600  0.32466575  1.0
  C  C72  1  0.85430337  0.85627235  0.53162545  1.0
  C  C73  1  0.99794859  0.67533561  0.14375401  1.0
  C  C74  1  0.32277462  0.46834800  0.32462004  1.0
  C  C75  1  0.64397298  0.45208679  0.60358716  1.0
  C  C76  1  0.04036100  0.39641890  0.84850254  1.0
  C  C77  1  0.19196625  0.15152529  0.54790519  1.0
  C  C78  1  0.95963839  0.15149617  0.60358226  1.0
  C  C79  1  0.80803491  0.45209501  0.84847459  1.0
  C  C80  1  0.35603220  0.39641709  0.54791637  1.0
  C  C81  1  0.62722821  0.62723747  0.25455040  1.0
  C  C82  1  0.37277024  0.74544946  0.37276173  1.0
  C  C83  1  0.99999786  0.62723959  0.37275846  1.0
  C  C84  1  0.50493603  0.55152256  0.19681572  1.0
  C  C85  1  0.30820621  0.80317057  0.35473444  1.0
  C  C86  1  0.95340264  0.64523674  0.44846245  1.0
  C  C87  1  0.69179295  0.64526488  0.19682966  1.0
  C  C88  1  0.04659752  0.55153681  0.35476193  1.0
  C  C89  1  0.49506458  0.80318472  0.44847832  1.0
  C  C90  1  0.44756133  0.49578098  0.08293052  1.0
  C  C91  1  0.36466643  0.91705812  0.41283185  1.0
  C  C92  1  0.95172452  0.58709425  0.50420495  1.0
  C  C93  1  0.63533175  0.58716611  0.08294135  1.0
  C  C94  1  0.04827522  0.49579396  0.41290357  1.0
  C  C95  1  0.55243698  0.91706954  0.50421870  1.0
  C  C96  1  0.51244002  0.51249746  0.02490594  1.0
  C  C97  1  0.48755983  0.97509393  0.48750116  1.0
  C  C98  1  0.00000018  0.51245161  0.48754823  1.0
  C  C99  1  0.45128897  0.45133743  0.90257724  1.0
  C  C100  1  0.54870874  0.09742146  0.54865936  1.0
  C  C101  1  0.99999963  0.45127705  0.54872041  1.0
  N  N102  1  0.68565764  0.68570992  0.37140052  1.0
  N  N103  1  0.31434316  0.62859863  0.31428982  1.0
  N  N104  1  0.00000068  0.68567218  0.31432787  1.0
  O  O105  1  0.62151806  0.49100804  0.68436047  1.0
  O  O106  1  0.93717127  0.31559931  0.80662284  1.0
  O  O107  1  0.13059723  0.19338275  0.50897603  1.0
  O  O108  1  0.06282629  0.19337527  0.68440040  1.0
  O  O109  1  0.86940299  0.49102433  0.80661589  1.0
  O  O110  1  0.37848942  0.31564545  0.50899493  1.0
  O  O111  1  0.65045288  0.36055809  0.57223186  1.0
  O  O112  1  0.07816304  0.42772265  0.78828315  1.0
  O  O113  1  0.28992692  0.21174559  0.63947775  1.0
  O  O114  1  0.92183607  0.21171523  0.57227578  1.0
  O  O115  1  0.71007559  0.36052194  0.78825576  1.0
  O  O116  1  0.34955074  0.42777002  0.63944497  1.0
  O  O117  1  0.51289766  0.42479926  0.85398139  1.0
  O  O118  1  0.65890591  0.14600251  0.57070675  1.0
  O  O119  1  0.08806096  0.42910829  0.57512085  1.0
  O  O120  1  0.34109178  0.42928797  0.85399753  1.0
  O  O121  1  0.91193805  0.42487625  0.57088907  1.0
  O  O122  1  0.48710057  0.14601659  0.57519922  1.0
