# generated using pymatgen
data_AlH5C11SNClO5
_symmetry_space_group_name_H-M   'P 1'
_cell_length_a   6.67337416
_cell_length_b   12.70291950
_cell_length_c   16.91739760
_cell_angle_alpha   91.39261996
_cell_angle_beta   97.21184789
_cell_angle_gamma   104.15438693
_symmetry_Int_Tables_number   1
_chemical_formula_structural   AlH5C11SNClO5
_chemical_formula_sum   'Al2 H10 C22 S2 N2 Cl2 O10'
_cell_volume   1377.31326479
_cell_formula_units_Z   2
loop_
 _symmetry_equiv_pos_site_id
 _symmetry_equiv_pos_as_xyz
  1  'x, y, z'
loop_
 _atom_site_type_symbol
 _atom_site_label
 _atom_site_symmetry_multiplicity
 _atom_site_fract_x
 _atom_site_fract_y
 _atom_site_fract_z
 _atom_site_occupancy
  Al  Al0  1  0.99999637  0.49999983  0.49999750  1.0
  Al  Al1  1  0.50000083  0.49999876  0.49999883  1.0
  H  H2  1  0.17193809  0.37196265  0.44876943  1.0
  H  H3  1  0.82806021  0.62803307  0.55123117  1.0
  H  H4  1  0.64736660  0.50276502  0.73565900  1.0
  H  H5  1  0.71043441  0.50169490  0.88590016  1.0
  H  H6  1  0.06708123  0.49367964  0.89553616  1.0
  H  H7  1  0.00350245  0.49257337  0.74464291  1.0
  H  H8  1  0.93290740  0.50632096  0.10446218  1.0
  H  H9  1  0.28955864  0.49830243  0.11409899  1.0
  H  H10  1  0.35262575  0.49723393  0.26433952  1.0
  H  H11  1  0.99649411  0.50742799  0.25535524  1.0
  C  C12  1  0.65405387  0.30541331  0.50548190  1.0
  C  C13  1  0.71204435  0.49986273  0.35645592  1.0
  C  C14  1  0.34594953  0.69458967  0.49451720  1.0
  C  C15  1  0.28795373  0.50013871  0.64354526  1.0
  C  C16  1  0.32233477  0.49791763  0.73225869  1.0
  C  C17  1  0.52218056  0.50049898  0.77172345  1.0
  C  C18  1  0.55724558  0.50009219  0.85416877  1.0
  C  C19  1  0.39152049  0.49799959  0.89861640  1.0
  C  C20  1  0.19177669  0.49524306  0.85930287  1.0
  C  C21  1  0.15704401  0.49479370  0.77647792  1.0
  C  C22  1  0.80821918  0.50475996  0.14069584  1.0
  C  C23  1  0.60847346  0.50200258  0.10138103  1.0
  C  C24  1  0.44274797  0.49990917  0.14582864  1.0
  C  C25  1  0.47780998  0.49950244  0.22827557  1.0
  C  C26  1  0.67765808  0.50208536  0.26773868  1.0
  C  C27  1  0.84294923  0.50521004  0.22351711  1.0
  C  C28  1  0.30704696  0.88732182  0.52985030  1.0
  C  C29  1  0.69296168  0.11267955  0.47015025  1.0
  C  C30  1  0.40134983  0.81402782  0.49622044  1.0
  C  C31  1  0.59866443  0.18597268  0.50377921  1.0
  C  C32  1  0.58659193  0.00368533  0.47961198  1.0
  C  C33  1  0.41341822  0.99631610  0.52039101  1.0
  S  S34  1  0.62073719  0.87822568  0.45371294  1.0
  S  S35  1  0.37926141  0.12176764  0.54628943  1.0
  N  N36  1  0.40927469  0.49845119  0.98271669  1.0
  N  N37  1  0.59071888  0.50155026  0.01728367  1.0
  Cl  Cl38  1  0.09618727  0.85619872  0.58066803  1.0
  Cl  Cl39  1  0.90380105  0.14380429  0.41932912  1.0
  O  O40  1  0.83755689  0.35247524  0.49304027  1.0
  O  O41  1  0.54981099  0.48147954  0.39181304  1.0
  O  O42  1  0.48865493  0.64801826  0.48108850  1.0
  O  O43  1  0.10053093  0.48536870  0.60999766  1.0
  O  O44  1  0.16245354  0.64752348  0.50695327  1.0
  O  O45  1  0.45018359  0.51851778  0.60818560  1.0
  O  O46  1  0.51135632  0.35198227  0.51891158  1.0
  O  O47  1  0.89947087  0.51463100  0.39000016  1.0
  O  O48  1  0.21532220  0.44858795  0.46569932  1.0
  O  O49  1  0.78467428  0.55141014  0.53429822  1.0
