# generated using pymatgen
data_Zn2H13C24N3O10
_symmetry_space_group_name_H-M   'P 1'
_cell_length_a   9.61526562
_cell_length_b   11.02584035
_cell_length_c   29.03586732
_cell_angle_alpha   90.16229918
_cell_angle_beta   90.14961993
_cell_angle_gamma   89.97700626
_symmetry_Int_Tables_number   1
_chemical_formula_structural   Zn2H13C24N3O10
_chemical_formula_sum   'Zn4 H26 C48 N6 O20'
_cell_volume   3078.25456495
_cell_formula_units_Z   2
loop_
 _symmetry_equiv_pos_site_id
 _symmetry_equiv_pos_as_xyz
  1  'x, y, z'
loop_
 _atom_site_type_symbol
 _atom_site_label
 _atom_site_symmetry_multiplicity
 _atom_site_fract_x
 _atom_site_fract_y
 _atom_site_fract_z
 _atom_site_occupancy
  Zn  Zn0  1  0.64222442  0.49823818  0.49897442  1.0
  Zn  Zn1  1  0.35720775  0.49802858  0.49839071  1.0
  Zn  Zn2  1  0.35807324  0.50079029  0.11813567  1.0
  Zn  Zn3  1  0.64310685  0.50032237  0.11870667  1.0
  H  H4  1  0.86643772  0.36364081  0.44870255  1.0
  H  H5  1  0.13263730  0.63264183  0.54943748  1.0
  H  H6  1  0.13359401  0.36399267  0.44891178  1.0
  H  H7  1  0.86634126  0.63241415  0.54898147  1.0
  H  H8  1  0.27377757  0.11119081  0.49901869  1.0
  H  H9  1  0.72127641  0.88506312  0.50017916  1.0
  H  H10  1  0.27510565  0.88327679  0.50128257  1.0
  H  H11  1  0.71996779  0.11299631  0.49953674  1.0
  H  H12  1  0.27916187  0.49662627  0.97058951  1.0
  H  H13  1  0.27574042  0.49578501  0.88452196  1.0
  H  H14  1  0.72497886  0.50452687  0.88445631  1.0
  H  H15  1  0.27520682  0.50457508  0.73276678  1.0
  H  H16  1  0.72089929  0.49520524  0.64659283  1.0
  H  H17  1  0.72441275  0.49499261  0.73264522  1.0
  H  H18  1  0.72383651  0.50192941  0.35170543  1.0
  H  H19  1  0.27650765  0.50258707  0.26536977  1.0
  H  H20  1  0.72257596  0.50475482  0.26505506  1.0
  H  H21  1  0.27776406  0.50338135  0.35202301  1.0
  H  H22  1  0.13407803  0.36624152  0.16809149  1.0
  H  H23  1  0.86743610  0.63427912  0.06762512  1.0
  H  H24  1  0.86693389  0.36640300  0.16787725  1.0
  H  H25  1  0.13372383  0.63413039  0.06805355  1.0
  H  H26  1  0.72651441  0.11336872  0.11792988  1.0
  H  H27  1  0.27899882  0.88755720  0.11702134  1.0
  H  H28  1  0.72515986  0.88541633  0.11584553  1.0
  H  H29  1  0.28033377  0.11553122  0.11746945  1.0
  C  C30  1  0.49909789  0.73522934  0.50135637  1.0
  C  C31  1  0.50277325  0.49857354  0.58945476  1.0
  C  C32  1  0.49592632  0.26099478  0.49802949  1.0
  C  C33  1  0.50137108  0.50049464  0.40838273  1.0
  C  C34  1  0.50112609  0.73756705  0.11594767  1.0
  C  C35  1  0.49738036  0.50020825  0.02770434  1.0
  C  C36  1  0.50438206  0.26337058  0.11888233  1.0
  C  C37  1  0.49887091  0.50265504  0.20869180  1.0
  C  C38  1  0.92753695  0.42324144  0.47090494  1.0
  C  C39  1  0.07226560  0.57367587  0.52680490  1.0
  C  C40  1  0.07222507  0.42364496  0.47092401  1.0
  C  C41  1  0.92738790  0.57318160  0.52673890  1.0
  C  C42  1  0.49680564  0.12518125  0.49890193  1.0
  C  C43  1  0.49825684  0.87105400  0.50087105  1.0
  C  C44  1  0.37115672  0.06066634  0.49938791  1.0
  C  C45  1  0.62389086  0.93556607  0.50020081  1.0
  C  C46  1  0.37187789  0.93455013  0.50065360  1.0
  C  C47  1  0.62318054  0.06169991  0.49955024  1.0
  C  C48  1  0.50066358  0.50308506  0.97603255  1.0
  C  C49  1  0.37566272  0.49926253  0.95103150  1.0
  C  C50  1  0.37399882  0.49822352  0.90325004  1.0
  C  C51  1  0.49989343  0.49974794  0.87833424  1.0
  C  C52  1  0.62650219  0.50311865  0.90289133  1.0
  C  C53  1  0.62445619  0.50589416  0.95064334  1.0
  C  C54  1  0.50003526  0.49873026  0.82962299  1.0
  C  C55  1  0.50012884  0.49872898  0.78757315  1.0
  C  C56  1  0.50025407  0.49948441  0.73886468  1.0
  C  C57  1  0.37364352  0.50290141  0.71431255  1.0
  C  C58  1  0.37565745  0.50523393  0.66655901  1.0
  C  C59  1  0.49943575  0.50199266  0.64115455  1.0
  C  C60  1  0.62443058  0.49817583  0.66615188  1.0
  C  C61  1  0.62613081  0.49751610  0.71393235  1.0
  C  C62  1  0.50084315  0.50163546  0.35679541  1.0
  C  C63  1  0.49948754  0.50275223  0.26027656  1.0
  C  C64  1  0.62651151  0.50200835  0.33240644  1.0
  C  C65  1  0.37382754  0.50236483  0.28466965  1.0
  C  C66  1  0.62583649  0.50327394  0.28450262  1.0
  C  C67  1  0.37450071  0.50251138  0.33257314  1.0
  C  C68  1  0.07288259  0.42560006  0.14593654  1.0
  C  C69  1  0.92789799  0.57553025  0.09019633  1.0
  C  C70  1  0.92819095  0.42592029  0.14591853  1.0
  C  C71  1  0.07276989  0.57508127  0.09024970  1.0
  C  C72  1  0.50349443  0.12754950  0.11809949  1.0
  C  C73  1  0.50199859  0.87339062  0.11637819  1.0
  C  C74  1  0.62913266  0.06292281  0.11764525  1.0
  C  C75  1  0.37636993  0.93800654  0.11699704  1.0
  C  C76  1  0.62839110  0.93678498  0.11649556  1.0
  C  C77  1  0.37711201  0.06415123  0.11752578  1.0
  N  N78  1  0.85676988  0.49810010  0.49884652  1.0
  N  N79  1  0.14284745  0.49889337  0.49885615  1.0
  N  N80  1  0.14352268  0.50033057  0.11809285  1.0
  N  N81  1  0.85743706  0.50097846  0.11809118  1.0
  N  N82  1  0.76248515  0.51664732  0.97325159  1.0
  N  N83  1  0.23758409  0.51591050  0.64397425  1.0
  O  O84  1  0.61657138  0.68266391  0.49703845  1.0
  O  O85  1  0.38236586  0.68165664  0.50583718  1.0
  O  O86  1  0.38734962  0.48118117  0.56905195  1.0
  O  O87  1  0.62079894  0.51170839  0.57051994  1.0
  O  O88  1  0.37874429  0.31332918  0.49268188  1.0
  O  O89  1  0.61265149  0.31472578  0.50288319  1.0
  O  O90  1  0.61863161  0.48837349  0.42849484  1.0
  O  O91  1  0.38426061  0.51177699  0.42849605  1.0
  O  O92  1  0.38364360  0.68519138  0.12030151  1.0
  O  O93  1  0.61784690  0.68384051  0.11144122  1.0
  O  O94  1  0.61279779  0.48281220  0.04807637  1.0
  O  O95  1  0.37942269  0.51381797  0.04666788  1.0
  O  O96  1  0.62156953  0.31567620  0.12425124  1.0
  O  O97  1  0.38770058  0.31713104  0.11396079  1.0
  O  O98  1  0.38156575  0.49083687  0.18855821  1.0
  O  O99  1  0.61590905  0.51435425  0.18860385  1.0
  O  O100  1  0.79658453  0.61912397  0.98669386  1.0
  O  O101  1  0.83648753  0.42513192  0.97430349  1.0
  O  O102  1  0.20327915  0.61838054  0.63078007  1.0
  O  O103  1  0.16380704  0.42431166  0.64268852  1.0
