# generated using pymatgen
data_AlH12(C4O)6
_symmetry_space_group_name_H-M   'P 1'
_cell_length_a   3.96437567
_cell_length_b   29.02289630
_cell_length_c   29.02130199
_cell_angle_alpha   59.99691472
_cell_angle_beta   89.99261324
_cell_angle_gamma   89.99535868
_symmetry_Int_Tables_number   1
_chemical_formula_structural   AlH12(C4O)6
_chemical_formula_sum   'Al2 H24 C48 O12'
_cell_volume   2891.67559623
_cell_formula_units_Z   2
loop_
 _symmetry_equiv_pos_site_id
 _symmetry_equiv_pos_as_xyz
  1  'x, y, z'
loop_
 _atom_site_type_symbol
 _atom_site_label
 _atom_site_symmetry_multiplicity
 _atom_site_fract_x
 _atom_site_fract_y
 _atom_site_fract_z
 _atom_site_occupancy
  Al  Al0  1  0.99578581  0.49999558  0.99997566  1.0
  Al  Al1  1  0.00487764  0.16665833  0.66669531  1.0
  H  H2  1  0.71005553  0.30840077  0.51986347  1.0
  H  H3  1  0.69079106  0.35933003  0.42044843  1.0
  H  H4  1  0.31026386  0.22017540  0.42053057  1.0
  H  H5  1  0.29534813  0.17154064  0.51997191  1.0
  H  H6  1  0.30946945  0.44647411  0.24622099  1.0
  H  H7  1  0.29059931  0.49497628  0.14680258  1.0
  H  H8  1  0.70479175  0.35817960  0.14670194  1.0
  H  H9  1  0.68949839  0.30736532  0.24614713  1.0
  H  H10  1  0.70986944  0.17173824  0.80841989  1.0
  H  H11  1  0.69069752  0.22022602  0.85934662  1.0
  H  H12  1  0.31039512  0.35932311  0.72017909  1.0
  H  H13  1  0.29540999  0.30851516  0.67154500  1.0
  H  H14  1  0.30952782  0.30729881  0.94646703  1.0
  H  H15  1  0.29070148  0.35820919  0.99497047  1.0
  H  H16  1  0.70492982  0.49509900  0.85817065  1.0
  H  H17  1  0.68963514  0.44647668  0.80735401  1.0
  H  H18  1  0.70975475  0.01987098  0.67173533  1.0
  H  H19  1  0.69062002  0.92045595  0.72019686  1.0
  H  H20  1  0.31034937  0.92048339  0.85932427  1.0
  H  H21  1  0.29530585  0.01992580  0.80854343  1.0
  H  H22  1  0.30946341  0.74624374  0.80730814  1.0
  H  H23  1  0.29052298  0.64683257  0.85819610  1.0
  H  H24  1  0.70474682  0.64668719  0.99510385  1.0
  H  H25  1  0.68952939  0.74612660  0.94650592  1.0
  C  C26  1  0.49598218  0.58191374  0.95911847  1.0
  C  C27  1  0.49600042  0.45893720  0.08190251  1.0
  C  C28  1  0.49607695  0.45913861  0.95892420  1.0
  C  C29  1  0.50465302  0.20747076  0.58477039  1.0
  C  C30  1  0.50459410  0.20777084  0.70749971  1.0
  C  C31  1  0.50458529  0.08474152  0.70780399  1.0
  C  C32  1  0.50296479  0.23707929  0.52568375  1.0
  C  C33  1  0.61845954  0.28977644  0.49766259  1.0
  C  C34  1  0.60963885  0.31793625  0.44245319  1.0
  C  C35  1  0.50051197  0.29302434  0.41393681  1.0
  C  C36  1  0.39232732  0.23954371  0.44250887  1.0
  C  C37  1  0.38595484  0.21242222  0.49772978  1.0
  C  C38  1  0.49998317  0.32119084  0.35762146  1.0
  C  C39  1  0.49988821  0.34548710  0.30904832  1.0
  C  C40  1  0.49949816  0.37364110  0.25273178  1.0
  C  C41  1  0.39060195  0.42708676  0.22421515  1.0
  C  C42  1  0.38199605  0.45413626  0.16900468  1.0
  C  C43  1  0.49747924  0.42945385  0.14098758  1.0
  C  C44  1  0.61423545  0.37682471  0.16894565  1.0
  C  C45  1  0.60763376  0.34872514  0.22416633  1.0
  C  C46  1  0.50289690  0.23725401  0.73709648  1.0
  C  C47  1  0.61836283  0.21257011  0.78979528  1.0
  C  C48  1  0.60960175  0.23961643  0.81795137  1.0
  C  C49  1  0.50056502  0.29305194  0.79302457  1.0
  C  C50  1  0.39239475  0.31796892  0.73954621  1.0
  C  C51  1  0.38595529  0.28987167  0.71242980  1.0
  C  C52  1  0.50004698  0.32119534  0.82118882  1.0
  C  C53  1  0.49993578  0.34547197  0.84547938  1.0
  C  C54  1  0.49953378  0.37362567  0.87363130  1.0
  C  C55  1  0.39064089  0.34869340  0.92707753  1.0
  C  C56  1  0.38204647  0.37684644  0.95412802  1.0
  C  C57  1  0.49753954  0.42954375  0.92944121  1.0
  C  C58  1  0.61433500  0.45421491  0.87681380  1.0
  C  C59  1  0.60772669  0.42710379  0.84871233  1.0
  C  C60  1  0.50283500  0.02565976  0.73726923  1.0
  C  C61  1  0.61826087  0.99765806  0.71256878  1.0
  C  C62  1  0.60950812  0.94244982  0.73959762  1.0
  C  C63  1  0.50049789  0.91392536  0.79303942  1.0
  C  C64  1  0.39232251  0.94247503  0.81796777  1.0
  C  C65  1  0.38586532  0.99769478  0.78988968  1.0
  C  C66  1  0.50002116  0.85761359  0.82118256  1.0
  C  C67  1  0.49991453  0.80904193  0.84548265  1.0
  C  C68  1  0.49949581  0.75273057  0.87364012  1.0
  C  C69  1  0.39058277  0.72423100  0.84870116  1.0
  C  C70  1  0.38193540  0.66902204  0.87684184  1.0
  C  C71  1  0.49742731  0.64099484  0.92953744  1.0
  C  C72  1  0.61420319  0.66893695  0.95422072  1.0
  C  C73  1  0.60764209  0.72415602  0.92712078  1.0
  O  O74  1  0.26074278  0.44862353  0.99284597  1.0
  O  O75  1  0.26072000  0.55850643  0.94860271  1.0
  O  O76  1  0.26067224  0.49285609  0.05849571  1.0
  O  O77  1  0.73032692  0.49321363  0.94845197  1.0
  O  O78  1  0.73025442  0.44847194  0.05828714  1.0
  O  O79  1  0.73024713  0.55830355  0.99318858  1.0
  O  O80  1  0.27044942  0.10838282  0.71825866  1.0
  O  O81  1  0.27050495  0.17338029  0.60841444  1.0
  O  O82  1  0.27044461  0.21821779  0.67341688  1.0
  O  O83  1  0.74005382  0.10811880  0.67390162  1.0
  O  O84  1  0.74000943  0.17385781  0.71803353  1.0
  O  O85  1  0.74004936  0.21799657  0.60815007  1.0
