# generated using pymatgen
data_ZnH20C38(NO3)2
_symmetry_space_group_name_H-M   'P 1'
_cell_length_a   14.64838791
_cell_length_b   15.66075371
_cell_length_c   27.88262139
_cell_angle_alpha   85.43568487
_cell_angle_beta   75.61194084
_cell_angle_gamma   81.48241440
_symmetry_Int_Tables_number   1
_chemical_formula_structural   ZnH20C38(NO3)2
_chemical_formula_sum   'Zn2 H40 C76 N4 O12'
_cell_volume   6121.33552256
_cell_formula_units_Z   2
loop_
 _symmetry_equiv_pos_site_id
 _symmetry_equiv_pos_as_xyz
  1  'x, y, z'
loop_
 _atom_site_type_symbol
 _atom_site_label
 _atom_site_symmetry_multiplicity
 _atom_site_fract_x
 _atom_site_fract_y
 _atom_site_fract_z
 _atom_site_occupancy
  Zn  Zn0  1  0.91842487  0.48274002  0.48822453  1.0
  Zn  Zn1  1  0.08016744  0.51696902  0.51342583  1.0
  H  H2  1  0.72349392  0.48052225  0.63506845  1.0
  H  H3  1  0.15805602  0.85221816  0.47296247  1.0
  H  H4  1  0.43634380  0.67135999  0.58759940  1.0
  H  H5  1  0.56287496  0.32958306  0.41269139  1.0
  H  H6  1  0.71824469  0.53324929  0.51865119  1.0
  H  H7  1  0.27997893  0.46456996  0.48384896  1.0
  H  H8  1  0.88311977  0.35241580  0.42313896  1.0
  H  H9  1  0.11616462  0.64911413  0.57727124  1.0
  H  H10  1  0.25925677  0.69329908  0.59867839  1.0
  H  H11  1  0.74023344  0.30828500  0.40135016  1.0
  H  H12  1  0.59257077  0.59566255  0.54923932  1.0
  H  H13  1  0.26944675  0.53388998  0.36598374  1.0
  H  H14  1  0.40650222  0.40445162  0.45147932  1.0
  H  H15  1  0.63902073  0.48000670  0.72513845  1.0
  H  H16  1  0.35666002  0.53115328  0.27620652  1.0
  H  H17  1  0.02536335  0.46013912  0.32943916  1.0
  H  H18  1  0.98042870  0.52134269  0.67213651  1.0
  H  H19  1  0.11202731  0.45661073  0.23955873  1.0
  H  H20  1  0.89643737  0.52167175  0.76231348  1.0
  H  H21  1  0.34155659  0.70908012  0.11815403  1.0
  H  H22  1  0.62610870  0.28662999  0.87672698  1.0
  H  H23  1  0.44026386  0.71386141  0.03187311  1.0
  H  H24  1  0.98209846  0.22184348  0.47725299  1.0
  H  H25  1  0.53804656  0.28027609  0.96494379  1.0
  H  H26  1  0.54815032  0.70988413  0.97218005  1.0
  H  H27  1  0.49730555  0.27627315  0.03824590  1.0
  H  H28  1  0.80646409  0.05535115  0.43066585  1.0
  H  H29  1  0.26672588  0.94702201  0.48721100  1.0
  H  H30  1  0.63035380  0.78645438  0.91200514  1.0
  H  H31  1  0.72952763  0.73284002  0.86858046  1.0
  H  H32  1  0.62240035  0.76365218  0.85139431  1.0
  H  H33  1  0.44789369  0.19554987  0.10478894  1.0
  H  H34  1  0.44038804  0.23826565  0.16353875  1.0
  H  H35  1  0.05337181  0.77919342  0.48426097  1.0
  H  H36  1  0.33612677  0.23530284  0.14467355  1.0
  H  H37  1  0.24108523  0.24897243  0.51514299  1.0
  H  H38  1  0.78674853  0.75128856  0.45522048  1.0
  H  H39  1  0.75726866  0.91028443  0.43585707  1.0
  H  H40  1  0.29621461  0.09103158  0.50476834  1.0
  H  H41  1  0.91503080  0.15032494  0.44492752  1.0
  C  C42  1  0.94025334  0.66351378  0.48528264  1.0
  C  C43  1  0.35783744  0.57150051  0.12526944  1.0
  C  C44  1  0.85676099  0.50139204  0.64834151  1.0
  C  C45  1  0.14269125  0.49663604  0.35281296  1.0
  C  C46  1  0.47005600  0.57499425  0.02678280  1.0
  C  C47  1  0.53417848  0.41628275  0.97535161  1.0
  C  C48  1  0.48463495  0.41470252  0.02789114  1.0
  C  C49  1  0.53154306  0.57519327  0.97661334  1.0
  C  C50  1  0.45060851  0.49425158  0.05200276  1.0
  C  C51  1  0.55899090  0.49646773  0.95120220  1.0
  C  C52  1  0.42939992  0.65141099  0.05093008  1.0
  C  C53  1  0.07121811  0.33681973  0.50372151  1.0
  C  C54  1  0.55839883  0.34180030  0.94786783  1.0
  C  C55  1  0.37361034  0.64960261  0.09934158  1.0
  C  C56  1  0.60775819  0.34454471  0.89822015  1.0
  C  C57  1  0.90747732  0.50091540  0.59447536  1.0
  C  C58  1  0.09085055  0.49834473  0.40644582  1.0
  C  C59  1  0.56471150  0.65000048  0.95251923  1.0
  C  C60  1  0.46915055  0.33778444  0.05550371  1.0
  C  C61  1  0.92241153  0.75774532  0.47130037  1.0
  C  C62  1  0.10772138  0.24308920  0.49631817  1.0
  C  C63  1  0.82267004  0.88149446  0.44618845  1.0
  C  C64  1  0.61225658  0.49900982  0.90067398  1.0
  C  C65  1  0.22760641  0.11988116  0.49814478  1.0
  C  C66  1  0.83834102  0.79377820  0.45694009  1.0
  C  C67  1  0.19765360  0.20706301  0.50393351  1.0
  C  C68  1  0.99014336  0.81003623  0.47281692  1.0
  C  C69  1  0.05116114  0.19120730  0.48192710  1.0
  C  C70  1  0.97637034  0.89971876  0.46198558  1.0
  C  C71  1  0.07958560  0.10203876  0.47578054  1.0
  C  C72  1  0.88951623  0.93637747  0.44936414  1.0
  C  C73  1  0.16945722  0.06544612  0.48491830  1.0
  C  C74  1  0.04404132  0.95561227  0.46633365  1.0
  C  C75  1  0.39617343  0.49209943  0.10229760  1.0
  C  C76  1  0.01860579  0.04646033  0.46366578  1.0
  C  C77  1  0.93239029  0.08055912  0.44975955  1.0
  C  C78  1  0.13563233  0.92169280  0.47403627  1.0
  C  C79  1  0.87145723  0.02775648  0.44177951  1.0
  C  C80  1  0.19668432  0.97445969  0.48193726  1.0
  C  C81  1  0.69493393  0.57864342  0.82422717  1.0
  C  C82  1  0.32649699  0.41190309  0.18138895  1.0
  C  C83  1  0.26709100  0.64217110  0.57304178  1.0
  C  C84  1  0.73215986  0.35863888  0.42749868  1.0
  C  C85  1  0.18827781  0.61856273  0.56173595  1.0
  C  C86  1  0.64192284  0.57766152  0.87683275  1.0
  C  C87  1  0.81078680  0.38200147  0.43911780  1.0
  C  C88  1  0.28103947  0.51433263  0.50879990  1.0
  C  C89  1  0.71758034  0.48466051  0.49291363  1.0
  C  C90  1  0.36625632  0.53332927  0.51776074  1.0
  C  C91  1  0.63254899  0.46632271  0.48341636  1.0
  C  C92  1  0.35852636  0.59964212  0.55135920  1.0
  C  C93  1  0.64055130  0.40061714  0.44941442  1.0
  C  C94  1  0.45842999  0.48848954  0.49475030  1.0
  C  C95  1  0.54036476  0.51115803  0.50637528  1.0
  C  C96  1  0.52984862  0.57783372  0.54027706  1.0
  C  C97  1  0.38096580  0.41193346  0.12900546  1.0
  C  C98  1  0.46913654  0.42214257  0.46060637  1.0
  C  C99  1  0.44261268  0.62059221  0.56191503  1.0
  C  C100  1  0.55649692  0.37986025  0.43870196  1.0
  C  C101  1  0.68813361  0.41993261  0.82215199  1.0
  C  C102  1  0.30051450  0.57397955  0.17690152  1.0
  C  C103  1  0.85900328  0.51256666  0.73423399  1.0
  C  C104  1  0.14607776  0.47349347  0.26745167  1.0
  C  C105  1  0.90557447  0.51276171  0.68420699  1.0
  C  C106  1  0.09807144  0.47516132  0.31725748  1.0
  C  C107  1  0.76055791  0.48989744  0.66321816  1.0
  C  C108  1  0.62020909  0.65363744  0.90349945  1.0
  C  C109  1  0.23596674  0.51670281  0.33796574  1.0
  C  C110  1  0.71364254  0.48969526  0.71317430  1.0
  C  C111  1  0.28425600  0.51511083  0.28825505  1.0
  C  C112  1  0.76325195  0.50088674  0.74842387  1.0
  C  C113  1  0.23892989  0.49352554  0.25332137  1.0
  C  C114  1  0.65211935  0.73888835  0.88305856  1.0
  C  C115  1  0.41078017  0.24576655  0.13071423  1.0
  C  C116  1  0.41940026  0.33374981  0.10563415  1.0
  C  C117  1  0.63533317  0.42148981  0.87464965  1.0
  N  N118  1  0.71433808  0.49950132  0.80018884  1.0
  N  N119  1  0.28955314  0.49320348  0.20181232  1.0
  N  N120  1  0.19601066  0.55492403  0.53002811  1.0
  N  N121  1  0.80272267  0.44449967  0.47156943  1.0
  O  O122  1  0.88307276  0.61456309  0.47817206  1.0
  O  O123  1  0.31254157  0.34568296  0.20759850  1.0
  O  O124  1  0.26449020  0.64167515  0.19762037  1.0
  O  O125  1  0.70844584  0.35386323  0.79845220  1.0
  O  O126  1  0.12683393  0.38529346  0.51296775  1.0
  O  O127  1  0.01246972  0.63914531  0.50317929  1.0
  O  O128  1  0.98628601  0.36140458  0.49983727  1.0
  O  O129  1  0.85874425  0.49308499  0.56343090  1.0
  O  O130  1  0.13615074  0.51618064  0.43707440  1.0
  O  O131  1  0.99585113  0.50817034  0.58387901  1.0
  O  O132  1  0.00534078  0.48174557  0.41726086  1.0
  O  O133  1  0.72139158  0.64423573  0.80071186  1.0
