# generated using pymatgen
data_AlH8C14BrNO5
_symmetry_space_group_name_H-M   'P 1'
_cell_length_a   6.65540075
_cell_length_b   11.11834319
_cell_length_c   17.74654863
_cell_angle_alpha   88.76111488
_cell_angle_beta   79.82039759
_cell_angle_gamma   73.10043204
_symmetry_Int_Tables_number   1
_chemical_formula_structural   AlH8C14BrNO5
_chemical_formula_sum   'Al2 H16 C28 Br2 N2 O10'
_cell_volume   1236.08647572
_cell_formula_units_Z   2
loop_
 _symmetry_equiv_pos_site_id
 _symmetry_equiv_pos_as_xyz
  1  'x, y, z'
loop_
 _atom_site_type_symbol
 _atom_site_label
 _atom_site_symmetry_multiplicity
 _atom_site_fract_x
 _atom_site_fract_y
 _atom_site_fract_z
 _atom_site_occupancy
  Al  Al0  1  0.00954605  0.50292564  0.49671184  1.0
  Al  Al1  1  0.50731973  0.50704379  0.49778937  1.0
  H  H2  1  0.35609043  0.35298662  0.45935921  1.0
  H  H3  1  0.67736178  0.58550710  0.58554460  1.0
  H  H4  1  0.85620388  0.44944180  0.72279645  1.0
  H  H5  1  0.78751835  0.42889573  0.86505352  1.0
  H  H6  1  0.42843241  0.54683484  0.73733586  1.0
  H  H7  1  0.53494125  0.54824367  0.26477524  1.0
  H  H8  1  0.20782833  0.43418128  0.26905367  1.0
  H  H9  1  0.28614758  0.41752009  0.12560574  1.0
  H  H10  1  0.53604783  0.23225062  0.60301504  1.0
  H  H11  1  0.77686414  0.76542764  0.58488884  1.0
  H  H12  1  0.36336027  0.88913964  0.44387308  1.0
  H  H13  1  0.24171846  0.12420270  0.45149424  1.0
  H  H14  1  0.32323292  0.55849340  0.94685752  1.0
  H  H15  1  0.47689761  0.59511042  0.86657483  1.0
  H  H16  1  0.61341343  0.55908521  0.05536226  1.0
  H  H17  1  0.42783763  0.59222758  0.13849755  1.0
  C  C18  1  0.86721979  0.27614892  0.50929345  1.0
  C  C19  1  0.81984013  0.50132808  0.35958347  1.0
  C  C20  1  0.14435060  0.73063382  0.49405628  1.0
  C  C21  1  0.19183046  0.50654034  0.63755938  1.0
  C  C22  1  0.14589945  0.50016472  0.72246040  1.0
  C  C23  1  0.96252341  0.46853536  0.75799948  1.0
  C  C24  1  0.92476454  0.45757257  0.83680527  1.0
  C  C25  1  0.06222871  0.48318815  0.88225520  1.0
  C  C26  1  0.24573158  0.51814533  0.84625848  1.0
  C  C27  1  0.28652272  0.52322123  0.76613058  1.0
  C  C28  1  0.02065368  0.47791943  0.96286729  1.0
  C  C29  1  0.99722612  0.47641696  0.03293478  1.0
  C  C30  1  0.95511594  0.47882667  0.11376782  1.0
  C  C31  1  0.73877480  0.51602868  0.15293698  1.0
  C  C32  1  0.69859436  0.52132766  0.23328896  1.0
  C  C33  1  0.86649144  0.49352418  0.27427035  1.0
  C  C34  1  0.07973100  0.45662035  0.23577477  1.0
  C  C35  1  0.12209818  0.44795101  0.15643818  1.0
  C  C36  1  0.93160208  0.13624064  0.51447263  1.0
  C  C37  1  0.79098383  0.06905804  0.55245773  1.0
  C  C38  1  0.13553206  0.07099037  0.47818161  1.0
  C  C39  1  0.59023073  0.13014251  0.59806938  1.0
  C  C40  1  0.46275116  0.06248250  0.63709824  1.0
  C  C41  1  0.06730591  0.87055779  0.50486597  1.0
  C  C42  1  0.20350819  0.93905374  0.47345808  1.0
  C  C43  1  0.86052053  0.93385990  0.54740685  1.0
  C  C44  1  0.72574271  0.86735956  0.58826415  1.0
  C  C45  1  0.53203799  0.92923991  0.63215910  1.0
  Br  Br46  1  0.19919296  0.15166720  0.69779445  1.0
  Br  Br47  1  0.36480323  0.83122765  0.68561729  1.0
  N  N48  1  0.38231120  0.54222222  0.89001147  1.0
  N  N49  1  0.57493999  0.54200796  0.11167602  1.0
  O  O50  1  0.01260991  0.32927635  0.51020642  1.0
  O  O51  1  0.62789405  0.51608264  0.39283579  1.0
  O  O52  1  0.34006835  0.67814508  0.49652942  1.0
  O  O53  1  0.03535547  0.51717712  0.60282364  1.0
  O  O54  1  0.01050688  0.67406483  0.48313360  1.0
  O  O55  1  0.38216461  0.50117532  0.60572811  1.0
  O  O56  1  0.67565531  0.33127531  0.50116984  1.0
  O  O57  1  0.97731061  0.49107525  0.39349536  1.0
  O  O58  1  0.30409790  0.44354924  0.46751053  1.0
  O  O59  1  0.71622029  0.55957473  0.53179219  1.0
