# generated using pymatgen
data_Zn4H36C48O13
_symmetry_space_group_name_H-M   'P 1'
_cell_length_a   21.47646921
_cell_length_b   23.70348813
_cell_length_c   24.80085000
_cell_angle_alpha   91.98162055
_cell_angle_beta   113.32946570
_cell_angle_gamma   116.56350059
_symmetry_Int_Tables_number   1
_chemical_formula_structural   Zn4H36C48O13
_chemical_formula_sum   'Zn8 H72 C96 O26'
_cell_volume   10019.01977043
_cell_formula_units_Z   2
loop_
 _symmetry_equiv_pos_site_id
 _symmetry_equiv_pos_as_xyz
  1  'x, y, z'
loop_
 _atom_site_type_symbol
 _atom_site_label
 _atom_site_symmetry_multiplicity
 _atom_site_fract_x
 _atom_site_fract_y
 _atom_site_fract_z
 _atom_site_occupancy
  Zn  Zn0  1  0.89625471  0.90333701  0.04021968  1.0
  Zn  Zn1  1  0.92575875  0.02968859  0.98892694  1.0
  Zn  Zn2  1  0.80141764  0.97595366  0.04079052  1.0
  Zn  Zn3  1  0.76339574  0.89651178  0.91355429  1.0
  Zn  Zn4  1  0.77234662  0.50210514  0.45831079  1.0
  Zn  Zn5  1  0.74168207  0.36873806  0.49266595  1.0
  Zn  Zn6  1  0.90336468  0.50103810  0.57963266  1.0
  Zn  Zn7  1  0.87255603  0.43991991  0.44749059  1.0
  H  H8  1  0.14155815  0.02626177  0.02499539  1.0
  H  H9  1  0.13917798  0.97073077  0.07181440  1.0
  H  H10  1  0.25480144  0.02032984  0.16307986  1.0
  H  H11  1  0.35734450  0.11281584  0.25315030  1.0
  H  H12  1  0.24715756  0.22576660  0.18239550  1.0
  H  H13  1  0.14727195  0.13446675  0.09103497  1.0
  H  H14  1  0.37194194  0.30688570  0.23253323  1.0
  H  H15  1  0.46731885  0.39821358  0.32500007  1.0
  H  H16  1  0.48139992  0.26176346  0.43247169  1.0
  H  H17  1  0.38330790  0.17006635  0.34074774  1.0
  H  H18  1  0.53426009  0.43577502  0.43632947  1.0
  H  H19  1  0.53380483  0.37866468  0.48138057  1.0
  H  H20  1  0.85165788  0.94318789  0.22216491  1.0
  H  H21  1  0.94727637  0.95961016  0.23756383  1.0
  H  H22  1  0.96340063  0.86014522  0.21330584  1.0
  H  H23  1  0.92984131  0.74979823  0.22836539  1.0
  H  H24  1  0.72306182  0.72780585  0.23523917  1.0
  H  H25  1  0.75831879  0.83908221  0.22216462  1.0
  H  H26  1  0.75690595  0.67286020  0.30341860  1.0
  H  H27  1  0.72605601  0.56444993  0.32232934  1.0
  H  H28  1  0.82104270  0.53289513  0.20834942  1.0
  H  H29  1  0.84869842  0.64015155  0.18696382  1.0
  H  H30  1  0.69065744  0.44090533  0.25715253  1.0
  H  H31  1  0.78041149  0.45406304  0.25985722  1.0
  H  H32  1  0.68596213  0.68338845  0.90069694  1.0
  H  H33  1  0.77609187  0.69188747  0.95613589  1.0
  H  H34  1  0.86197580  0.68179393  0.92348256  1.0
  H  H35  1  0.89948435  0.67128394  0.84306587  1.0
  H  H36  1  0.72619121  0.71404000  0.72278844  1.0
  H  H37  1  0.68753255  0.72269799  0.80284461  1.0
  H  H38  1  0.72358589  0.64556784  0.65379460  1.0
  H  H39  1  0.76608119  0.64574675  0.57463056  1.0
  H  H40  1  0.00473496  0.72873820  0.71308304  1.0
  H  H41  1  0.96296278  0.73098643  0.79234152  1.0
  H  H42  1  0.88888803  0.70827266  0.55387465  1.0
  H  H43  1  0.97838155  0.71619936  0.60969519  1.0
  H  H44  1  0.86516220  0.18702397  0.01102465  1.0
  H  H45  1  0.96270369  0.22081113  0.06730332  1.0
  H  H46  1  0.99398850  0.27890289  0.16242576  1.0
  H  H47  1  0.95853572  0.29866743  0.24156646  1.0
  H  H48  1  0.72424371  0.13665530  0.13410926  1.0
  H  H49  1  0.75883780  0.11913317  0.05418601  1.0
  H  H50  1  0.69642530  0.19431323  0.18262523  1.0
  H  H51  1  0.65918796  0.19640966  0.26456429  1.0
  H  H52  1  0.89690364  0.26450681  0.39807777  1.0
  H  H53  1  0.93370704  0.25989229  0.31632371  1.0
  H  H54  1  0.68770872  0.19678236  0.36929719  1.0
  H  H55  1  0.77956732  0.20940076  0.42230403  1.0
  H  H56  1  0.81330300  0.94947930  0.75930998  1.0
  H  H57  1  0.91607541  0.00293688  0.80496527  1.0
  H  H58  1  0.92637084  0.11621919  0.87126757  1.0
  H  H59  1  0.91262345  0.20989535  0.84163644  1.0
  H  H60  1  0.75478608  0.09382753  0.65692333  1.0
  H  H61  1  0.76853351  0.00001844  0.68673711  1.0
  H  H62  1  0.82630565  0.19869371  0.64444066  1.0
  H  H63  1  0.81099171  0.29147832  0.61469114  1.0
  H  H64  1  0.80953816  0.34129921  0.78265122  1.0
  H  H65  1  0.82169292  0.24669956  0.81126770  1.0
  H  H66  1  0.74010579  0.36978863  0.67094432  1.0
  H  H67  1  0.84082237  0.42408966  0.72131093  1.0
  H  H68  1  0.57785312  0.95686528  0.88299516  1.0
  H  H69  1  0.55605449  0.92596891  0.94099672  1.0
  H  H70  1  0.43937649  0.82703825  0.91175441  1.0
  H  H71  1  0.32347416  0.72752194  0.83445033  1.0
  H  H72  1  0.43063891  0.76328241  0.71533923  1.0
  H  H73  1  0.54511172  0.86374910  0.79202857  1.0
  H  H74  1  0.30368430  0.71899571  0.64575736  1.0
  H  H75  1  0.19339161  0.61791355  0.56711726  1.0
  H  H76  1  0.16173615  0.52271732  0.70632460  1.0
  H  H77  1  0.27433524  0.62265058  0.78519975  1.0
  H  H78  1  0.11799668  0.49570395  0.54434966  1.0
  H  H79  1  0.09920916  0.45812487  0.60102097  1.0
  C  C80  1  0.04915727  0.99560846  0.04872735  1.0
  C  C81  1  0.13296774  0.01371369  0.06485634  1.0
  C  C82  1  0.19380035  0.07079507  0.12037126  1.0
  C  C83  1  0.25323488  0.06566504  0.16703044  1.0
  C  C84  1  0.31074958  0.11770141  0.21815437  1.0
  C  C85  1  0.31028086  0.17657986  0.22486856  1.0
  C  C86  1  0.25027980  0.18126618  0.17791265  1.0
  C  C87  1  0.19345899  0.12968739  0.12647989  1.0
  C  C88  1  0.36970097  0.23137415  0.27959510  1.0
  C  C89  1  0.39449164  0.29646371  0.27647270  1.0
  C  C90  1  0.44854292  0.34799633  0.32850906  1.0
  C  C91  1  0.47986642  0.33625478  0.38533750  1.0
  C  C92  1  0.45652774  0.27158928  0.38864594  1.0
  C  C93  1  0.40224533  0.22008229  0.33675111  1.0
  C  C94  1  0.54025762  0.39243304  0.44117271  1.0
  C  C95  1  0.62298299  0.41019484  0.45342773  1.0
  C  C96  1  0.86743788  0.92893227  0.14385562  1.0
  C  C97  1  0.88411838  0.92549641  0.20900853  1.0
  C  C98  1  0.86375110  0.85774308  0.21738669  1.0
  C  C99  1  0.91081572  0.83125607  0.21842592  1.0
  C  C100  1  0.89126371  0.76873020  0.22612687  1.0
  C  C101  1  0.82401832  0.73035918  0.23312491  1.0
  C  C102  1  0.77657551  0.75689988  0.23130483  1.0
  C  C103  1  0.79617889  0.81952777  0.22356736  1.0
  C  C104  1  0.80503217  0.66498183  0.24362431  1.0
  C  C105  1  0.76966652  0.64183819  0.28129104  1.0
  C  C106  1  0.75277055  0.58088819  0.29247220  1.0
  C  C107  1  0.77159638  0.54088378  0.26698381  1.0
  C  C108  1  0.80662301  0.56351989  0.22922192  1.0
  C  C109  1  0.82273465  0.62431828  0.21747254  1.0
  C  C110  1  0.75455536  0.47452298  0.27893745  1.0
  C  C111  1  0.78476623  0.47647936  0.34614906  1.0
  C  C112  1  0.77936050  0.78186375  0.94253843  1.0
  C  C113  1  0.75001831  0.71008829  0.91850213  1.0
  C  C114  1  0.77143704  0.70212820  0.86859495  1.0
  C  C115  1  0.83167322  0.68843997  0.87920566  1.0
  C  C116  1  0.85331563  0.68316095  0.83399469  1.0
  C  C117  1  0.81579441  0.69194809  0.77671547  1.0
  C  C118  1  0.75521711  0.70556598  0.76637876  1.0
  C  C119  1  0.73337145  0.71052833  0.81141193  1.0
  C  C120  1  0.84013868  0.68877128  0.72919768  1.0
  C  C121  1  0.78565028  0.66489670  0.66713523  1.0
  C  C122  1  0.80951834  0.66471624  0.62249933  1.0
  C  C123  1  0.88868310  0.68816857  0.63827379  1.0
  C  C124  1  0.94293163  0.71069251  0.69993336  1.0
  C  C125  1  0.91917798  0.71123773  0.74462356  1.0
  C  C126  1  0.91415766  0.68763758  0.58955229  1.0
  C  C127  1  0.88769494  0.61807102  0.56048046  1.0
  C  C128  1  0.89373058  0.11677897  0.04385476  1.0
  C  C129  1  0.90214572  0.18414195  0.05572950  1.0
  C  C130  1  0.87921048  0.19745741  0.10263127  1.0
  C  C131  1  0.93436251  0.24774482  0.15591559  1.0
  C  C132  1  0.91449829  0.25858700  0.20087369  1.0
  C  C133  1  0.83867907  0.21879734  0.19425337  1.0
  C  C134  1  0.78310613  0.16921616  0.14003067  1.0
  C  C135  1  0.80273850  0.15902339  0.09498326  1.0
  C  C136  1  0.81775482  0.22601396  0.24308688  1.0
  C  C137  1  0.74064558  0.20896795  0.22983468  1.0
  C  C138  1  0.71972029  0.21049748  0.27612488  1.0
  C  C139  1  0.77501764  0.22940742  0.33722516  1.0
  C  C140  1  0.85257644  0.24866247  0.35073362  1.0
  C  C141  1  0.87356403  0.24692252  0.30460527  1.0
  C  C142  1  0.75109556  0.22879037  0.38666309  1.0
  C  C143  1  0.77295153  0.29548022  0.41954396  1.0
  C  C144  1  0.85086288  0.97956880  0.85448442  1.0
  C  C145  1  0.85753058  0.99319197  0.79705660  1.0
  C  C146  1  0.84853890  0.05127204  0.78107385  1.0
  C  C147  1  0.88838188  0.11095259  0.82425133  1.0
  C  C148  1  0.88007088  0.16359654  0.80751345  1.0
  C  C149  1  0.83259446  0.15900368  0.74714390  1.0
  C  C150  1  0.79312699  0.09924990  0.70400109  1.0
  C  C151  1  0.80065803  0.04626873  0.72089176  1.0
  C  C152  1  0.82473642  0.21533914  0.72986100  1.0
  C  C153  1  0.82147553  0.22933883  0.67463169  1.0
  C  C154  1  0.81395713  0.28247875  0.65817312  1.0
  C  C155  1  0.80961488  0.32368158  0.69662678  1.0
  C  C156  1  0.81323849  0.31003245  0.75204538  1.0
  C  C157  1  0.82058758  0.25694039  0.76842743  1.0
  C  C158  1  0.80030616  0.38185900  0.68158499  1.0
  C  C159  1  0.81216381  0.40191322  0.62748904  1.0
  C  C160  1  0.64739360  0.91851924  0.93262006  1.0
  C  C161  1  0.56828516  0.91545148  0.90410423  1.0
  C  C162  1  0.50011285  0.85313733  0.85720705  1.0
  C  C163  1  0.43746721  0.81314540  0.86844910  1.0
  C  C164  1  0.37227635  0.75662275  0.82497273  1.0
  C  C165  1  0.36763487  0.73779590  0.76856208  1.0
  C  C166  1  0.43144953  0.77756450  0.75799991  1.0
  C  C167  1  0.49626476  0.83419356  0.80126767  1.0
  C  C168  1  0.29850354  0.67838530  0.72163778  1.0
  C  C169  1  0.27370147  0.67570966  0.65945681  1.0
  C  C170  1  0.21109063  0.61886219  0.61510071  1.0
  C  C171  1  0.17055592  0.56266699  0.63111080  1.0
  C  C172  1  0.19316239  0.56569090  0.69288469  1.0
  C  C173  1  0.25613704  0.62239815  0.73736263  1.0
  C  C174  1  0.10533211  0.50076923  0.58237668  1.0
  C  C175  1  0.02475835  0.49491278  0.55650859  1.0
  O  O176  1  0.84607985  0.95077206  0.99560849  1.0
  O  O177  1  0.02938714  0.03753166  0.03067125  1.0
  O  O178  1  0.00562784  0.94042690  0.05423066  1.0
  O  O179  1  0.63966651  0.36490728  0.46093684  1.0
  O  O180  1  0.66826047  0.46852719  0.45487288  1.0
  O  O181  1  0.82130140  0.95040178  0.11749186  1.0
  O  O182  1  0.90148478  0.91061292  0.12146756  1.0
  O  O183  1  0.84168507  0.46583938  0.37080506  1.0
  O  O184  1  0.75000077  0.48854593  0.37245652  1.0
  O  O185  1  0.74216584  0.80629452  0.90755054  1.0
  O  O186  1  0.83899124  0.81140135  0.99461744  1.0
  O  O187  1  0.92114509  0.59039478  0.59387321  1.0
  O  O188  1  0.83331410  0.59328322  0.50567438  1.0
  O  O189  1  0.85057306  0.07226668  0.06066543  1.0
  O  O190  1  0.93035752  0.11083105  0.01604778  1.0
  O  O191  1  0.83161919  0.34521791  0.42102947  1.0
  O  O192  1  0.73034725  0.29471881  0.44405598  1.0
  O  O193  1  0.78940384  0.92887967  0.84871692  1.0
  O  O194  1  0.90806554  0.02070489  0.90414006  1.0
  O  O195  1  0.87022381  0.45785599  0.63770961  1.0
  O  O196  1  0.76208699  0.36088393  0.57594459  1.0
  O  O197  1  0.66600658  0.89682640  0.89739121  1.0
  O  O198  1  0.68943047  0.94496925  0.98965204  1.0
  O  O199  1  0.00255995  0.50496671  0.59459668  1.0
  O  O200  1  0.98587206  0.47890714  0.49863445  1.0
  O  O201  1  0.82371435  0.45285346  0.49530732  1.0
