# generated using pymatgen
data_Zr3H35C63O16
_symmetry_space_group_name_H-M   'P 1'
_cell_length_a   19.25563484
_cell_length_b   19.30545138
_cell_length_c   19.32163439
_cell_angle_alpha   92.84717948
_cell_angle_beta   93.24275803
_cell_angle_gamma   93.05162652
_symmetry_Int_Tables_number   1
_chemical_formula_structural   Zr3H35C63O16
_chemical_formula_sum   'Zr6 H70 C126 O32'
_cell_volume   7150.92526720
_cell_formula_units_Z   2
loop_
 _symmetry_equiv_pos_site_id
 _symmetry_equiv_pos_as_xyz
  1  'x, y, z'
loop_
 _atom_site_type_symbol
 _atom_site_label
 _atom_site_symmetry_multiplicity
 _atom_site_fract_x
 _atom_site_fract_y
 _atom_site_fract_z
 _atom_site_occupancy
  Zr  Zr0  1  0.85971382  0.81288259  0.94174023  1.0
  Zr  Zr1  1  0.00168596  0.76858439  0.84352939  1.0
  Zr  Zr2  1  0.93218929  0.98370789  0.96994725  1.0
  Zr  Zr3  1  0.90278404  0.91001944  0.79839940  1.0
  Zr  Zr4  1  0.03244136  0.84213728  0.01386608  1.0
  Zr  Zr5  1  0.07431253  0.94095518  0.87136507  1.0
  H  H6  1  0.50434286  0.95798816  0.11856370  1.0
  H  H7  1  0.37161891  0.90616196  0.28334640  1.0
  H  H8  1  0.59418289  0.89824251  0.31373626  1.0
  H  H9  1  0.42704354  0.80379161  0.69488570  1.0
  H  H10  1  0.56184688  0.85746986  0.53234128  1.0
  H  H11  1  0.33925176  0.86016883  0.49752261  1.0
  H  H12  1  0.98741341  0.28073011  0.53110124  1.0
  H  H13  1  0.99369373  0.25287253  0.30917022  1.0
  H  H14  1  0.04674204  0.08666974  0.44042686  1.0
  H  H15  1  0.94913961  0.46882055  0.28036494  1.0
  H  H16  1  0.94858859  0.50027139  0.50248585  1.0
  H  H17  1  0.89668281  0.66588373  0.37007833  1.0
  H  H18  1  0.37317257  0.50137410  0.92839361  1.0
  H  H19  1  0.34145943  0.27928543  0.93310365  1.0
  H  H20  1  0.17806525  0.41220587  0.98909249  1.0
  H  H21  1  0.55718281  0.24732315  0.88297354  1.0
  H  H22  1  0.59075759  0.47023131  0.88663749  1.0
  H  H23  1  0.75827554  0.33892859  0.84138957  1.0
  H  H24  1  0.85925251  0.76670162  0.80039780  1.0
  H  H25  1  0.90948680  0.88242450  0.07013327  1.0
  H  H26  1  0.97217680  0.03984632  0.84683052  1.0
  H  H27  1  0.13189078  0.81877622  0.91232657  1.0
  H  H28  1  0.71999591  0.22730637  0.74835505  1.0
  H  H29  1  0.67331865  0.19389882  0.95990498  1.0
  H  H30  1  0.75163558  0.09471582  0.96071883  1.0
  H  H31  1  0.79185120  0.12298273  0.74720891  1.0
  H  H32  1  0.68739151  0.51995961  0.95632342  1.0
  H  H33  1  0.78525899  0.44053303  0.77593280  1.0
  H  H34  1  0.86930125  0.54389803  0.78475996  1.0
  H  H35  1  0.76881854  0.62449325  0.96221454  1.0
  H  H36  1  0.28637639  0.20433945  0.98787104  1.0
  H  H37  1  0.11107399  0.33085028  0.95067525  1.0
  H  H38  1  0.03103157  0.22637612  0.95046250  1.0
  H  H39  1  0.20646098  0.09922915  0.97661274  1.0
  H  H40  1  0.21663483  0.52736583  0.07056112  1.0
  H  H41  1  0.25142066  0.54853593  0.85422072  1.0
  H  H42  1  0.17053244  0.64537381  0.85123088  1.0
  H  H43  1  0.14170029  0.62936029  0.06888245  1.0
  H  H44  1  0.02521590  0.58692826  0.22977779  1.0
  H  H45  1  0.81094084  0.62925794  0.25766239  1.0
  H  H46  1  0.81045668  0.70200469  0.15389897  1.0
  H  H47  1  0.02627885  0.66569575  0.13084110  1.0
  H  H48  1  0.89697344  0.55727225  0.57772773  1.0
  H  H49  1  0.93602909  0.73161830  0.45102652  1.0
  H  H50  1  0.93442737  0.81181279  0.55466328  1.0
  H  H51  1  0.90624544  0.63734598  0.68209820  1.0
  H  H52  1  0.03374629  0.11757859  0.12797411  1.0
  H  H53  1  0.01464163  0.94197809  0.25544339  1.0
  H  H54  1  0.01293621  0.02127382  0.35952284  1.0
  H  H55  1  0.04307306  0.19718904  0.23264505  1.0
  H  H56  1  0.12903852  0.12453753  0.55681432  1.0
  H  H57  1  0.91132606  0.15750148  0.57557798  1.0
  H  H58  1  0.90881786  0.07649559  0.67244811  1.0
  H  H59  1  0.12779184  0.04963168  0.65892596  1.0
  H  H60  1  0.28951155  0.93547182  0.61871705  1.0
  H  H61  1  0.31245097  0.71897591  0.65319358  1.0
  H  H62  1  0.20893074  0.71836765  0.72600680  1.0
  H  H63  1  0.19099529  0.93609247  0.69761284  1.0
  H  H64  1  0.50881374  0.84134419  0.76240622  1.0
  H  H65  1  0.63645945  0.80501575  0.58894757  1.0
  H  H66  1  0.74110527  0.81474558  0.66931619  1.0
  H  H67  1  0.61305611  0.84036045  0.84309709  1.0
  H  H68  1  0.19045992  0.94635673  0.14633552  1.0
  H  H69  1  0.31858772  0.92383335  0.97224456  1.0
  H  H70  1  0.42298283  0.92334269  0.05246642  1.0
  H  H71  1  0.29546757  0.95686771  0.22662198  1.0
  H  H72  1  0.62088604  0.03968962  0.15761728  1.0
  H  H73  1  0.63945768  0.82229188  0.19058212  1.0
  H  H74  1  0.73560300  0.81938270  0.10907847  1.0
  H  H75  1  0.72223312  0.03791742  0.08201117  1.0
  C  C76  1  0.55602670  0.92856751  0.21267130  1.0
  C  C77  1  0.49685166  0.94240334  0.17117663  1.0
  C  C78  1  0.42940652  0.93341674  0.19437378  1.0
  C  C79  1  0.42281888  0.91455492  0.26298759  1.0
  C  C80  1  0.48169925  0.90364366  0.30704542  1.0
  C  C81  1  0.54861418  0.90888948  0.28066932  1.0
  C  C82  1  0.37626677  0.83146696  0.59952351  1.0
  C  C83  1  0.43509295  0.81926540  0.64231091  1.0
  C  C84  1  0.50287071  0.82934725  0.62021672  1.0
  C  C85  1  0.51031917  0.84813034  0.55167857  1.0
  C  C86  1  0.45192533  0.85758892  0.50647820  1.0
  C  C87  1  0.38453538  0.85087724  0.53157132  1.0
  C  C88  1  0.01746287  0.18012297  0.49244887  1.0
  C  C89  1  0.99770764  0.24819128  0.48548328  1.0
  C  C90  1  0.99194728  0.27536662  0.41899880  1.0
  C  C91  1  0.00244060  0.23197717  0.36006356  1.0
  C  C92  1  0.02150073  0.16329390  0.36622718  1.0
  C  C93  1  0.03097858  0.13932828  0.43328022  1.0
  C  C94  1  0.92248821  0.57076911  0.31838639  1.0
  C  C95  1  0.94083604  0.50232515  0.32590298  1.0
  C  C96  1  0.94759387  0.47607022  0.39273527  1.0
  C  C97  1  0.93925705  0.52058593  0.45140444  1.0
  C  C98  1  0.92158948  0.58962473  0.44467846  1.0
  C  C99  1  0.91140076  0.61290232  0.37743642  1.0
  C  C100  1  0.27220952  0.46364712  0.95936781  1.0
  C  C101  1  0.33997809  0.45598999  0.93879396  1.0
  C  C102  1  0.36589296  0.38906158  0.93204602  1.0
  C  C103  1  0.32169257  0.33047729  0.94271945  1.0
  C  C104  1  0.25341864  0.33736729  0.96275845  1.0
  C  C105  1  0.23056670  0.40469442  0.97293114  1.0
  C  C106  1  0.66026848  0.28578115  0.85924015  1.0
  C  C107  1  0.59135366  0.29312902  0.87646612  1.0
  C  C108  1  0.56545629  0.35994211  0.88496911  1.0
  C  C109  1  0.61076471  0.41883237  0.87888832  1.0
  C  C110  1  0.68032319  0.41202522  0.86322818  1.0
  C  C111  1  0.70375740  0.34521497  0.85155050  1.0
  C  C112  1  0.78688080  0.92307095  0.03699013  1.0
  C  C113  1  0.86724231  0.65773761  0.87797084  1.0
  C  C114  1  0.74956878  0.84102111  0.80609925  1.0
  C  C115  1  0.92323988  0.74165748  0.08369447  1.0
  C  C116  1  0.14222505  0.83179378  0.77046912  1.0
  C  C117  1  0.06889811  0.09137552  0.94714650  1.0
  C  C118  1  0.93268542  0.77429328  0.69036753  1.0
  C  C119  1  0.09812403  0.69616009  0.95424524  1.0
  C  C120  1  0.00940558  0.97967142  0.12043516  1.0
  C  C121  1  0.82999440  0.05055885  0.85956370  1.0
  C  C122  1  0.01306164  0.00565740  0.72494620  1.0
  C  C123  1  0.18289722  0.91921568  0.00899069  1.0
  C  C124  1  0.72548705  0.19691691  0.79427309  1.0
  C  C125  1  0.69273081  0.21786719  0.85437583  1.0
  C  C126  1  0.69891199  0.17807958  0.91313818  1.0
  C  C127  1  0.74217902  0.12266505  0.91373241  1.0
  C  C128  1  0.77681320  0.10365805  0.85429501  1.0
  C  C129  1  0.76591183  0.13914432  0.79357453  1.0
  C  C130  1  0.72608798  0.52577286  0.91761239  1.0
  C  C131  1  0.72972445  0.47345630  0.86491181  1.0
  C  C132  1  0.78223947  0.48038112  0.81755130  1.0
  C  C133  1  0.82915562  0.53831667  0.82204864  1.0
  C  C134  1  0.82379065  0.59098680  0.87368796  1.0
  C  C135  1  0.77205309  0.58374033  0.92170901  1.0
  C  C136  1  0.23065732  0.20970993  0.97807038  1.0
  C  C137  1  0.20521491  0.27577220  0.96833612  1.0
  C  C138  1  0.13254502  0.28073948  0.95966977  1.0
  C  C139  1  0.08712613  0.22198200  0.95850375  1.0
  C  C140  1  0.11379605  0.15623686  0.96258876  1.0
  C  C141  1  0.18595772  0.15061918  0.97327761  1.0
  C  C142  1  0.20783805  0.55451895  0.02292535  1.0
  C  C143  1  0.23830492  0.53086963  0.96236512  1.0
  C  C144  1  0.22777265  0.56657865  0.90138579  1.0
  C  C145  1  0.18283672  0.62059737  0.89957227  1.0
  C  C146  1  0.15063926  0.64240584  0.95967635  1.0
  C  C147  1  0.16559571  0.61091220  0.02209175  1.0
  C  C148  1  0.43539035  0.37952106  0.91421798  1.0
  C  C149  1  0.49522064  0.36900671  0.90049133  1.0
  C  C150  1  0.97799742  0.61173033  0.21278308  1.0
  C  C151  1  0.91825233  0.60396851  0.25080578  1.0
  C  C152  1  0.85758089  0.63586881  0.22858487  1.0
  C  C153  1  0.85722535  0.67674755  0.17115277  1.0
  C  C154  1  0.91865679  0.68890102  0.13721107  1.0
  C  C155  1  0.97877340  0.65532904  0.15761921  1.0
  C  C156  1  0.90672573  0.61280552  0.57208515  1.0
  C  C157  1  0.91710383  0.63792655  0.50609494  1.0
  C  C158  1  0.92620771  0.71037516  0.50099143  1.0
  C  C159  1  0.92635662  0.75592848  0.55928881  1.0
  C  C160  1  0.92069381  0.72965714  0.62498666  1.0
  C  C161  1  0.91035656  0.65764780  0.63072439  1.0
  C  C162  1  0.03163354  0.09694323  0.17937879  1.0
  C  C163  1  0.02362128  0.02477213  0.18512995  1.0
  C  C164  1  0.02076418  0.99802847  0.25091296  1.0
  C  C165  1  0.02086185  0.04314325  0.30946839  1.0
  C  C166  1  0.02727328  0.11574169  0.30447033  1.0
  C  C167  1  0.03536213  0.14145503  0.23831353  1.0
  C  C168  1  0.08120663  0.11528558  0.58345694  1.0
  C  C169  1  0.02018983  0.14538676  0.55924995  1.0
  C  C170  1  0.95885012  0.13416657  0.59411673  1.0
  C  C171  1  0.95730731  0.08926899  0.64818134  1.0
  C  C172  1  0.01799141  0.05769578  0.67073414  1.0
  C  C173  1  0.08060361  0.07306330  0.63985331  1.0
  C  C174  1  0.97550155  0.34541889  0.41053345  1.0
  C  C175  1  0.96315858  0.40584992  0.40156973  1.0
  C  C176  1  0.27149567  0.88775287  0.64178017  1.0
  C  C177  1  0.30818134  0.82739256  0.63188733  1.0
  C  C178  1  0.28450955  0.76609751  0.66148317  1.0
  C  C179  1  0.22724309  0.76563747  0.70246269  1.0
  C  C180  1  0.19488307  0.82746683  0.71700199  1.0
  C  C181  1  0.21650377  0.88826855  0.68543269  1.0
  C  C182  1  0.55912751  0.83237910  0.74142389  1.0
  C  C183  1  0.56431603  0.82411340  0.66905903  1.0
  C  C184  1  0.63065220  0.81435962  0.64436985  1.0
  C  C185  1  0.68958086  0.81829580  0.68947346  1.0
  C  C186  1  0.68382912  0.82828699  0.76139581  1.0
  C  C187  1  0.61777623  0.83285243  0.78726773  1.0
  C  C188  1  0.24207202  0.94377339  0.12616187  1.0
  C  C189  1  0.24787480  0.93435899  0.05421543  1.0
  C  C190  1  0.31395319  0.93098204  0.02811436  1.0
  C  C191  1  0.37270728  0.93173142  0.07373006  1.0
  C  C192  1  0.36759848  0.93923354  0.14615276  1.0
  C  C193  1  0.30119151  0.94811458  0.17109694  1.0
  C  C194  1  0.64731109  0.99178808  0.14824693  1.0
  C  C195  1  0.62310750  0.93098195  0.17840676  1.0
  C  C196  1  0.65789954  0.86965164  0.16713502  1.0
  C  C197  1  0.71151838  0.86788574  0.12187126  1.0
  C  C198  1  0.73376586  0.92827307  0.08993857  1.0
  C  C199  1  0.70327824  0.99092639  0.10561034  1.0
  C  C200  1  0.46195045  0.87415800  0.43679104  1.0
  C  C201  1  0.47237986  0.88701554  0.37684503  1.0
  O  O202  1  0.82780485  0.97498102  0.02708218  1.0
  O  O203  1  0.92429256  0.66495906  0.84872685  1.0
  O  O204  1  0.75696906  0.81834011  0.86636456  1.0
  O  O205  1  0.87036925  0.75231773  0.04420027  1.0
  O  O206  1  0.98326455  0.77438289  0.08376144  1.0
  O  O207  1  0.79639024  0.87661647  0.77572782  1.0
  O  O208  1  0.83901896  0.70642064  0.91285253  1.0
  O  O209  1  0.78684018  0.86303042  0.00488775  1.0
  O  O210  1  0.96420218  0.79041405  0.93954863  1.0
  O  O211  1  0.88108484  0.90849040  0.90249528  1.0
  O  O212  1  0.88973125  0.79846282  0.83015945  1.0
  O  O213  1  0.92454971  0.88123946  0.02306456  1.0
  O  O214  1  0.10225670  0.77944688  0.78112126  1.0
  O  O215  1  0.00822522  0.08429653  0.96930430  1.0
  O  O216  1  0.90929287  0.83425172  0.69689687  1.0
  O  O217  1  0.08921131  0.73745339  0.00579058  1.0
  O  O218  1  0.03256877  0.91948933  0.11404616  1.0
  O  O219  1  0.84071741  0.01050670  0.80761541  1.0
  O  O220  1  0.06517351  0.99695702  0.76628479  1.0
  O  O221  1  0.17577735  0.94184522  0.94858209  1.0
  O  O222  1  0.95298796  0.97310040  0.72534116  1.0
  O  O223  1  0.13764937  0.88038631  0.03774250  1.0
  O  O224  1  0.96819838  0.74429880  0.73761748  1.0
  O  O225  1  0.86309166  0.05173326  0.91942512  1.0
  O  O226  1  0.97069405  0.00814950  0.07472981  1.0
  O  O227  1  0.06533643  0.69623183  0.89423642  1.0
  O  O228  1  0.14357177  0.89127432  0.80392483  1.0
  O  O229  1  0.09796116  0.04628645  0.90879879  1.0
  O  O230  1  0.02465241  0.93391424  0.96325823  1.0
  O  O231  1  0.99935897  0.87241446  0.82063342  1.0
  O  O232  1  0.97113851  0.99281318  0.86233925  1.0
  O  O233  1  0.08451820  0.83359026  0.91123756  1.0
