# generated using pymatgen
data_Zn4H30(C18O5)3
_symmetry_space_group_name_H-M   'P 1'
_cell_length_a   16.03355291
_cell_length_b   17.84437920
_cell_length_c   17.97754576
_cell_angle_alpha   63.78145742
_cell_angle_beta   80.63973593
_cell_angle_gamma   75.95808221
_symmetry_Int_Tables_number   1
_chemical_formula_structural   Zn4H30(C18O5)3
_chemical_formula_sum   'Zn4 H30 C54 O15'
_cell_volume   4467.36581071
_cell_formula_units_Z   1
loop_
 _symmetry_equiv_pos_site_id
 _symmetry_equiv_pos_as_xyz
  1  'x, y, z'
loop_
 _atom_site_type_symbol
 _atom_site_label
 _atom_site_symmetry_multiplicity
 _atom_site_fract_x
 _atom_site_fract_y
 _atom_site_fract_z
 _atom_site_occupancy
  Zn  Zn0  1  0.43567899  0.41650225  0.58618973  1.0
  Zn  Zn1  1  0.59313189  0.43547173  0.45079970  1.0
  Zn  Zn2  1  0.54979372  0.55049561  0.55669651  1.0
  Zn  Zn3  1  0.42802443  0.58639822  0.41650727  1.0
  H  H4  1  0.99400136  0.56968939  0.42912017  1.0
  H  H5  1  0.49206393  0.16925330  0.37528397  1.0
  H  H6  1  0.53067348  0.83059536  0.60923835  1.0
  H  H7  1  0.57328682  0.99286075  0.74283923  1.0
  H  H8  1  0.33741650  0.37670864  0.09192765  1.0
  H  H9  1  0.68210719  0.57281989  0.19211996  1.0
  H  H10  1  0.64997828  0.64562877  0.90459672  1.0
  H  H11  1  0.30416989  0.35914865  0.97470529  1.0
  H  H12  1  0.33653201  0.37854481  0.82704198  1.0
  H  H13  1  0.50663466  0.54530290  0.78821109  1.0
  H  H14  1  0.60495592  0.68170947  0.78646435  1.0
  H  H15  1  0.41353348  0.43962106  0.15055358  1.0
  H  H16  1  0.77490281  0.61637021  0.08274857  1.0
  H  H17  1  0.29784813  0.84296567  0.22899235  1.0
  H  H18  1  0.29905017  0.80754028  0.33811323  1.0
  H  H19  1  0.27772692  0.91854835  0.27245922  1.0
  H  H20  1  0.42811817  0.90573170  0.20571822  1.0
  H  H21  1  0.44937818  0.79543124  0.27065944  1.0
  H  H22  1  0.39142555  0.69405341  0.18117069  1.0
  H  H23  1  0.35970911  0.70291264  0.08643970  1.0
  H  H24  1  0.28829119  0.67601080  0.17715123  1.0
  H  H25  1  0.35533033  0.54933563  0.15043702  1.0
  H  H26  1  0.45124431  0.12278380  0.27953980  1.0
  H  H27  1  0.38423565  0.53698402  0.24674810  1.0
  H  H28  1  0.52836354  0.20571602  0.45132268  1.0
  H  H29  1  0.56368587  0.14727929  0.70369417  1.0
  H  H30  1  0.56162211  0.87898221  0.70737017  1.0
  H  H31  1  0.42597088  0.01016539  0.24872768  1.0
  H  H32  1  0.51213446  0.79283316  0.52675527  1.0
  H  H33  1  0.01671245  0.39304081  0.57871210  1.0
  C  C34  1  0.53690244  0.54796236  0.28279473  1.0
  C  C35  1  0.44174197  0.50087448  0.91209006  1.0
  C  C36  1  0.38586988  0.44368266  0.96505054  1.0
  C  C37  1  0.44951819  0.47030376  0.71472355  1.0
  C  C38  1  0.48068066  0.54357602  0.94585600  1.0
  C  C39  1  0.46699498  0.52370751  0.03214056  1.0
  C  C40  1  0.41600490  0.46150526  0.08349218  1.0
  C  C41  1  0.37523234  0.42469213  0.05108974  1.0
  C  C42  1  0.54092419  0.59940067  0.89855413  1.0
  C  C43  1  0.59883810  0.61089023  0.94001230  1.0
  C  C44  1  0.59020171  0.58577746  0.02730610  1.0
  C  C45  1  0.11591404  0.50475398  0.48153159  1.0
  C  C46  1  0.51338086  0.55661068  0.07063591  1.0
  C  C47  1  0.65155412  0.59383684  0.07147964  1.0
  C  C48  1  0.63341026  0.57396614  0.15550204  1.0
  C  C49  1  0.53985533  0.27615411  0.55173424  1.0
  C  C50  1  0.48701514  0.55965817  0.14962459  1.0
  C  C51  1  0.46780911  0.81694182  0.41192206  1.0
  C  C52  1  0.54600653  0.18426739  0.57437519  1.0
  C  C53  1  0.44338458  0.96220170  0.31072514  1.0
  C  C54  1  0.44143506  0.87798414  0.33138128  1.0
  C  C55  1  0.49198199  0.84257045  0.46679458  1.0
  C  C56  1  0.89468199  0.45679451  0.52735640  1.0
  C  C57  1  0.49111976  0.92830294  0.44692316  1.0
  C  C58  1  0.46746853  0.98934249  0.36563753  1.0
  C  C59  1  0.51327644  0.95604724  0.50454165  1.0
  C  C60  1  0.51411125  0.04350974  0.47835734  1.0
  C  C61  1  0.47330592  0.72366757  0.44159445  1.0
  C  C62  1  0.49212210  0.10199736  0.39577721  1.0
  C  C63  1  0.46909049  0.07642378  0.34184871  1.0
  C  C64  1  0.53218269  0.89767627  0.58788607  1.0
  C  C65  1  0.54917566  0.92447904  0.64342978  1.0
  C  C66  1  0.54919612  0.01171309  0.62024151  1.0
  C  C67  1  0.19258996  0.50042384  0.48426808  1.0
  C  C68  1  0.53374872  0.07201014  0.53643785  1.0
  C  C69  1  0.56176318  0.03986583  0.67925174  1.0
  C  C70  1  0.55740351  0.12485425  0.65787298  1.0
  C  C71  1  0.53631207  0.15780280  0.51488336  1.0
  C  C72  1  0.72691812  0.46977241  0.52027330  1.0
  C  C73  1  0.28156212  0.49911469  0.48852162  1.0
  C  C74  1  0.81788223  0.46124573  0.52526838  1.0
  C  C75  1  0.98291499  0.45067766  0.53052627  1.0
  C  C76  1  0.02766668  0.51194435  0.47727558  1.0
  C  C77  1  0.54308370  0.65784165  0.80883784  1.0
  C  C78  1  0.42455337  0.46332528  0.80080709  1.0
  C  C79  1  0.73477344  0.62002368  0.03535258  1.0
  C  C80  1  0.41291609  0.85719996  0.26769712  1.0
  C  C81  1  0.31605298  0.85653659  0.27753116  1.0
  C  C82  1  0.39298563  0.57185296  0.17911415  1.0
  C  C83  1  0.35620390  0.66733900  0.15435370  1.0
  C  C84  1  0.55094496  0.56171893  0.19340919  1.0
  C  C85  1  0.34725351  0.40138536  0.93300258  1.0
  C  C86  1  0.36526459  0.41128280  0.85207551  1.0
  C  C87  1  0.46140597  0.50689291  0.83035025  1.0
  O  O88  1  0.50291832  0.49782703  0.50131108  1.0
  O  O89  1  0.70682249  0.43020427  0.48360534  1.0
  O  O90  1  0.31011335  0.56535826  0.43568099  1.0
  O  O91  1  0.67693825  0.51620761  0.55262707  1.0
  O  O92  1  0.32321441  0.43281757  0.54414064  1.0
  O  O93  1  0.48389616  0.68557303  0.76256163  1.0
  O  O94  1  0.76150696  0.64447991  0.96209941  1.0
  O  O95  1  0.50467636  0.30245221  0.60732432  1.0
  O  O96  1  0.42686419  0.69927351  0.40820371  1.0
  O  O97  1  0.59782104  0.49668240  0.32843448  1.0
  O  O98  1  0.50666226  0.51461204  0.67287488  1.0
  O  O99  1  0.46770687  0.58702583  0.30588303  1.0
  O  O100  1  0.41201471  0.43068172  0.68972265  1.0
  O  O101  1  0.56924157  0.32246673  0.47918081  1.0
  O  O102  1  0.52441150  0.67439386  0.49909126  1.0
