# generated using pymatgen
data_AlH9C24(NO2)6
_symmetry_space_group_name_H-M   'P 1'
_cell_length_a   4.03004284
_cell_length_b   15.08733549
_cell_length_c   15.46098375
_cell_angle_alpha   62.49764944
_cell_angle_beta   88.19725991
_cell_angle_gamma   87.08645841
_symmetry_Int_Tables_number   1
_chemical_formula_structural   AlH9C24(NO2)6
_chemical_formula_sum   'Al1 H9 C24 N6 O12'
_cell_volume   832.72113480
_cell_formula_units_Z   1
loop_
 _symmetry_equiv_pos_site_id
 _symmetry_equiv_pos_as_xyz
  1  'x, y, z'
loop_
 _atom_site_type_symbol
 _atom_site_label
 _atom_site_symmetry_multiplicity
 _atom_site_fract_x
 _atom_site_fract_y
 _atom_site_fract_z
 _atom_site_occupancy
  Al  Al0  1  0.04451882  0.50773173  0.49387929  1.0
  H  H1  1  0.34081643  0.50483232  0.75205656  1.0
  H  H2  1  0.08813829  0.58516198  0.84961286  1.0
  H  H3  1  0.19325652  0.87565233  0.60273220  1.0
  H  H4  1  0.93162204  0.58504599  0.04464834  1.0
  H  H5  1  0.31208603  0.74238682  0.22507610  1.0
  H  H6  1  0.38937139  0.83861230  0.04502773  1.0
  H  H7  1  0.51386634  0.04709019  0.86770506  1.0
  H  H8  1  0.77572848  0.23449564  0.51349887  1.0
  H  H9  1  0.85052506  0.04832013  0.59969966  1.0
  C  C10  1  0.56623801  0.35646494  0.58236689  1.0
  C  C11  1  0.50968851  0.59472924  0.56198289  1.0
  C  C12  1  0.55777810  0.56207490  0.34584145  1.0
  C  C13  1  0.73422933  0.77659698  0.92733298  1.0
  C  C14  1  0.95933545  0.78424249  0.78750522  1.0
  C  C15  1  0.74628083  0.92566957  0.79005967  1.0
  C  C16  1  0.31257508  0.58608540  0.72049993  1.0
  C  C17  1  0.16910305  0.63083425  0.77464879  1.0
  C  C18  1  0.12013918  0.73525398  0.73263982  1.0
  C  C19  1  0.22413602  0.79458941  0.63632380  1.0
  C  C20  1  0.36889871  0.74902860  0.58379155  1.0
  C  C21  1  0.41116731  0.64491836  0.62349800  1.0
  C  C22  1  0.79231038  0.61998264  0.08298932  1.0
  C  C23  1  0.74926589  0.56747808  0.18332014  1.0
  C  C24  1  0.57808755  0.60996999  0.23631300  1.0
  C  C25  1  0.44466481  0.70801789  0.18486671  1.0
  C  C26  1  0.48777249  0.76182518  0.08441430  1.0
  C  C27  1  0.66452924  0.71838325  0.03272761  1.0
  C  C28  1  0.56705888  0.08700000  0.78988442  1.0
  C  C29  1  0.53086384  0.19069828  0.74099123  1.0
  C  C30  1  0.60497801  0.24540186  0.64133464  1.0
  C  C31  1  0.71877289  0.19239866  0.59106212  1.0
  C  C32  1  0.75877438  0.08891527  0.63890638  1.0
  C  C33  1  0.68523069  0.03529657  0.73891823  1.0
  N  N34  1  0.88508926  0.72757413  0.88208766  1.0
  N  N35  1  0.89915928  0.88367108  0.73879996  1.0
  N  N36  1  0.65315404  0.87519239  0.88419434  1.0
  N  N37  1  0.48733555  0.81372575  0.48371835  1.0
  N  N38  1  0.89953084  0.46503341  0.23387494  1.0
  N  N39  1  0.43413847  0.24182667  0.80027495  1.0
  O  O40  1  0.77957354  0.58988251  0.38388259  1.0
  O  O41  1  0.79463189  0.39595991  0.51931964  1.0
  O  O42  1  0.77106642  0.53908040  0.58256480  1.0
  O  O43  1  0.31808818  0.50723438  0.38955405  1.0
  O  O44  1  0.29797968  0.60667270  0.49753292  1.0
  O  O45  1  0.30942271  0.40209997  0.59403733  1.0
  O  O46  1  0.68869343  0.77481420  0.44749658  1.0
  O  O47  1  0.38436682  0.90198166  0.44347107  1.0
  O  O48  1  0.81817950  0.41340205  0.32010601  1.0
  O  O49  1  0.09752776  0.43774753  0.18708199  1.0
  O  O50  1  0.56916682  0.32086946  0.78040199  1.0
  O  O51  1  0.23028843  0.20030770  0.86703778  1.0
