# generated using pymatgen
data_Al4H31C68I5O24
_symmetry_space_group_name_H-M   'P 1'
_cell_length_a   6.65385579
_cell_length_b   20.27744838
_cell_length_c   23.84039095
_cell_angle_alpha   90.15999452
_cell_angle_beta   93.20402961
_cell_angle_gamma   90.50057204
_symmetry_Int_Tables_number   1
_chemical_formula_structural   Al4H31C68I5O24
_chemical_formula_sum   'Al4 H31 C68 I5 O24'
_cell_volume   3211.45423415
_cell_formula_units_Z   1
loop_
 _symmetry_equiv_pos_site_id
 _symmetry_equiv_pos_as_xyz
  1  'x, y, z'
loop_
 _atom_site_type_symbol
 _atom_site_label
 _atom_site_symmetry_multiplicity
 _atom_site_fract_x
 _atom_site_fract_y
 _atom_site_fract_z
 _atom_site_occupancy
  Al  Al0  1  0.91070923  0.50533997  0.49798659  1.0
  Al  Al1  1  0.41076696  0.50257741  0.50368412  1.0
  Al  Al2  1  0.23751015  0.99760197  0.99710277  1.0
  Al  Al3  1  0.73679270  0.99821105  0.99694546  1.0
  H  H4  1  0.90578617  0.61972938  0.16252386  1.0
  H  H5  1  0.01035197  0.62877899  0.34551041  1.0
  H  H6  1  0.37123464  0.71410920  0.48203328  1.0
  H  H7  1  0.45115183  0.86261169  0.33018439  1.0
  H  H8  1  0.88983215  0.67011188  0.07212173  1.0
  H  H9  1  0.96879420  0.62438060  0.26437479  1.0
  H  H10  1  0.43960927  0.81308723  0.42404467  1.0
  H  H11  1  0.75495116  0.27260807  0.28847360  1.0
  H  H12  1  0.93376585  0.14595626  0.28426552  1.0
  H  H13  1  0.30625416  0.20208389  0.32470280  1.0
  H  H14  1  0.40692907  0.22498022  0.21148920  1.0
  H  H15  1  0.37314682  0.68774411  0.81673611  1.0
  H  H16  1  0.88976608  0.78835979  0.80271805  1.0
  H  H17  1  0.27980961  0.36917463  0.82173375  1.0
  H  H18  1  0.49857176  0.37584428  0.65175059  1.0
  H  H19  1  0.90355761  0.29831435  0.53481274  1.0
  H  H20  1  0.89982740  0.13710283  0.68030327  1.0
  H  H21  1  0.22257427  0.30888889  0.90758505  1.0
  H  H22  1  0.26010021  0.20678496  0.96544090  1.0
  H  H23  1  0.64932637  0.12452034  0.84676097  1.0
  H  H24  1  0.41537670  0.37560243  0.72879512  1.0
  H  H25  1  0.75839332  0.12942456  0.77243926  1.0
  H  H26  1  0.95485316  0.19795037  0.59406930  1.0
  H  H27  1  0.38619249  0.35481863  0.20139931  1.0
  H  H28  1  0.93720458  0.80497027  0.67743321  1.0
  H  H29  1  0.17438222  0.90359103  0.19143294  1.0
  H  H30  1  0.43078751  0.85436550  0.19306832  1.0
  H  H31  1  0.63368559  0.49210261  0.42862739  1.0
  H  H32  1  0.15616231  0.45911792  0.56264760  1.0
  H  H33  1  0.50143143  0.01047299  0.06949005  1.0
  H  H34  1  0.97551300  0.03906538  0.93322869  1.0
  C  C35  1  0.69005910  0.57846526  0.57878971  1.0
  C  C36  1  0.66901354  0.40276221  0.55591294  1.0
  C  C37  1  0.14148021  0.42872393  0.42077889  1.0
  C  C38  1  0.16600321  0.60484544  0.44939333  1.0
  C  C39  1  0.00299605  0.83401231  0.08187870  1.0
  C  C40  1  0.18536570  0.66640334  0.41601553  1.0
  C  C41  1  0.94221216  0.71704221  0.09008869  1.0
  C  C42  1  0.95121445  0.77288854  0.05719107  1.0
  C  C43  1  0.05600966  0.83859689  0.13948228  1.0
  C  C44  1  0.07395773  0.78069215  0.17365309  1.0
  C  C45  1  0.99786663  0.72067435  0.14799494  1.0
  C  C46  1  0.14818655  0.77860987  0.23222195  1.0
  C  C47  1  0.09767293  0.72356020  0.26616812  1.0
  C  C48  1  0.00323408  0.66741499  0.23940009  1.0
  C  C49  1  0.96679593  0.66461649  0.18254139  1.0
  C  C50  1  0.28567403  0.82608895  0.25794605  1.0
  C  C51  1  0.34270151  0.82566307  0.31400084  1.0
  C  C52  1  0.27676009  0.77499674  0.34952757  1.0
  C  C53  1  0.15531343  0.72240469  0.32557619  1.0
  C  C54  1  0.34695968  0.77241670  0.40674892  1.0
  C  C55  1  0.30817751  0.71820624  0.43902750  1.0
  C  C56  1  0.10569743  0.66950580  0.36114748  1.0
  C  C57  1  0.16639796  0.30518025  0.23087305  1.0
  C  C58  1  0.95602207  0.27470599  0.21020279  1.0
  C  C59  1  0.01513037  0.11899862  0.12337815  1.0
  C  C60  1  0.13824409  0.38040754  0.37639983  1.0
  C  C61  1  0.26331039  0.23551671  0.22970562  1.0
  C  C62  1  0.05654609  0.20389099  0.20685651  1.0
  C  C63  1  0.20633486  0.22252739  0.29137851  1.0
  C  C64  1  0.10566616  0.29291624  0.29485279  1.0
  C  C65  1  0.99963484  0.19196683  0.26975273  1.0
  C  C66  1  0.90009418  0.26127965  0.27163900  1.0
  C  C67  1  0.03246894  0.15814377  0.16220617  1.0
  C  C68  1  0.12720780  0.33909915  0.33909843  1.0
  C  C69  1  0.46617145  0.71436785  0.78787175  1.0
  C  C70  1  0.68573545  0.69642270  0.77380207  1.0
  C  C71  1  0.69135959  0.62488313  0.62474056  1.0
  C  C72  1  0.46942245  0.87309034  0.87548194  1.0
  C  C73  1  0.41247601  0.72498523  0.72402451  1.0
  C  C74  1  0.63146834  0.70510492  0.70848926  1.0
  C  C75  1  0.47816640  0.79917966  0.72953927  1.0
  C  C76  1  0.53349543  0.78901479  0.79465402  1.0
  C  C77  1  0.69800980  0.78164619  0.71547588  1.0
  C  C78  1  0.75427801  0.76995861  0.77957101  1.0
  C  C79  1  0.67125257  0.66210099  0.66422861  1.0
  C  C80  1  0.48964026  0.83307606  0.83814818  1.0
  C  C81  1  0.45905727  0.16049489  0.90851745  1.0
  C  C82  1  0.69455961  0.34191919  0.59050839  1.0
  C  C83  1  0.31368596  0.26796711  0.89392177  1.0
  C  C84  1  0.33548030  0.21205422  0.92626450  1.0
  C  C85  1  0.55514745  0.16538375  0.85855258  1.0
  C  C86  1  0.52418749  0.22014471  0.82261174  1.0
  C  C87  1  0.40276961  0.27278044  0.84148467  1.0
  C  C88  1  0.60542015  0.22412953  0.76754767  1.0
  C  C89  1  0.56249740  0.27988387  0.73309109  1.0
  C  C90  1  0.44518293  0.33197603  0.75434340  1.0
  C  C91  1  0.36943154  0.32877591  0.80642996  1.0
  C  C92  1  0.72646466  0.17274295  0.74667834  1.0
  C  C93  1  0.80549859  0.17664335  0.69500404  1.0
  C  C94  1  0.76822916  0.23208635  0.65948907  1.0
  C  C95  1  0.64105868  0.28349397  0.67772457  1.0
  C  C96  1  0.85776524  0.23759179  0.60714066  1.0
  C  C97  1  0.82787820  0.29253488  0.57392104  1.0
  C  C98  1  0.60016001  0.33666386  0.64068013  1.0
  C  C99  1  0.47219714  0.09861425  0.94196567  1.0
  C  C100  1  0.47393750  0.92143694  0.92006963  1.0
  C  C101  1  0.00054478  0.89739188  0.04929543  1.0
  C  C102  1  0.99949361  0.07251024  0.07734561  1.0
  I  I103  1  0.75598283  0.31602575  0.14777131  1.0
  I  I104  1  0.84191601  0.61607324  0.81129996  1.0
  I  I105  1  0.31641200  0.87949040  0.69578858  1.0
  I  I106  1  0.15560003  0.68815592  0.67830914  1.0
  I  I107  1  0.87998029  0.76577408  0.97023565  1.0
  O  O108  1  0.49128893  0.42197572  0.54201353  1.0
  O  O109  1  0.85282656  0.56944817  0.55448112  1.0
  O  O110  1  0.99621218  0.57551262  0.45080729  1.0
  O  O111  1  0.83249494  0.43140162  0.54402252  1.0
  O  O112  1  0.97122115  0.44285002  0.43951761  1.0
  O  O113  1  0.52138510  0.55014617  0.56751563  1.0
  O  O114  1  0.64997387  0.50927794  0.46664241  1.0
  O  O115  1  0.31256448  0.45300228  0.43700533  1.0
  O  O116  1  0.33035440  0.58518797  0.47327188  1.0
  O  O117  1  0.16326479  0.49353809  0.53459788  1.0
  O  O118  1  0.64867710  0.93507735  0.94143500  1.0
  O  O119  1  0.30702081  0.07901367  0.96128300  1.0
  O  O120  1  0.16413587  0.04785405  0.06284033  1.0
  O  O121  1  0.30869325  0.94647965  0.93334307  1.0
  O  O122  1  0.16799774  0.91713110  0.03243747  1.0
  O  O123  1  0.64139226  0.06959960  0.94789044  1.0
  O  O124  1  0.49428432  0.99326783  0.03142934  1.0
  O  O125  1  0.83287511  0.92621852  0.04235691  1.0
  O  O126  1  0.82307597  0.06069886  0.05593166  1.0
  O  O127  1  0.98071158  0.00741097  0.96368346  1.0
  O  O128  1  0.24623320  0.36211129  0.21042499  1.0
  O  O129  1  0.79615905  0.81907673  0.67817425  1.0
  O  O130  1  0.07211490  0.90155469  0.15951305  1.0
  O  O131  1  0.37645530  0.87490696  0.22609573  1.0
