# generated using pymatgen
data_Zn5H31C36N9O13
_symmetry_space_group_name_H-M   'P 1'
_cell_length_a   15.46068321
_cell_length_b   19.38044009
_cell_length_c   25.27230067
_cell_angle_alpha   89.99988341
_cell_angle_beta   90.00000808
_cell_angle_gamma   89.99994584
_symmetry_Int_Tables_number   1
_chemical_formula_structural   Zn5H31C36N9O13
_chemical_formula_sum   'Zn20 H124 C144 N36 O52'
_cell_volume   7572.46188650
_cell_formula_units_Z   4
loop_
 _symmetry_equiv_pos_site_id
 _symmetry_equiv_pos_as_xyz
  1  'x, y, z'
loop_
 _atom_site_type_symbol
 _atom_site_label
 _atom_site_symmetry_multiplicity
 _atom_site_fract_x
 _atom_site_fract_y
 _atom_site_fract_z
 _atom_site_occupancy
  Zn  Zn0  1  0.95256915  0.15940883  0.76979766  1.0
  Zn  Zn1  1  0.54742942  0.84059180  0.26979673  1.0
  Zn  Zn2  1  0.45256785  0.34059123  0.73020237  1.0
  Zn  Zn3  1  0.04743027  0.65940782  0.23020370  1.0
  Zn  Zn4  1  0.04742952  0.84059204  0.23020356  1.0
  Zn  Zn5  1  0.45256860  0.15940804  0.73020211  1.0
  Zn  Zn6  1  0.54742953  0.65940758  0.26979687  1.0
  Zn  Zn7  1  0.95256840  0.34059150  0.76979791  1.0
  Zn  Zn8  1  0.97512254  0.03473393  0.54743692  1.0
  Zn  Zn9  1  0.52487857  0.96526574  0.04743460  1.0
  Zn  Zn10  1  0.47512114  0.46526560  0.95256351  1.0
  Zn  Zn11  1  0.02488091  0.53473596  0.45256463  1.0
  Zn  Zn12  1  0.02487872  0.96526591  0.45256509  1.0
  Zn  Zn13  1  0.47512139  0.03473409  0.95256345  1.0
  Zn  Zn14  1  0.52487818  0.53473527  0.04743494  1.0
  Zn  Zn15  1  0.97512164  0.46526646  0.54743619  1.0
  Zn  Zn16  1  0.82297068  0.24999980  0.69395882  1.0
  Zn  Zn17  1  0.67702788  0.74999948  0.19395804  1.0
  Zn  Zn18  1  0.32297079  0.24999984  0.80604159  1.0
  Zn  Zn19  1  0.17702735  0.75000056  0.30604200  1.0
  H  H20  1  0.83811426  0.24999966  0.79381123  1.0
  H  H21  1  0.66188302  0.75000039  0.29381045  1.0
  H  H22  1  0.33811306  0.24999945  0.70618919  1.0
  H  H23  1  0.16188311  0.75000069  0.20618920  1.0
  H  H24  1  0.10272966  0.05198498  0.67503506  1.0
  H  H25  1  0.39726974  0.94801421  0.17503400  1.0
  H  H26  1  0.60272869  0.44801430  0.82496572  1.0
  H  H27  1  0.89727054  0.55198566  0.32496686  1.0
  H  H28  1  0.89726966  0.94801434  0.32496655  1.0
  H  H29  1  0.60273022  0.05198511  0.82496524  1.0
  H  H30  1  0.39727127  0.55198502  0.17503430  1.0
  H  H31  1  0.10272943  0.44801469  0.67503515  1.0
  H  H32  1  0.03198385  0.98393549  0.65759785  1.0
  H  H33  1  0.46801555  0.01606426  0.15759627  1.0
  H  H34  1  0.53198275  0.51606384  0.84240294  1.0
  H  H35  1  0.96801648  0.48393607  0.34240419  1.0
  H  H36  1  0.96801482  0.01606486  0.34240376  1.0
  H  H37  1  0.53198442  0.98393609  0.84240297  1.0
  H  H38  1  0.46801592  0.48393444  0.15759669  1.0
  H  H39  1  0.03198283  0.51606376  0.65759743  1.0
  H  H40  1  0.02876788  0.01923440  0.72328673  1.0
  H  H41  1  0.47123218  0.98076363  0.22328482  1.0
  H  H42  1  0.52876751  0.48076546  0.77671405  1.0
  H  H43  1  0.97123300  0.51923618  0.27671564  1.0
  H  H44  1  0.97123144  0.98076492  0.27671528  1.0
  H  H45  1  0.52876843  0.01923569  0.77671402  1.0
  H  H46  1  0.47123310  0.51923490  0.22328558  1.0
  H  H47  1  0.02876632  0.48076365  0.72328597  1.0
  H  H48  1  0.76966516  0.19233202  0.58548833  1.0
  H  H49  1  0.73033466  0.80766858  0.08548588  1.0
  H  H50  1  0.26966588  0.30766662  0.91451287  1.0
  H  H51  1  0.23033422  0.69233142  0.41451456  1.0
  H  H52  1  0.23033415  0.80766833  0.41451408  1.0
  H  H53  1  0.26966530  0.19233178  0.91451336  1.0
  H  H54  1  0.73033343  0.69233064  0.08548518  1.0
  H  H55  1  0.76966768  0.30766738  0.58548507  1.0
  H  H56  1  0.79534389  0.11307535  0.55214161  1.0
  H  H57  1  0.70465592  0.88692586  0.05214022  1.0
  H  H58  1  0.29534452  0.38692328  0.94785960  1.0
  H  H59  1  0.20465494  0.61307416  0.44786062  1.0
  H  H60  1  0.20465607  0.88692552  0.44786001  1.0
  H  H61  1  0.29534469  0.11307449  0.94785941  1.0
  H  H62  1  0.70465479  0.61307398  0.05213964  1.0
  H  H63  1  0.79534761  0.38692413  0.55213981  1.0
  H  H64  1  0.86013400  0.18602363  0.54120270  1.0
  H  H65  1  0.63986581  0.81397709  0.04120023  1.0
  H  H66  1  0.36013537  0.31397443  0.95879811  1.0
  H  H67  1  0.13986539  0.68602349  0.45880020  1.0
  H  H68  1  0.13986532  0.81397724  0.45879931  1.0
  H  H69  1  0.36013544  0.18602378  0.95879861  1.0
  H  H70  1  0.63986395  0.68602231  0.04120033  1.0
  H  H71  1  0.86013780  0.31397531  0.54119983  1.0
  H  H72  1  0.03570084  0.13850722  0.34582951  1.0
  H  H73  1  0.46429602  0.86149410  0.84582460  1.0
  H  H74  1  0.53569799  0.36149293  0.15417091  1.0
  H  H75  1  0.96429732  0.63850387  0.65417623  1.0
  H  H76  1  0.96429783  0.86149365  0.65417487  1.0
  H  H77  1  0.53570007  0.13850522  0.15417187  1.0
  H  H78  1  0.46429938  0.63850484  0.84582477  1.0
  H  H79  1  0.03569747  0.36149545  0.34582656  1.0
  H  H80  1  0.04809996  0.25000010  0.29657985  1.0
  H  H81  1  0.45189688  0.74999980  0.79657709  1.0
  H  H82  1  0.54809985  0.24999952  0.20341898  1.0
  H  H83  1  0.95189806  0.74999922  0.70342335  1.0
  H  H84  1  0.99434989  0.25000413  0.49057568  1.0
  H  H85  1  0.50564873  0.75000055  0.99057170  1.0
  H  H86  1  0.49434929  0.24999928  0.00942398  1.0
  H  H87  1  0.00564684  0.74999777  0.50942830  1.0
  H  H88  1  0.99287407  0.00519955  0.90141777  1.0
  H  H89  1  0.50713035  0.99479867  0.40141739  1.0
  H  H90  1  0.49287321  0.49479944  0.59858305  1.0
  H  H91  1  0.00712812  0.50520305  0.09858185  1.0
  H  H92  1  0.00712977  0.99479668  0.09858067  1.0
  H  H93  1  0.49287350  0.00519808  0.59858264  1.0
  H  H94  1  0.50712805  0.50519730  0.40141777  1.0
  H  H95  1  0.99287314  0.49480246  0.90141858  1.0
  H  H96  1  0.95252344  0.94265185  0.98444826  1.0
  H  H97  1  0.54747971  0.05734614  0.48444855  1.0
  H  H98  1  0.45252695  0.55734717  0.51555178  1.0
  H  H99  1  0.04747694  0.44265400  0.01555147  1.0
  H  H100  1  0.04747976  0.05734592  0.01555058  1.0
  H  H101  1  0.45252284  0.94265060  0.51555187  1.0
  H  H102  1  0.54748142  0.44265164  0.48444825  1.0
  H  H103  1  0.95252237  0.55734739  0.98444935  1.0
  H  H104  1  0.80064517  0.94843686  0.01753589  1.0
  H  H105  1  0.69935787  0.05156083  0.51753617  1.0
  H  H106  1  0.30064880  0.55156360  0.48246258  1.0
  H  H107  1  0.19935585  0.44843735  0.98246383  1.0
  H  H108  1  0.19935932  0.05156246  0.98246375  1.0
  H  H109  1  0.30064533  0.94843643  0.48246346  1.0
  H  H110  1  0.69935828  0.44843778  0.51753626  1.0
  H  H111  1  0.80064476  0.55156197  0.01753699  1.0
  H  H112  1  0.72979187  0.07397159  0.88450037  1.0
  H  H113  1  0.77021126  0.92602667  0.38450012  1.0
  H  H114  1  0.22978979  0.42602967  0.61549845  1.0
  H  H115  1  0.27020960  0.57397329  0.11549914  1.0
  H  H116  1  0.27021004  0.92602619  0.11550084  1.0
  H  H117  1  0.22979129  0.07397162  0.61549872  1.0
  H  H118  1  0.77020888  0.57397275  0.38450039  1.0
  H  H119  1  0.72979166  0.42602861  0.88450049  1.0
  H  H120  1  0.72095458  0.10995755  0.73843964  1.0
  H  H121  1  0.77904269  0.89004110  0.23844063  1.0
  H  H122  1  0.22095387  0.39004165  0.76156155  1.0
  H  H123  1  0.27904297  0.60995886  0.26156100  1.0
  H  H124  1  0.27904280  0.89004229  0.26156078  1.0
  H  H125  1  0.22095533  0.10995874  0.76156177  1.0
  H  H126  1  0.77904286  0.60995819  0.23844006  1.0
  H  H127  1  0.72095441  0.39004097  0.73843942  1.0
  H  H128  1  0.61774052  0.08634774  0.71147693  1.0
  H  H129  1  0.88225675  0.91365150  0.21147790  1.0
  H  H130  1  0.11773914  0.41365154  0.78852465  1.0
  H  H131  1  0.38225834  0.58634890  0.28852375  1.0
  H  H132  1  0.38225815  0.91365210  0.28852349  1.0
  H  H133  1  0.11774063  0.08634886  0.78852411  1.0
  H  H134  1  0.88225823  0.58634830  0.21147736  1.0
  H  H135  1  0.61773968  0.41365093  0.71147628  1.0
  H  H136  1  0.70376322  0.11013360  0.66887217  1.0
  H  H137  1  0.79623533  0.88986575  0.16887356  1.0
  H  H138  1  0.20376318  0.38986561  0.83112823  1.0
  H  H139  1  0.29623626  0.61013523  0.33112768  1.0
  H  H140  1  0.29623610  0.88986521  0.33112786  1.0
  H  H141  1  0.20376269  0.11013461  0.83112845  1.0
  H  H142  1  0.79623549  0.61013474  0.16887259  1.0
  H  H143  1  0.70376305  0.38986564  0.66887195  1.0
  C  C144  1  0.03731665  0.03124915  0.68117342  1.0
  C  C145  1  0.46268275  0.96875003  0.18117193  1.0
  C  C146  1  0.53731566  0.46875071  0.81882697  1.0
  C  C147  1  0.96268357  0.53124979  0.31882853  1.0
  C  C148  1  0.96268267  0.96875069  0.31882819  1.0
  C  C149  1  0.53731721  0.03124981  0.81882731  1.0
  C  C150  1  0.46268366  0.53124913  0.18117266  1.0
  C  C151  1  0.03731639  0.46875005  0.68117308  1.0
  C  C152  1  0.97091766  0.08162744  0.66360240  1.0
  C  C153  1  0.52908153  0.91837192  0.16360056  1.0
  C  C154  1  0.47091694  0.41837208  0.83639802  1.0
  C  C155  1  0.02908250  0.58162823  0.33639987  1.0
  C  C156  1  0.02908230  0.91837342  0.33639921  1.0
  C  C157  1  0.47091843  0.08162792  0.83639828  1.0
  C  C158  1  0.52908302  0.58162621  0.16360122  1.0
  C  C159  1  0.97091811  0.41837109  0.66360175  1.0
  C  C160  1  0.87823091  0.13726663  0.61603130  1.0
  C  C161  1  0.62176892  0.86273286  0.11602955  1.0
  C  C162  1  0.37823091  0.36273193  0.88396912  1.0
  C  C163  1  0.12176919  0.63726722  0.38397088  1.0
  C  C164  1  0.12176906  0.86273372  0.38397031  1.0
  C  C165  1  0.37823104  0.13726750  0.88396929  1.0
  C  C166  1  0.62176970  0.63726584  0.11603012  1.0
  C  C167  1  0.87823271  0.36273107  0.61602994  1.0
  C  C168  1  0.82212599  0.15898861  0.57150190  1.0
  C  C169  1  0.67787382  0.84101151  0.07149979  1.0
  C  C170  1  0.32212732  0.34100999  0.92849891  1.0
  C  C171  1  0.17787343  0.65898904  0.42850025  1.0
  C  C172  1  0.17787332  0.84101226  0.42849971  1.0
  C  C173  1  0.32212743  0.15898884  0.92849905  1.0
  C  C174  1  0.67787264  0.65898726  0.07149993  1.0
  C  C175  1  0.82212977  0.34101028  0.57149938  1.0
  C  C176  1  0.00653915  0.11969276  0.45013661  1.0
  C  C177  1  0.49346290  0.88031035  0.95013286  1.0
  C  C178  1  0.50653755  0.38031051  0.04986499  1.0
  C  C179  1  0.99345968  0.61969225  0.54986323  1.0
  C  C180  1  0.99346146  0.88030862  0.54986659  1.0
  C  C181  1  0.50653835  0.11968949  0.04986480  1.0
  C  C182  1  0.49346241  0.61969088  0.95013504  1.0
  C  C183  1  0.00654223  0.38031584  0.45013126  1.0
  C  C184  1  0.01334928  0.18720210  0.42104779  1.0
  C  C185  1  0.48664953  0.81280108  0.92104335  1.0
  C  C186  1  0.51334648  0.31280065  0.07895302  1.0
  C  C187  1  0.98664881  0.68719739  0.57895748  1.0
  C  C188  1  0.98664939  0.81279980  0.57895738  1.0
  C  C189  1  0.51334785  0.18719927  0.07895312  1.0
  C  C190  1  0.48665025  0.68719867  0.92104345  1.0
  C  C191  1  0.01334792  0.31280399  0.42104492  1.0
  C  C192  1  0.02889387  0.18764127  0.36634679  1.0
  C  C193  1  0.47110493  0.81236103  0.86634354  1.0
  C  C194  1  0.52889237  0.31236095  0.13365362  1.0
  C  C195  1  0.97110488  0.68763797  0.63365610  1.0
  C  C196  1  0.97110480  0.81236063  0.63365640  1.0
  C  C197  1  0.52889309  0.18763881  0.13365332  1.0
  C  C198  1  0.47110630  0.68763889  0.86634404  1.0
  C  C199  1  0.02889250  0.31236444  0.36634432  1.0
  C  C200  1  0.03611149  0.25000211  0.33913316  1.0
  C  C201  1  0.46388666  0.74999974  0.83913079  1.0
  C  C202  1  0.53611137  0.25000010  0.16086607  1.0
  C  C203  1  0.96388653  0.74999824  0.66086964  1.0
  C  C204  1  0.00533537  0.25000405  0.44802748  1.0
  C  C205  1  0.49466409  0.75000010  0.94802472  1.0
  C  C206  1  0.50533393  0.25000025  0.05197135  1.0
  C  C207  1  0.99466265  0.74999837  0.55197532  1.0
  C  C208  1  0.88763417  0.08473966  0.84053841  1.0
  C  C209  1  0.61236830  0.91526027  0.34053855  1.0
  C  C210  1  0.38763276  0.41526251  0.65946201  1.0
  C  C211  1  0.11236664  0.58474085  0.15946149  1.0
  C  C212  1  0.11236644  0.91525915  0.15946083  1.0
  C  C213  1  0.38763361  0.08473906  0.65946108  1.0
  C  C214  1  0.61236785  0.58473939  0.34053802  1.0
  C  C215  1  0.88763397  0.41526208  0.84053815  1.0
  C  C216  1  0.86388493  0.04363631  0.88812651  1.0
  C  C217  1  0.63611885  0.95636401  0.38812698  1.0
  C  C218  1  0.36388475  0.45636536  0.61187272  1.0
  C  C219  1  0.13611463  0.54363813  0.11187226  1.0
  C  C220  1  0.13611633  0.95636147  0.11187194  1.0
  C  C221  1  0.36388435  0.04363583  0.61187304  1.0
  C  C222  1  0.63611521  0.54363447  0.38812691  1.0
  C  C223  1  0.86388468  0.45636532  0.88812698  1.0
  C  C224  1  0.92664220  0.00610149  0.91611647  1.0
  C  C225  1  0.57336093  0.99389720  0.41611570  1.0
  C  C226  1  0.42664328  0.49389858  0.58388355  1.0
  C  C227  1  0.07335805  0.50610447  0.08388394  1.0
  C  C228  1  0.07336035  0.99389576  0.08388316  1.0
  C  C229  1  0.42664227  0.00610058  0.58388314  1.0
  C  C230  1  0.57335992  0.50610074  0.41611608  1.0
  C  C231  1  0.92664192  0.49390001  0.91611688  1.0
  C  C232  1  0.90375132  0.97140924  0.96240276  1.0
  C  C233  1  0.59625053  0.02858881  0.46240191  1.0
  C  C234  1  0.40375293  0.52859033  0.53759688  1.0
  C  C235  1  0.09624838  0.47141129  0.03759732  1.0
  C  C236  1  0.09625059  0.02858905  0.03759648  1.0
  C  C237  1  0.40375073  0.97140896  0.53759693  1.0
  C  C238  1  0.59625156  0.47140899  0.46240315  1.0
  C  C239  1  0.90375029  0.52859061  0.96240310  1.0
  C  C240  1  0.81872597  0.97416615  0.98085774  1.0
  C  C241  1  0.68127653  0.02583288  0.48085730  1.0
  C  C242  1  0.31872823  0.52583503  0.51914071  1.0
  C  C243  1  0.18127438  0.47416664  0.01914352  1.0
  C  C244  1  0.18127658  0.02583317  0.01914308  1.0
  C  C245  1  0.31872537  0.97416644  0.51914154  1.0
  C  C246  1  0.68127691  0.47416739  0.48085695  1.0
  C  C247  1  0.81872494  0.52583320  0.98085888  1.0
  C  C248  1  0.75514849  0.01027273  0.95258089  1.0
  C  C249  1  0.74485530  0.98972793  0.45258172  1.0
  C  C250  1  0.25515021  0.48973006  0.54741833  1.0
  C  C251  1  0.24485176  0.51027154  0.04741872  1.0
  C  C252  1  0.24485406  0.98972711  0.04741874  1.0
  C  C253  1  0.25514855  0.01027191  0.54741791  1.0
  C  C254  1  0.74485364  0.51027133  0.45258091  1.0
  C  C255  1  0.75514821  0.48972778  0.95258091  1.0
  C  C256  1  0.77839970  0.04495259  0.90627364  1.0
  C  C257  1  0.72160408  0.95504664  0.40627294  1.0
  C  C258  1  0.27840017  0.45504966  0.59372479  1.0
  C  C259  1  0.22160050  0.54495388  0.09372710  1.0
  C  C260  1  0.22160350  0.95504570  0.09372678  1.0
  C  C261  1  0.27839977  0.04495216  0.59372550  1.0
  C  C262  1  0.72160108  0.54495327  0.40627208  1.0
  C  C263  1  0.77840011  0.45504802  0.90627372  1.0
  C  C264  1  0.66269721  0.01104413  0.97099630  1.0
  C  C265  1  0.83730658  0.98895286  0.47099556  1.0
  C  C266  1  0.16270086  0.48896078  0.52899776  1.0
  C  C267  1  0.33730498  0.51104705  0.02900766  1.0
  C  C268  1  0.33730664  0.98895312  0.02900570  1.0
  C  C269  1  0.16269791  0.01104336  0.52900209  1.0
  C  C270  1  0.83730945  0.51105092  0.47098960  1.0
  C  C271  1  0.66269757  0.48895588  0.97099712  1.0
  C  C272  1  0.67324451  0.12095168  0.70722878  1.0
  C  C273  1  0.82675275  0.87904756  0.20722979  1.0
  C  C274  1  0.17324447  0.37904807  0.79277281  1.0
  C  C275  1  0.32675366  0.62095288  0.29277224  1.0
  C  C276  1  0.32675351  0.87904815  0.29277164  1.0
  C  C277  1  0.17324527  0.12095228  0.79277261  1.0
  C  C278  1  0.82675355  0.62095229  0.20722920  1.0
  C  C279  1  0.67324436  0.37904696  0.70722858  1.0
  C  C280  1  0.64456851  0.19395210  0.71000172  1.0
  C  C281  1  0.85542876  0.80604714  0.21000364  1.0
  C  C282  1  0.14456855  0.30604767  0.78999907  1.0
  C  C283  1  0.35542894  0.69395276  0.28999761  1.0
  C  C284  1  0.35542887  0.80604774  0.28999712  1.0
  C  C285  1  0.14456927  0.19395270  0.78999877  1.0
  C  C286  1  0.85542882  0.69395268  0.21000293  1.0
  C  C287  1  0.64456909  0.30604656  0.71000163  1.0
  N  N288  1  0.93590884  0.12997100  0.69465573  1.0
  N  N289  1  0.56408972  0.87002879  0.19465357  1.0
  N  N290  1  0.43590881  0.37002906  0.80534469  1.0
  N  N291  1  0.06408997  0.62997185  0.30534607  1.0
  N  N292  1  0.06408983  0.87002986  0.30534628  1.0
  N  N293  1  0.43590895  0.12997105  0.80534488  1.0
  N  N294  1  0.56409115  0.62997026  0.19465455  1.0
  N  N295  1  0.93590999  0.37002799  0.69465475  1.0
  N  N296  1  0.87690495  0.16544291  0.66426314  1.0
  N  N297  1  0.62309424  0.83455541  0.16426103  1.0
  N  N298  1  0.37690497  0.33455565  0.83573807  1.0
  N  N299  1  0.12309446  0.66544518  0.33573900  1.0
  N  N300  1  0.12309501  0.83455692  0.33573887  1.0
  N  N301  1  0.37690507  0.16544391  0.83573781  1.0
  N  N302  1  0.62309564  0.66544315  0.16426156  1.0
  N  N303  1  0.87690615  0.33455466  0.66426142  1.0
  N  N304  1  0.93641142  0.08504179  0.61429980  1.0
  N  N305  1  0.56358776  0.91495770  0.11429757  1.0
  N  N306  1  0.43641136  0.41495724  0.88570062  1.0
  N  N307  1  0.06358809  0.58504345  0.38570206  1.0
  N  N308  1  0.06358790  0.91495856  0.38570220  1.0
  N  N309  1  0.43641220  0.08504265  0.88570087  1.0
  N  N310  1  0.56358796  0.58504104  0.11429862  1.0
  N  N311  1  0.93641381  0.41495638  0.61429876  1.0
  N  N312  1  0.56410633  0.21449344  0.72000910  1.0
  N  N313  1  0.93589093  0.78550525  0.22001145  1.0
  N  N314  1  0.06410640  0.28550587  0.77999129  1.0
  N  N315  1  0.43589173  0.71449459  0.27998980  1.0
  N  N316  1  0.43589169  0.78550588  0.27998974  1.0
  N  N317  1  0.06410709  0.21449459  0.77999095  1.0
  N  N318  1  0.93589097  0.71449448  0.22001111  1.0
  N  N319  1  0.56410694  0.28550473  0.72000865  1.0
  N  N320  1  0.69687535  0.24999932  0.70336754  1.0
  N  N321  1  0.80312321  0.74999994  0.20336835  1.0
  N  N322  1  0.19687481  0.25000041  0.79663366  1.0
  N  N323  1  0.30312332  0.75000000  0.29663210  1.0
  O  O324  1  0.98527598  0.12158237  0.49880970  1.0
  O  O325  1  0.51472911  0.87842280  0.99880195  1.0
  O  O326  1  0.48527781  0.37842053  0.00118996  1.0
  O  O327  1  0.01472155  0.62157758  0.50119884  1.0
  O  O328  1  0.01472787  0.87842004  0.50119706  1.0
  O  O329  1  0.48527603  0.12157910  0.00119095  1.0
  O  O330  1  0.51472862  0.62157828  0.99880255  1.0
  O  O331  1  0.98527453  0.37842432  0.49880792  1.0
  O  O332  1  0.02266266  0.06515275  0.42366221  1.0
  O  O333  1  0.47733163  0.93485146  0.92365560  1.0
  O  O334  1  0.52265583  0.43484947  0.07633939  1.0
  O  O335  1  0.97733106  0.56514651  0.57634404  1.0
  O  O336  1  0.97733278  0.93484967  0.57634296  1.0
  O  O337  1  0.52266187  0.06514992  0.07633928  1.0
  O  O338  1  0.47733185  0.56514830  0.92365747  1.0
  O  O339  1  0.02266632  0.43485127  0.42365876  1.0
  O  O340  1  0.60743831  0.03887122  0.94044504  1.0
  O  O341  1  0.89256159  0.96112379  0.44045068  1.0
  O  O342  1  0.10743877  0.46113116  0.55955021  1.0
  O  O343  1  0.39255802  0.53887660  0.05955057  1.0
  O  O344  1  0.39256101  0.96112397  0.05955063  1.0
  O  O345  1  0.10743902  0.03886882  0.55955212  1.0
  O  O346  1  0.89255861  0.53887435  0.44044745  1.0
  O  O347  1  0.60743806  0.46112892  0.94044471  1.0
  O  O348  1  0.64665325  0.98287370  0.01547193  1.0
  O  O349  1  0.85334720  0.01713018  0.51547268  1.0
  O  O350  1  0.14665821  0.51713049  0.48452731  1.0
  O  O351  1  0.35334838  0.48286788  0.98452932  1.0
  O  O352  1  0.35334736  0.01713078  0.98452770  1.0
  O  O353  1  0.14665535  0.98287275  0.48452537  1.0
  O  O354  1  0.85335145  0.48287141  0.51547271  1.0
  O  O355  1  0.64665288  0.51712525  0.01547190  1.0
  O  O356  1  0.83141735  0.12021569  0.81601073  1.0
  O  O357  1  0.66858446  0.87978637  0.31601015  1.0
  O  O358  1  0.33141535  0.37978704  0.68399087  1.0
  O  O359  1  0.16858341  0.62021471  0.18398990  1.0
  O  O360  1  0.16858261  0.87978725  0.18399128  1.0
  O  O361  1  0.33141680  0.12021450  0.68398949  1.0
  O  O362  1  0.66858203  0.62021435  0.31600956  1.0
  O  O363  1  0.83141591  0.37978719  0.81600974  1.0
  O  O364  1  0.96797926  0.08557090  0.82567193  1.0
  O  O365  1  0.53202321  0.91442803  0.32567207  1.0
  O  O366  1  0.46797786  0.41443018  0.67432809  1.0
  O  O367  1  0.03202155  0.58557160  0.17432756  1.0
  O  O368  1  0.03202006  0.91442533  0.17432493  1.0
  O  O369  1  0.46797935  0.08556974  0.67432716  1.0
  O  O370  1  0.53202081  0.58557018  0.32567233  1.0
  O  O371  1  0.96797906  0.41443030  0.82567168  1.0
  O  O372  1  0.88099594  0.25000071  0.76554313  1.0
  O  O373  1  0.61900134  0.74999993  0.26554234  1.0
  O  O374  1  0.38099539  0.24999991  0.73445729  1.0
  O  O375  1  0.11900209  0.75000016  0.23445769  1.0
