# generated using pymatgen
data_ZnH7C16N3ClO4
_symmetry_space_group_name_H-M   'P 1'
_cell_length_a   14.49825029
_cell_length_b   15.93087239
_cell_length_c   17.22181636
_cell_angle_alpha   86.29620578
_cell_angle_beta   89.40852651
_cell_angle_gamma   87.93181100
_symmetry_Int_Tables_number   1
_chemical_formula_structural   ZnH7C16N3ClO4
_chemical_formula_sum   'Zn2 H14 C32 N6 Cl2 O8'
_cell_volume   3966.69785271
_cell_formula_units_Z   2
loop_
 _symmetry_equiv_pos_site_id
 _symmetry_equiv_pos_as_xyz
  1  'x, y, z'
loop_
 _atom_site_type_symbol
 _atom_site_label
 _atom_site_symmetry_multiplicity
 _atom_site_fract_x
 _atom_site_fract_y
 _atom_site_fract_z
 _atom_site_occupancy
  Zn  Zn0  1  0.49647283  0.58869388  0.50452531  1.0
  Zn  Zn1  1  0.50353201  0.41131076  0.49547258  1.0
  H  H2  1  0.41048501  0.58067104  0.74465350  1.0
  H  H3  1  0.58960269  0.41936256  0.25537361  1.0
  H  H4  1  0.41351091  0.58165294  0.89025456  1.0
  H  H5  1  0.58670895  0.41840529  0.10976459  1.0
  H  H6  1  0.58095087  0.73090626  0.41670766  1.0
  H  H7  1  0.41902988  0.26909775  0.58328400  1.0
  H  H8  1  0.57895682  0.88966164  0.41745231  1.0
  H  H9  1  0.42103152  0.11034174  0.58254225  1.0
  H  H10  1  0.61277627  0.13043390  0.38943140  1.0
  H  H11  1  0.38725889  0.86956756  0.61059786  1.0
  H  H12  1  0.60194723  0.28890689  0.39769737  1.0
  H  H13  1  0.39807897  0.71109521  0.60232552  1.0
  H  H14  1  0.40622742  0.63896274  0.10226994  1.0
  H  H15  1  0.59394428  0.36106534  0.89768562  1.0
  C  C16  1  0.50376488  0.52095192  0.34838200  1.0
  C  C17  1  0.49624955  0.47905462  0.65161283  1.0
  C  C18  1  0.44717740  0.59144341  0.13627897  1.0
  C  C19  1  0.55297615  0.40858778  0.86369741  1.0
  C  C20  1  0.45026715  0.59230470  0.21723329  1.0
  C  C21  1  0.54980821  0.40771511  0.78274649  1.0
  C  C22  1  0.46007453  0.23511904  0.54128878  1.0
  C  C23  1  0.53991923  0.76488622  0.45871203  1.0
  C  C24  1  0.46152826  0.14809376  0.54083405  1.0
  C  C25  1  0.53846835  0.85190898  0.45916863  1.0
  C  C26  1  0.51700805  0.10954554  0.48506863  1.0
  C  C27  1  0.48300571  0.89045846  0.51494434  1.0
  C  C28  1  0.56898516  0.15970673  0.43257561  1.0
  C  C29  1  0.43104311  0.84029537  0.56744901  1.0
  C  C30  1  0.56321131  0.24660066  0.43697368  1.0
  C  C31  1  0.43680797  0.75340270  0.56304395  1.0
  C  C32  1  0.68064676  0.50018114  0.50188208  1.0
  C  C33  1  0.31936047  0.49981404  0.49812738  1.0
  C  C34  1  0.78028548  0.49992489  0.50130262  1.0
  C  C35  1  0.21972235  0.50007155  0.49871374  1.0
  C  C36  1  0.86494575  0.49984920  0.50076153  1.0
  C  C37  1  0.13505861  0.50013087  0.49925231  1.0
  C  C38  1  0.95744360  0.49991120  0.50024065  1.0
  C  C39  1  0.04256706  0.50006636  0.49977330  1.0
  C  C40  1  0.50102929  0.52922343  0.26106244  1.0
  C  C41  1  0.49902681  0.47079320  0.73893215  1.0
  C  C42  1  0.55024469  0.46749737  0.22068543  1.0
  C  C43  1  0.44986252  0.53253375  0.77931849  1.0
  C  C44  1  0.54862128  0.46637587  0.14048808  1.0
  C  C45  1  0.45155563  0.53367229  0.85951157  1.0
  C  C46  1  0.49480975  0.52811456  0.09777392  1.0
  C  C47  1  0.50539479  0.47193491  0.90220576  1.0
  N  N48  1  0.48330298  0.53178229  0.01625583  1.0
  N  N49  1  0.51693031  0.46827222  0.98372688  1.0
  N  N50  1  0.50972375  0.28328310  0.49017506  1.0
  N  N51  1  0.49028034  0.71672153  0.50983270  1.0
  N  N52  1  0.52595816  0.02141436  0.47738177  1.0
  N  N53  1  0.47405702  0.97858838  0.52263243  1.0
  Cl  Cl54  1  0.38573743  0.67066560  0.25996315  1.0
  Cl  Cl55  1  0.61429260  0.32933471  0.73999305  1.0
  O  O56  1  0.50336820  0.58747675  0.38515521  1.0
  O  O57  1  0.49665209  0.41253797  0.61484317  1.0
  O  O58  1  0.50701814  0.44564297  0.37841548  1.0
  O  O59  1  0.49297308  0.55437489  0.62157880  1.0
  O  O60  1  0.63915071  0.57155127  0.50587563  1.0
  O  O61  1  0.36085908  0.42844704  0.49414931  1.0
  O  O62  1  0.64441664  0.42889754  0.49833434  1.0
  O  O63  1  0.35558820  0.57110837  0.50165186  1.0
