# generated using pymatgen
data_AlH7C10NO5F
_symmetry_space_group_name_H-M   'P 1'
_cell_length_a   6.67284162
_cell_length_b   8.78506149
_cell_length_c   16.89669075
_cell_angle_alpha   102.95240666
_cell_angle_beta   95.57000630
_cell_angle_gamma   105.17903066
_symmetry_Int_Tables_number   1
_chemical_formula_structural   AlH7C10NO5F
_chemical_formula_sum   'Al2 H14 C20 N2 O10 F2'
_cell_volume   918.76536130
_cell_formula_units_Z   2
loop_
 _symmetry_equiv_pos_site_id
 _symmetry_equiv_pos_as_xyz
  1  'x, y, z'
loop_
 _atom_site_type_symbol
 _atom_site_label
 _atom_site_symmetry_multiplicity
 _atom_site_fract_x
 _atom_site_fract_y
 _atom_site_fract_z
 _atom_site_occupancy
  Al  Al0  1  0.00002438  0.50000317  0.49998217  1.0
  Al  Al1  1  0.50003866  0.50002375  0.50001568  1.0
  H  H2  1  0.17798912  0.36492057  0.40063455  1.0
  H  H3  1  0.82210833  0.63494979  0.59940238  1.0
  H  H4  1  0.61175111  0.44894000  0.72725551  1.0
  H  H5  1  0.67724629  0.44432278  0.87480839  1.0
  H  H6  1  0.08717404  0.54482414  0.90673304  1.0
  H  H7  1  0.91273344  0.45522150  0.09326779  1.0
  H  H8  1  0.32255647  0.55550872  0.12519384  1.0
  H  H9  1  0.38812570  0.55099571  0.27274388  1.0
  H  H10  1  0.81738045  0.00456728  0.40537069  1.0
  H  H11  1  0.62651673  0.81646976  0.40187517  1.0
  H  H12  1  0.82896652  0.90972289  0.48705662  1.0
  H  H13  1  0.17115980  0.09031330  0.51293285  1.0
  H  H14  1  0.37357555  0.18352716  0.59811953  1.0
  H  H15  1  0.18266899  0.99541115  0.59458765  1.0
  C  C16  1  0.64852088  0.20790699  0.48408366  1.0
  C  C17  1  0.70982610  0.49781189  0.35549654  1.0
  C  C18  1  0.35157333  0.79210910  0.51588713  1.0
  C  C19  1  0.29019241  0.50223005  0.64452229  1.0
  C  C20  1  0.31509883  0.49858364  0.73292266  1.0
  C  C21  1  0.49810575  0.46920328  0.76741847  1.0
  C  C22  1  0.53560743  0.46742244  0.84908586  1.0
  C  C23  1  0.38771208  0.49655917  0.90009249  1.0
  C  C24  1  0.20219813  0.52280421  0.86743127  1.0
  C  C25  1  0.16926517  0.52417103  0.78521769  1.0
  C  C26  1  0.79770587  0.47721978  0.13257358  1.0
  C  C27  1  0.61216484  0.50341526  0.09991438  1.0
  C  C28  1  0.46423679  0.53248567  0.15091291  1.0
  C  C29  1  0.50178798  0.53073778  0.23258317  1.0
  C  C30  1  0.68485048  0.50142858  0.26708720  1.0
  C  C31  1  0.83068404  0.47586928  0.21478535  1.0
  C  C32  1  0.58455564  0.03071335  0.48264625  1.0
  C  C33  1  0.41553268  0.96930239  0.51731829  1.0
  C  C34  1  0.72130081  0.93523106  0.44180919  1.0
  C  C35  1  0.27878680  0.06477120  0.55816353  1.0
  N  N36  1  0.41007387  0.50138038  0.98469391  1.0
  N  N37  1  0.58977721  0.49857637  0.01530902  1.0
  O  O38  1  0.84561971  0.27659927  0.49104515  1.0
  O  O39  1  0.55312633  0.51017091  0.39127597  1.0
  O  O40  1  0.49514826  0.72256360  0.52337033  1.0
  O  O41  1  0.11977239  0.51776875  0.61164144  1.0
  O  O42  1  0.15447756  0.72339810  0.50890747  1.0
  O  O43  1  0.44695213  0.48989839  0.60877155  1.0
  O  O44  1  0.50495629  0.27748791  0.47665773  1.0
  O  O45  1  0.88025733  0.48227326  0.38836300  1.0
  O  O46  1  0.21383135  0.42549915  0.45802330  1.0
  O  O47  1  0.78627114  0.57453629  0.54198769  1.0
  F  F48  1  0.98863457  0.55364184  0.75746773  1.0
  F  F49  1  0.01131417  0.44642929  0.24252505  1.0
