# generated using pymatgen
data_Al6H63C90(NO4)7
_symmetry_space_group_name_H-M   'P 1'
_cell_length_a   13.15410162
_cell_length_b   13.15775910
_cell_length_c   27.60669304
_cell_angle_alpha   89.89123133
_cell_angle_beta   89.57357823
_cell_angle_gamma   60.63108203
_symmetry_Int_Tables_number   1
_chemical_formula_structural   Al6H63C90(NO4)7
_chemical_formula_sum   'Al6 H63 C90 N7 O28'
_cell_volume   4163.91661961
_cell_formula_units_Z   1
loop_
 _symmetry_equiv_pos_site_id
 _symmetry_equiv_pos_as_xyz
  1  'x, y, z'
loop_
 _atom_site_type_symbol
 _atom_site_label
 _atom_site_symmetry_multiplicity
 _atom_site_fract_x
 _atom_site_fract_y
 _atom_site_fract_z
 _atom_site_occupancy
  Al  Al0  1  0.41807437  0.17680176  0.49855658  1.0
  Al  Al1  1  0.41848034  0.93481585  0.49877173  1.0
  Al  Al2  1  0.65014969  0.92602631  0.49960002  1.0
  Al  Al3  1  0.91199017  0.17305600  0.98640866  1.0
  Al  Al4  1  0.67273397  0.41508222  0.98580345  1.0
  Al  Al5  1  0.89580733  0.42401250  0.98354792  1.0
  H  H6  1  0.46477590  0.68853039  0.21397517  1.0
  H  H7  1  0.81268920  0.54844858  0.69363241  1.0
  H  H8  1  0.49668812  0.86733296  0.72877565  1.0
  H  H9  1  0.46249794  0.91301775  0.64144848  1.0
  H  H10  1  0.71733590  0.92423478  0.64116798  1.0
  H  H11  1  0.49503706  0.31037287  0.77702762  1.0
  H  H12  1  0.50784631  0.36047577  0.86326292  1.0
  H  H13  1  0.47419950  0.87690494  0.25979972  1.0
  H  H14  1  0.73206448  0.95699029  0.72864946  1.0
  H  H15  1  0.85584630  0.07055999  0.86979147  1.0
  H  H16  1  0.57591777  0.32666872  0.70245540  1.0
  H  H17  1  0.47972724  0.23981341  0.21797852  1.0
  H  H18  1  0.54374129  0.29374490  0.61614525  1.0
  H  H19  1  0.00311433  0.13141390  0.75596256  1.0
  H  H20  1  0.95946627  0.15097155  0.84397895  1.0
  H  H21  1  0.19610439  0.31550695  0.77419027  1.0
  H  H22  1  0.66421706  0.83849135  0.19684225  1.0
  H  H23  1  0.13948405  0.34595025  0.86146150  1.0
  H  H24  1  0.18663845  0.01951103  0.71483741  1.0
  H  H25  1  0.82113364  0.68698686  0.26690734  1.0
  H  H26  1  0.81643421  0.99406414  0.20686520  1.0
  H  H27  1  0.87543755  0.11262120  0.27799358  1.0
  H  H28  1  0.72870630  0.32751006  0.23054011  1.0
  H  H29  1  0.46762144  0.45794961  0.27053826  1.0
  H  H30  1  0.44846444  0.37193003  0.31578324  1.0
  H  H31  1  0.55717421  0.41296139  0.32326315  1.0
  H  H32  1  0.26301401  0.37147106  0.23363475  1.0
  H  H33  1  0.29031194  0.31119849  0.17393404  1.0
  H  H34  1  0.14742359  0.41890154  0.19105606  1.0
  H  H35  1  0.35261462  0.88091662  0.19767450  1.0
  H  H36  1  0.24357731  0.95004602  0.15285104  1.0
  H  H37  1  0.36819702  0.96845981  0.15214115  1.0
  H  H38  1  0.09993475  0.95748746  0.24431190  1.0
  H  H39  1  0.06543803  0.33906048  0.28526352  1.0
  H  H40  1  0.18275835  0.93969571  0.29251511  1.0
  H  H41  1  0.86241033  0.66124527  0.73754762  1.0
  H  H42  1  0.93595630  0.62468859  0.79053860  1.0
  H  H43  1  0.43534102  0.64641125  0.78390327  1.0
  H  H44  1  0.48678951  0.68000643  0.73359992  1.0
  H  H45  1  0.47406283  0.66773567  0.90820097  1.0
  H  H46  1  0.39796996  0.71705701  0.85295384  1.0
  H  H47  1  0.47655870  0.56504566  0.86689561  1.0
  H  H48  1  0.93734989  0.95380548  0.79927910  1.0
  H  H49  1  0.86947160  0.98347144  0.74453564  1.0
  H  H50  1  0.38570126  0.09703967  0.24614066  1.0
  H  H51  1  0.04858035  0.43587214  0.60024311  1.0
  H  H52  1  0.20079102  0.38771959  0.59484263  1.0
  H  H53  1  0.13557583  0.33815325  0.55349692  1.0
  H  H54  1  0.08976162  0.45779933  0.67317649  1.0
  H  H55  1  0.05130242  0.41771226  0.72495168  1.0
  H  H56  1  0.27846871  0.88140242  0.65378440  1.0
  H  H57  1  0.28897519  0.91664317  0.59434829  1.0
  H  H58  1  0.88143176  0.41957304  0.25176470  1.0
  H  H59  1  0.81440640  0.41325363  0.19673687  1.0
  H  H60  1  0.90588688  0.47684495  0.19710156  1.0
  H  H61  1  0.96969204  0.22974366  0.22536616  1.0
  H  H62  1  0.58947843  0.97691452  0.24555688  1.0
  H  H63  1  0.57770193  0.02075812  0.30280153  1.0
  H  H64  1  0.78554428  0.60232419  0.60716491  1.0
  H  H65  1  0.62394639  0.53419437  0.28301945  1.0
  H  H66  1  0.86011460  0.59553956  0.86422838  1.0
  H  H67  1  0.34510034  0.36750951  0.46962985  1.0
  H  H68  1  0.95787627  0.97962108  0.97233762  1.0
  C  C69  1  0.30467952  0.09098324  0.42460963  1.0
  C  C70  1  0.62846241  0.72841953  0.34005572  1.0
  C  C71  1  0.78786301  0.14064727  0.26425355  1.0
  C  C72  1  0.60060774  0.79519329  0.43168400  1.0
  C  C73  1  0.75538040  0.07460733  0.22561191  1.0
  C  C74  1  0.68565179  0.23049411  0.10604331  1.0
  C  C75  1  0.66872553  0.11693539  0.38932043  1.0
  C  C76  1  0.70658505  0.25946709  0.23896411  1.0
  C  C77  1  0.67404890  0.19377183  0.19908121  1.0
  C  C78  1  0.59950187  0.27723446  0.27047609  1.0
  C  C79  1  0.68199691  0.15757124  0.29708315  1.0
  C  C80  1  0.61862237  0.74873271  0.38347872  1.0
  C  C81  1  0.56755728  0.21119259  0.23162346  1.0
  C  C82  1  0.64924461  0.09118003  0.25756410  1.0
  C  C83  1  0.67592477  0.21403911  0.14887244  1.0
  C  C84  1  0.63231122  0.09511636  0.43538602  1.0
  C  C85  1  0.67964337  0.13605715  0.34691661  1.0
  C  C86  1  0.11425197  0.26171970  0.26254494  1.0
  C  C87  1  0.20173818  0.24942912  0.22114360  1.0
  C  C88  1  0.09049360  0.23697845  0.09622178  1.0
  C  C89  1  0.26287567  0.10588971  0.37567076  1.0
  C  C90  1  0.06204614  0.20145961  0.23034201  1.0
  C  C91  1  0.73759405  0.58199853  0.23040190  1.0
  C  C92  1  0.14841494  0.18958243  0.18781036  1.0
  C  C93  1  0.15275922  0.07947628  0.25048303  1.0
  C  C94  1  0.20649957  0.13897764  0.28348421  1.0
  C  C95  1  0.24159894  0.06544868  0.20794836  1.0
  C  C96  1  0.27472986  0.10898235  0.56331111  1.0
  C  C97  1  0.29302369  0.12621676  0.24064055  1.0
  C  C98  1  0.11709479  0.21567158  0.13874360  1.0
  C  C99  1  0.23701545  0.11762062  0.33288536  1.0
  C  C100  1  0.62037497  0.75942601  0.61844887  1.0
  C  C101  1  0.72109180  0.65940784  0.63373638  1.0
  C  C102  1  0.64788267  0.66845626  0.19113458  1.0
  C  C103  1  0.73684265  0.63035356  0.68282801  1.0
  C  C104  1  0.65581121  0.70371889  0.71797954  1.0
  C  C105  1  0.55850933  0.80738316  0.70211216  1.0
  C  C106  1  0.53927619  0.83342246  0.65309216  1.0
  C  C107  1  0.76979400  0.65200810  0.79604244  1.0
  C  C108  1  0.59669756  0.79672254  0.56690987  1.0
  C  C109  1  0.78005696  0.61883519  0.84465350  1.0
  C  C110  1  0.58369472  0.64162721  0.84538160  1.0
  C  C111  1  0.57739682  0.66702287  0.79525377  1.0
  C  C112  1  0.66860955  0.67365408  0.77031139  1.0
  C  C113  1  0.74217647  0.68696227  0.25482011  1.0
  C  C114  1  0.68949967  0.61224245  0.86899255  1.0
  C  C115  1  0.63124807  0.10703697  0.62338212  1.0
  C  C116  1  0.68654433  0.01213695  0.65498458  1.0
  C  C117  1  0.69710495  0.03092237  0.70378577  1.0
  C  C118  1  0.65829286  0.14435688  0.72175347  1.0
  C  C119  1  0.60465877  0.23853757  0.68927238  1.0
  C  C120  1  0.61040728  0.08719936  0.57240088  1.0
  C  C121  1  0.58844867  0.22068893  0.64099263  1.0
  C  C122  1  0.57522130  0.25926026  0.79735115  1.0
  C  C123  1  0.58081918  0.28674873  0.84545742  1.0
  C  C124  1  0.63787738  0.70678180  0.28960643  1.0
  C  C125  1  0.77705371  0.12222889  0.84874062  1.0
  C  C126  1  0.77408940  0.09740195  0.79955118  1.0
  C  C127  1  0.66956076  0.16611177  0.77336117  1.0
  C  C128  1  0.68316881  0.21672351  0.87134009  1.0
  C  C129  1  0.20976444  0.14294298  0.60947621  1.0
  C  C130  1  0.15696130  0.26132157  0.62529537  1.0
  C  C131  1  0.11965570  0.28963339  0.67363528  1.0
  C  C132  1  0.63224875  0.60237307  0.26366825  1.0
  C  C133  1  0.13500812  0.20029663  0.70652718  1.0
  C  C134  1  0.17782563  0.08702571  0.68944067  1.0
  C  C135  1  0.65417543  0.77224233  0.21692319  1.0
  C  C136  1  0.21287334  0.05545249  0.64110764  1.0
  C  C137  1  0.03559948  0.17640404  0.77894807  1.0
  C  C138  1  0.01015110  0.18772353  0.82811993  1.0
  C  C139  1  0.11053688  0.29859002  0.83805783  1.0
  C  C140  1  0.13985311  0.28342280  0.78893029  1.0
  C  C141  1  0.10240435  0.22252558  0.75843998  1.0
  C  C142  1  0.04661245  0.24929647  0.85814205  1.0
  C  C143  1  0.71689962  0.24953696  0.05818375  1.0
  C  C144  1  0.54392600  0.68828077  0.22597080  1.0
  C  C145  1  0.70734703  0.55855259  0.05177300  1.0
  C  C146  1  0.54934484  0.79258420  0.25050720  1.0
  C  C147  1  0.03940353  0.26128553  0.04888857  1.0
  C  C148  1  0.70078979  0.24688954  0.92123758  1.0
  C  C149  1  0.71674764  0.55998582  0.91826637  1.0
  C  C150  1  0.01189447  0.26178836  0.91012813  1.0
  C  C151  1  0.67824108  0.61325782  0.09859391  1.0
  C  C152  1  0.51389068  0.38590679  0.29629742  1.0
  C  C153  1  0.22716162  0.34257322  0.20416805  1.0
  C  C154  1  0.30520539  0.96075236  0.17616359  1.0
  C  C155  1  0.47780288  0.64808215  0.86961563  1.0
  C  C156  1  0.13423879  0.36032782  0.59166081  1.0
  C  C157  1  0.66055694  0.64262770  0.14107842  1.0
  C  C158  1  0.84021204  0.46692969  0.21834908  1.0
  N  N159  1  0.12093599  0.99940495  0.27008526  1.0
  N  N160  1  0.85717141  0.66772095  0.77419613  1.0
  N  N161  1  0.47740253  0.68728699  0.77015203  1.0
  N  N162  1  0.87567835  0.01384453  0.77737773  1.0
  N  N163  1  0.05930303  0.40747138  0.68840598  1.0
  N  N164  1  0.24948260  0.94212130  0.62723711  1.0
  N  N165  1  0.62773453  0.00003889  0.27207179  1.0
  O  O166  1  0.53078278  0.16919153  0.44931305  1.0
  O  O167  1  0.80469717  0.53712077  0.03287059  1.0
  O  O168  1  0.00900090  0.36323691  0.03108690  1.0
  O  O169  1  0.32814765  0.16627186  0.44131329  1.0
  O  O170  1  0.98590530  0.18805051  0.92696884  1.0
  O  O171  1  0.79017459  0.17430107  0.94408695  1.0
  O  O172  1  0.62640499  0.34952729  0.93728371  1.0
  O  O173  1  0.64752377  0.53024263  0.93853048  1.0
  O  O174  1  0.81409473  0.53950231  0.93734371  1.0
  O  O175  1  0.00652824  0.34867601  0.93410529  1.0
  O  O176  1  0.82596897  0.33930297  0.98588376  1.0
  O  O177  1  0.49295402  0.83148008  0.55182787  1.0
  O  O178  1  0.31770124  0.99874792  0.44683880  1.0
  O  O179  1  0.50974219  0.81022426  0.45511680  1.0
  O  O180  1  0.67499621  0.82370133  0.44681233  1.0
  O  O181  1  0.70308740  0.00020407  0.45766323  1.0
  O  O182  1  0.52197077  0.16659902  0.55146511  1.0
  O  O183  1  0.31307363  0.17298545  0.54615093  1.0
  O  O184  1  0.29674326  0.01052989  0.54277796  1.0
  O  O185  1  0.67720117  0.79984431  0.54179502  1.0
  O  O186  1  0.68321511  0.98702619  0.55383320  1.0
  O  O187  1  0.49726906  0.01048308  0.49807332  1.0
  O  O188  1  0.02416473  0.18319350  0.02938298  1.0
  O  O189  1  0.82082787  0.18169134  0.04495163  1.0
  O  O190  1  0.63833686  0.33564159  0.03372258  1.0
  O  O191  1  0.63477557  0.53053793  0.03378476  1.0
  O  O192  1  0.34065266  0.33012946  0.49912038  1.0
  O  O193  1  0.99424763  0.02011329  0.98715411  1.0
