# generated using pymatgen
data_AlH15(C9O2)3
_symmetry_space_group_name_H-M   'P 1'
_cell_length_a   4.01628863
_cell_length_b   27.74170227
_cell_length_c   27.74088198
_cell_angle_alpha   60.14551763
_cell_angle_beta   89.58318963
_cell_angle_gamma   89.25509511
_symmetry_Int_Tables_number   1
_chemical_formula_structural   AlH15(C9O2)3
_chemical_formula_sum   'Al3 H45 C81 O18'
_cell_volume   2680.44550286
_cell_formula_units_Z   3
loop_
 _symmetry_equiv_pos_site_id
 _symmetry_equiv_pos_as_xyz
  1  'x, y, z'
loop_
 _atom_site_type_symbol
 _atom_site_label
 _atom_site_symmetry_multiplicity
 _atom_site_fract_x
 _atom_site_fract_y
 _atom_site_fract_z
 _atom_site_occupancy
  Al  Al0  1  0.00150210  0.00022045  0.49968101  1.0
  Al  Al1  1  0.04532395  0.33369806  0.83300966  1.0
  Al  Al2  1  0.94632163  0.66744135  0.16599879  1.0
  H  H3  1  0.48872762  0.00016798  0.92255589  1.0
  H  H4  1  0.47724103  0.91090250  0.83287329  1.0
  H  H5  1  0.50057490  0.08948907  0.74400115  1.0
  H  H6  1  0.23890485  0.16553455  0.90689332  1.0
  H  H7  1  0.21636185  0.07634399  0.90716884  1.0
  H  H8  1  0.82605037  0.14496741  0.75983804  1.0
  H  H9  1  0.84426496  0.23449504  0.75901595  1.0
  H  H10  1  0.76038562  0.92501052  0.98197163  1.0
  H  H11  1  0.74591679  0.83597840  0.07069755  1.0
  H  H12  1  0.15129798  0.76485012  0.99361335  1.0
  H  H13  1  0.16099100  0.85430982  0.90511711  1.0
  H  H14  1  0.18795844  0.92682934  0.75888355  1.0
  H  H15  1  0.18899767  0.92759143  0.66898667  1.0
  H  H16  1  0.80026811  0.07294031  0.59664242  1.0
  H  H17  1  0.79318768  0.07356899  0.68582378  1.0
  H  H18  1  0.49006817  0.42233932  0.07791703  1.0
  H  H19  1  0.49449335  0.24372841  0.16679700  1.0
  H  H20  1  0.48443938  0.33307390  0.25654017  1.0
  H  H21  1  0.76121612  0.56997098  0.09382161  1.0
  H  H22  1  0.77439891  0.48084465  0.09374251  1.0
  H  H23  1  0.16525178  0.40663211  0.24112978  1.0
  H  H24  1  0.15582110  0.49551740  0.24174499  1.0
  H  H25  1  0.20556999  0.40689339  0.01853515  1.0
  H  H26  1  0.22376535  0.40690019  0.92938704  1.0
  H  H27  1  0.83642648  0.25881642  0.00507110  1.0
  H  H28  1  0.82134775  0.25927321  0.09404321  1.0
  H  H29  1  0.80068171  0.18570399  0.24049159  1.0
  H  H30  1  0.80859263  0.09670206  0.33020309  1.0
  H  H31  1  0.18086889  0.16960361  0.40337093  1.0
  H  H32  1  0.18085931  0.25941082  0.31442383  1.0
  H  H33  1  0.50820282  0.57730375  0.49978249  1.0
  H  H34  1  0.50984958  0.75583799  0.41055934  1.0
  H  H35  1  0.52284302  0.66693034  0.58918670  1.0
  H  H36  1  0.24148029  0.42993591  0.66380333  1.0
  H  H37  1  0.23258416  0.51852578  0.57456802  1.0
  H  H38  1  0.83460429  0.59376518  0.64662871  1.0
  H  H39  1  0.83927697  0.50539847  0.73618403  1.0
  H  H40  1  0.78790588  0.59273290  0.42350778  1.0
  H  H41  1  0.76185762  0.59332565  0.33411640  1.0
  H  H42  1  0.15114524  0.74158150  0.26539477  1.0
  H  H43  1  0.17375024  0.74048041  0.35503006  1.0
  H  H44  1  0.21176394  0.81431607  0.42629771  1.0
  H  H45  1  0.20457590  0.90348709  0.42699882  1.0
  H  H46  1  0.82294027  0.83049329  0.57254618  1.0
  H  H47  1  0.82333426  0.74054724  0.57330313  1.0
  C  C48  1  0.50904529  0.92609858  0.49973938  1.0
  C  C49  1  0.49755313  0.00029704  0.57369862  1.0
  C  C50  1  0.49778886  0.07415833  0.42574563  1.0
  C  C51  1  0.54947788  0.25989066  0.83225708  1.0
  C  C52  1  0.53988688  0.33270299  0.90771965  1.0
  C  C53  1  0.54292627  0.40837807  0.75962151  1.0
  C  C54  1  0.44446802  0.74080263  0.09140746  1.0
  C  C55  1  0.45223944  0.59247485  0.16752894  1.0
  C  C56  1  0.44558935  0.66826707  0.23978961  1.0
  C  C57  1  0.47303124  0.94946429  0.88381264  1.0
  C  C58  1  0.48862068  0.00017205  0.88326825  1.0
  C  C59  1  0.50458226  0.05089302  0.83332411  1.0
  C  C60  1  0.50214868  0.05020208  0.78314441  1.0
  C  C61  1  0.48842536  0.00019976  0.78217490  1.0
  C  C62  1  0.47496879  0.95017096  0.83293191  1.0
  C  C63  1  0.37159244  0.16063827  0.87515214  1.0
  C  C64  1  0.36100716  0.11045089  0.87528232  1.0
  C  C65  1  0.51896369  0.10403697  0.83343321  1.0
  C  C66  1  0.69042080  0.14965372  0.79148112  1.0
  C  C67  1  0.70312343  0.19996576  0.79107710  1.0
  C  C68  1  0.54274448  0.20565672  0.83293673  1.0
  C  C69  1  0.61935416  0.89047389  0.98461152  1.0
  C  C70  1  0.61394386  0.84033575  0.03451939  1.0
  C  C71  1  0.44859187  0.79472117  0.03775315  1.0
  C  C72  1  0.28851052  0.79983412  0.99077154  1.0
  C  C73  1  0.29601270  0.85016060  0.94098000  1.0
  C  C74  1  0.46199228  0.89632351  0.93689286  1.0
  C  C75  1  0.32645917  0.95855902  0.72363701  1.0
  C  C76  1  0.32484530  0.95890642  0.67338920  1.0
  C  C77  1  0.49478175  0.00028668  0.62727357  1.0
  C  C78  1  0.66212397  0.04165760  0.63219553  1.0
  C  C79  1  0.65542945  0.04197060  0.68211288  1.0
  C  C80  1  0.48973055  0.00025951  0.72890405  1.0
  C  C81  1  0.50136804  0.33305045  0.11620606  1.0
  C  C82  1  0.48973310  0.38311374  0.11710829  1.0
  C  C83  1  0.47827808  0.38388605  0.16724330  1.0
  C  C84  1  0.47936847  0.33306289  0.21725609  1.0
  C  C85  1  0.48889826  0.28221561  0.21784763  1.0
  C  C86  1  0.49901615  0.28294895  0.16694047  1.0
  C  C87  1  0.62671542  0.53429531  0.12565229  1.0
  C  C88  1  0.63205858  0.48415886  0.12559957  1.0
  C  C89  1  0.47117400  0.43706263  0.16745274  1.0
  C  C90  1  0.30302510  0.44196190  0.20943765  1.0
  C  C91  1  0.29534100  0.49200401  0.20974902  1.0
  C  C92  1  0.45802705  0.53840733  0.16779409  1.0
  C  C93  1  0.35050606  0.37501078  0.01549843  1.0
  C  C94  1  0.35852997  0.37499740  0.96534967  1.0
  C  C95  1  0.53075477  0.33281297  0.96158458  1.0
  C  C96  1  0.69416099  0.29081888  0.00832821  1.0
  C  C97  1  0.68364545  0.29106513  0.05837651  1.0
  C  C98  1  0.51187596  0.33307063  0.06292818  1.0
  C  C99  1  0.65992889  0.18214032  0.27585457  1.0
  C  C100  1  0.66679389  0.13234032  0.32599100  1.0
  C  C101  1  0.49480869  0.12762565  0.37227883  1.0
  C  C102  1  0.32038785  0.17385827  0.36766241  1.0
  C  C103  1  0.32239709  0.22402672  0.31788161  1.0
  C  C104  1  0.49003161  0.22904939  0.27092215  1.0
  C  C105  1  0.49920788  0.66657481  0.44911157  1.0
  C  C106  1  0.51142199  0.61655188  0.49986334  1.0
  C  C107  1  0.52567709  0.61592061  0.55065693  1.0
  C  C108  1  0.52648841  0.66681001  0.54994630  1.0
  C  C109  1  0.51721817  0.71760398  0.49989452  1.0
  C  C110  1  0.50488391  0.71671536  0.44983636  1.0
  C  C111  1  0.37509285  0.46573435  0.65972906  1.0
  C  C112  1  0.37251989  0.51559272  0.60948126  1.0
  C  C113  1  0.53222058  0.56286677  0.60391548  1.0
  C  C114  1  0.69738913  0.55833759  0.65051626  1.0
  C  C115  1  0.70208248  0.50860245  0.70092633  1.0
  C  C116  1  0.53961650  0.46209553  0.70572942  1.0
  C  C117  1  0.64144130  0.62476448  0.38937089  1.0
  C  C118  1  0.62882275  0.62510132  0.33906817  1.0
  C  C119  1  0.45514603  0.66751109  0.29406098  1.0
  C  C120  1  0.29436221  0.70937299  0.29988529  1.0
  C  C121  1  0.30938551  0.70879382  0.35027406  1.0
  C  C122  1  0.48341621  0.66664949  0.39587398  1.0
  C  C123  1  0.35031959  0.81786355  0.45800586  1.0
  C  C124  1  0.34412020  0.86777366  0.45831812  1.0
  C  C125  1  0.51334582  0.87250012  0.49977482  1.0
  C  C126  1  0.68543186  0.82621204  0.54119497  1.0
  C  C127  1  0.68311209  0.77594424  0.54156712  1.0
  C  C128  1  0.51732827  0.77086714  0.49984601  1.0
  O  O129  1  0.26233230  0.06598284  0.46016428  1.0
  O  O130  1  0.27280614  0.96045726  0.47352877  1.0
  O  O131  1  0.26571938  0.97410103  0.56544642  1.0
  O  O132  1  0.73538497  0.03983703  0.43386048  1.0
  O  O133  1  0.73140117  0.02649131  0.53933937  1.0
  O  O134  1  0.74177203  0.93438626  0.52587835  1.0
  O  O135  1  0.30668035  0.39982303  0.79379595  1.0
  O  O136  1  0.31549025  0.29462284  0.80625230  1.0
  O  O137  1  0.30887158  0.30701131  0.89882975  1.0
  O  O138  1  0.78210410  0.37458401  0.76753460  1.0
  O  O139  1  0.77746288  0.35832840  0.87432910  1.0
  O  O140  1  0.78698428  0.26773212  0.85767871  1.0
  O  O141  1  0.20852073  0.64289555  0.23195069  1.0
  O  O142  1  0.20566767  0.73310035  0.12490253  1.0
  O  O143  1  0.21445616  0.62626014  0.14154881  1.0
  O  O144  1  0.67709959  0.69425033  0.20502508  1.0
  O  O145  1  0.68583152  0.60128095  0.19294204  1.0
  O  O146  1  0.68100317  0.70631502  0.10013678  1.0
