# generated using pymatgen
data_Al4H41C66Br11(N4O15)2
_symmetry_space_group_name_H-M   'P 1'
_cell_length_a   6.59451568
_cell_length_b   22.53124785
_cell_length_c   23.23755784
_cell_angle_alpha   68.10401072
_cell_angle_beta   89.26311220
_cell_angle_gamma   89.00481659
_symmetry_Int_Tables_number   1
_chemical_formula_structural   Al4H41C66Br11(N4O15)2
_chemical_formula_sum   'Al4 H41 C66 Br11 N8 O30'
_cell_volume   3203.06974528
_cell_formula_units_Z   1
loop_
 _symmetry_equiv_pos_site_id
 _symmetry_equiv_pos_as_xyz
  1  'x, y, z'
loop_
 _atom_site_type_symbol
 _atom_site_label
 _atom_site_symmetry_multiplicity
 _atom_site_fract_x
 _atom_site_fract_y
 _atom_site_fract_z
 _atom_site_occupancy
  Al  Al0  1  0.16749375  0.50263848  0.49557690  1.0
  Al  Al1  1  0.66596228  0.50151803  0.49634317  1.0
  Al  Al2  1  0.58990030  0.00247424  0.99596838  1.0
  Al  Al3  1  0.09092475  0.00582319  0.99736978  1.0
  H  H4  1  0.11227877  0.68795201  0.18725335  1.0
  H  H5  1  0.14914294  0.77713600  0.87689552  1.0
  H  H6  1  0.64458387  0.36579491  0.27861711  1.0
  H  H7  1  0.68585158  0.12272166  0.20214915  1.0
  H  H8  1  0.64474509  0.07044573  0.12539472  1.0
  H  H9  1  0.68284871  0.40269740  0.68859594  1.0
  H  H10  1  0.19667333  0.30858009  0.63679772  1.0
  H  H11  1  0.41816745  0.81423836  0.91113801  1.0
  H  H12  1  0.27923429  0.75427924  0.97202858  1.0
  H  H13  1  0.43283293  0.81049016  0.98936114  1.0
  H  H14  1  0.79673509  0.81121815  0.57968557  1.0
  H  H15  1  0.52497893  0.81820116  0.58104722  1.0
  H  H16  1  0.64310184  0.77739548  0.53585325  1.0
  H  H17  1  0.43131544  0.59501971  0.57751940  1.0
  H  H18  1  0.35400755  0.66964487  0.51995250  1.0
  H  H19  1  0.37244983  0.66266077  0.59938946  1.0
  H  H20  1  0.23313506  0.20295064  0.49645697  1.0
  H  H21  1  0.31995918  0.16471545  0.44422172  1.0
  H  H22  1  0.05851613  0.16049119  0.46736684  1.0
  H  H23  1  0.92994391  0.38901471  0.44082650  1.0
  H  H24  1  0.88329644  0.31865072  0.50806706  1.0
  H  H25  1  0.89324456  0.31297226  0.43304689  1.0
  H  H26  1  0.96053141  0.02494195  0.79818453  1.0
  H  H27  1  0.02106089  0.08003091  0.72159047  1.0
  H  H28  1  0.88052430  0.10712165  0.77416516  1.0
  H  H29  1  0.13138033  0.18838419  0.59950491  1.0
  H  H30  1  0.30185623  0.13522097  0.65607798  1.0
  H  H31  1  0.35857522  0.21880899  0.61916616  1.0
  H  H32  1  0.29652799  0.81894573  0.26454097  1.0
  H  H33  1  0.28957889  0.80144641  0.34651482  1.0
  H  H34  1  0.37376719  0.74092486  0.31836518  1.0
  H  H35  1  0.84650244  0.78365301  0.38269288  1.0
  H  H36  1  0.98485994  0.71022138  0.42357547  1.0
  H  H37  1  0.75001939  0.72669464  0.45467596  1.0
  H  H38  1  0.48061511  0.92019975  0.68043080  1.0
  H  H39  1  0.75320965  0.91501204  0.68401407  1.0
  H  H40  1  0.61649285  0.97047260  0.71049958  1.0
  H  H41  1  0.41659812  0.58276653  0.44859575  1.0
  H  H42  1  0.92365865  0.42181904  0.54211318  1.0
  H  H43  1  0.33392414  0.93213370  0.98553109  1.0
  H  H44  1  0.83165092  0.08845342  0.96273205  1.0
  C  C45  1  0.41339163  0.43258463  0.43742125  1.0
  C  C46  1  0.42148579  0.41615939  0.59668005  1.0
  C  C47  1  0.91304511  0.56349709  0.56262187  1.0
  C  C48  1  0.91104737  0.58775783  0.39549822  1.0
  C  C49  1  0.83103183  0.86022590  0.15687293  1.0
  C  C50  1  0.91237546  0.64187983  0.33342943  1.0
  C  C51  1  0.02645180  0.69083000  0.22640326  1.0
  C  C52  1  0.02216898  0.63920093  0.28169283  1.0
  C  C53  1  0.80984311  0.69814859  0.32823690  1.0
  C  C54  1  0.80613812  0.75259418  0.27114242  1.0
  C  C55  1  0.92106375  0.74827934  0.21968950  1.0
  C  C56  1  0.92596247  0.80275547  0.16307926  1.0
  C  C57  1  0.71642273  0.86303692  0.20804395  1.0
  C  C58  1  0.69624388  0.81035683  0.26300376  1.0
  C  C59  1  0.72717701  0.90701621  0.84658561  1.0
  C  C60  1  0.73842999  0.86977106  0.80961697  1.0
  C  C61  1  0.89163606  0.82281402  0.82208124  1.0
  C  C62  1  0.03379391  0.81439800  0.86855017  1.0
  C  C63  1  0.02918304  0.85390399  0.90274877  1.0
  C  C64  1  0.87053853  0.90014478  0.89311993  1.0
  C  C65  1  0.91598491  0.70606388  0.72533719  1.0
  C  C66  1  0.90284247  0.78045289  0.78644613  1.0
  C  C67  1  0.77497699  0.68213516  0.63894326  1.0
  C  C68  1  0.77184460  0.64766979  0.59941044  1.0
  C  C69  1  0.90477171  0.59498827  0.60966512  1.0
  C  C70  1  0.03123718  0.57515167  0.66222951  1.0
  C  C71  1  0.03914207  0.61088524  0.70036748  1.0
  C  C72  1  0.91197241  0.66487119  0.68851913  1.0
  C  C73  1  0.54394813  0.39904077  0.34994986  1.0
  C  C74  1  0.54430179  0.35774128  0.31825362  1.0
  C  C75  1  0.41682700  0.30433333  0.33697446  1.0
  C  C76  1  0.28332608  0.29428526  0.38759423  1.0
  C  C77  1  0.28629638  0.33626645  0.42003151  1.0
  C  C78  1  0.41695634  0.38901424  0.40167192  1.0
  C  C79  1  0.41766411  0.19803230  0.23046516  1.0
  C  C80  1  0.43198564  0.26133074  0.30252215  1.0
  C  C81  1  0.54637867  0.12915270  0.17578666  1.0
  C  C82  1  0.52386385  0.10010396  0.13312826  1.0
  C  C83  1  0.34589645  0.10823743  0.09852914  1.0
  C  C84  1  0.19186262  0.14960270  0.10484397  1.0
  C  C85  1  0.21300922  0.17794074  0.14904661  1.0
  C  C86  1  0.38935857  0.16724134  0.18488564  1.0
  C  C87  1  0.35283321  0.15089661  0.83802411  1.0
  C  C88  1  0.42719171  0.36300526  0.65833996  1.0
  C  C89  1  0.59127470  0.31363567  0.75799089  1.0
  C  C90  1  0.57638330  0.36342082  0.70126877  1.0
  C  C91  1  0.30581173  0.31033378  0.67084209  1.0
  C  C92  1  0.32878190  0.25664653  0.72672909  1.0
  C  C93  1  0.46064181  0.25958953  0.77492437  1.0
  C  C94  1  0.44992994  0.20659019  0.83275264  1.0
  C  C95  1  0.25063900  0.14495327  0.78685691  1.0
  C  C96  1  0.22941685  0.19873813  0.73291854  1.0
  C  C97  1  0.34906020  0.09423000  0.89849612  1.0
  C  C98  1  0.33282692  0.06954494  0.05844428  1.0
  C  C99  1  0.83375754  0.91655147  0.09588444  1.0
  C  C100  1  0.85900178  0.93922871  0.93321778  1.0
  C  C101  1  0.33365318  0.80382926  0.95487484  1.0
  C  C102  1  0.65310121  0.78776391  0.57827719  1.0
  C  C103  1  0.43708016  0.64709380  0.56340873  1.0
  C  C104  1  0.19383990  0.19033199  0.45662373  1.0
  C  C105  1  0.95495782  0.33717269  0.46205161  1.0
  C  C106  1  0.00046024  0.07442069  0.77029679  1.0
  C  C107  1  0.23604741  0.18397388  0.63718854  1.0
  C  C108  1  0.37128093  0.79253160  0.30912180  1.0
  C  C109  1  0.83322113  0.73266970  0.41191542  1.0
  C  C110  1  0.61413052  0.92325600  0.70671999  1.0
  Br  Br111  1  0.05531608  0.79452000  0.09251155  1.0
  Br  Br112  1  0.17851427  0.49659158  0.68574199  1.0
  Br  Br113  1  0.23354002  0.59038124  0.76449933  1.0
  Br  Br114  1  0.71800500  0.47078751  0.31904451  1.0
  Br  Br115  1  0.58589335  0.94012002  0.20417186  1.0
  Br  Br116  1  0.96662677  0.17269031  0.05082474  1.0
  Br  Br117  1  0.00647571  0.23141376  0.16211879  1.0
  Br  Br118  1  0.53361481  0.21249810  0.90890521  1.0
  Br  Br119  1  0.82095386  0.31801798  0.80538722  1.0
  Br  Br120  1  0.17070250  0.56419944  0.28721895  1.0
  Br  Br121  1  0.51029417  0.96791957  0.82990073  1.0
  N  N122  1  0.93744279  0.80747650  0.72473748  1.0
  N  N123  1  0.94695568  0.76905916  0.69343887  1.0
  N  N124  1  0.88943126  0.67878178  0.78729153  1.0
  N  N125  1  0.88602613  0.71700153  0.81893670  1.0
  N  N126  1  0.35376457  0.20176462  0.32605584  1.0
  N  N127  1  0.34141980  0.17029104  0.28824061  1.0
  N  N128  1  0.54866708  0.24715335  0.21495044  1.0
  N  N129  1  0.55165036  0.28019133  0.25120078  1.0
  O  O130  1  0.59070743  0.44230472  0.57619310  1.0
  O  O131  1  0.24248985  0.45654105  0.44299892  1.0
  O  O132  1  0.08020821  0.57286147  0.42307990  1.0
  O  O133  1  0.25375740  0.43116176  0.56789589  1.0
  O  O134  1  0.08838002  0.54975812  0.54740323  1.0
  O  O135  1  0.58067361  0.44113304  0.45963734  1.0
  O  O136  1  0.41611095  0.54230100  0.48374714  1.0
  O  O137  1  0.74646112  0.55532440  0.54027725  1.0
  O  O138  1  0.74254863  0.56184023  0.41619184  1.0
  O  O139  1  0.91893898  0.46274485  0.50767650  1.0
  O  O140  1  0.16135933  0.04925269  0.05067615  1.0
  O  O141  1  0.51839156  0.06604617  0.91606739  1.0
  O  O142  1  0.68712087  0.94493489  0.95623083  1.0
  O  O143  1  0.50008568  0.05773885  0.03682820  1.0
  O  O144  1  0.66129277  0.93813670  0.07377321  1.0
  O  O145  1  0.17935254  0.08002384  0.92609208  1.0
  O  O146  1  0.33938210  0.96496839  0.00317885  1.0
  O  O147  1  0.00435594  0.93637317  0.07145382  1.0
  O  O148  1  0.02369997  0.96291035  0.94169793  1.0
  O  O149  1  0.83698548  0.04275611  0.98641183  1.0
  O  O150  1  0.16878229  0.84855576  0.94715319  1.0
  O  O151  1  0.63610520  0.72996798  0.63298749  1.0
  O  O152  1  0.64442700  0.66854130  0.54954692  1.0
  O  O153  1  0.14150671  0.24695939  0.40402492  1.0
  O  O154  1  0.17003682  0.32292394  0.47264528  1.0
  O  O155  1  0.18735567  0.08475763  0.79648134  1.0
  O  O156  1  0.11737653  0.19712091  0.68365397  1.0
  O  O157  1  0.57392638  0.81570909  0.30900859  1.0
  O  O158  1  0.71744139  0.69954272  0.38109466  1.0
  O  O159  1  0.59151414  0.87298995  0.76704842  1.0
