# generated using pymatgen
data_Zn4H26(C10O3)5
_symmetry_space_group_name_H-M   'P 1'
_cell_length_a   15.91351582
_cell_length_b   17.99885395
_cell_length_c   18.01963853
_cell_angle_alpha   63.47377545
_cell_angle_beta   80.74639558
_cell_angle_gamma   76.29204195
_symmetry_Int_Tables_number   1
_chemical_formula_structural   Zn4H26(C10O3)5
_chemical_formula_sum   'Zn4 H26 C50 O15'
_cell_volume   4477.43173495
_cell_formula_units_Z   1
loop_
 _symmetry_equiv_pos_site_id
 _symmetry_equiv_pos_as_xyz
  1  'x, y, z'
loop_
 _atom_site_type_symbol
 _atom_site_label
 _atom_site_symmetry_multiplicity
 _atom_site_fract_x
 _atom_site_fract_y
 _atom_site_fract_z
 _atom_site_occupancy
  Zn  Zn0  1  0.42963618  0.41901273  0.58636087  1.0
  Zn  Zn1  1  0.58118836  0.43722339  0.44773527  1.0
  Zn  Zn2  1  0.54391764  0.55157428  0.55608144  1.0
  Zn  Zn3  1  0.42906103  0.59490680  0.41047264  1.0
  H  H4  1  0.44564803  0.40702121  0.16304421  1.0
  H  H5  1  0.44969155  0.17084661  0.39814160  1.0
  H  H6  1  0.55029986  0.82989964  0.60894195  1.0
  H  H7  1  0.60268863  0.99026288  0.73949601  1.0
  H  H8  1  0.38694746  0.32856398  0.10869094  1.0
  H  H9  1  0.49840229  0.46440127  0.20635804  1.0
  H  H10  1  0.59060391  0.68748582  0.15742841  1.0
  H  H11  1  0.60085517  0.68715542  0.88867368  1.0
  H  H12  1  0.35820357  0.30524715  0.99238302  1.0
  H  H13  1  0.37258331  0.34122807  0.84058444  1.0
  H  H14  1  0.51412594  0.53388075  0.79420991  1.0
  H  H15  1  0.55213643  0.60308127  0.83633192  1.0
  H  H16  1  0.02458117  0.63341994  0.37418943  1.0
  H  H17  1  0.60663112  0.81717111  0.06058011  1.0
  H  H18  1  0.70875184  0.74770090  0.07449436  1.0
  H  H19  1  0.69065250  0.84100863  0.98087410  1.0
  H  H20  1  0.68534092  0.71907990  0.95470089  1.0
  H  H21  1  0.58349910  0.78587015  0.94239992  1.0
  H  H22  1  0.38169680  0.19096518  0.28911407  1.0
  H  H23  1  0.50434709  0.20691208  0.46339208  1.0
  H  H24  1  0.58077782  0.14375394  0.70508946  1.0
  H  H25  1  0.59369459  0.87673036  0.70283899  1.0
  H  H26  1  0.36384898  0.01114513  0.28349832  1.0
  H  H27  1  0.37667681  0.85739093  0.32205875  1.0
  H  H28  1  0.51456405  0.79372989  0.53385091  1.0
  H  H29  1  0.01077760  0.40703350  0.56539393  1.0
  C  C30  1  0.53086814  0.55296182  0.27947193  1.0
  C  C31  1  0.47102686  0.46778475  0.92427486  1.0
  C  C32  1  0.42727565  0.40058955  0.98010957  1.0
  C  C33  1  0.45750223  0.45926436  0.71973749  1.0
  C  C34  1  0.50429015  0.51535650  0.95642183  1.0
  C  C35  1  0.49546342  0.49333263  0.04297458  1.0
  C  C36  1  0.45323841  0.42432359  0.09655495  1.0
  C  C37  1  0.42007533  0.38025366  0.06655416  1.0
  C  C38  1  0.54433464  0.58559977  0.90287026  1.0
  C  C39  1  0.57199736  0.63324189  0.93248517  1.0
  C  C40  1  0.56314808  0.61454492  0.01869586  1.0
  C  C41  1  0.11136136  0.51590863  0.47272970  1.0
  C  C42  1  0.52655112  0.54225994  0.07494368  1.0
  C  C43  1  0.58874875  0.66666667  0.04898172  1.0
  C  C44  1  0.57476247  0.64747909  0.13281906  1.0
  C  C45  1  0.53146220  0.27528815  0.55825081  1.0
  C  C46  1  0.52100658  0.52139075  0.16080421  1.0
  C  C47  1  0.44735378  0.81772111  0.43058059  1.0
  C  C48  1  0.54168312  0.18328049  0.58118280  1.0
  C  C49  1  0.39643586  0.96339080  0.33856944  1.0
  C  C50  1  0.40351781  0.87861539  0.35956694  1.0
  C  C51  1  0.48133880  0.84303115  0.48002086  1.0
  C  C52  1  0.88812355  0.46930067  0.51206296  1.0
  C  C53  1  0.47352296  0.92911196  0.46156870  1.0
  C  C54  1  0.43122460  0.99002721  0.38820366  1.0
  C  C55  1  0.50558909  0.95637800  0.51444758  1.0
  C  C56  1  0.49728091  0.04410850  0.49099526  1.0
  C  C57  1  0.45849384  0.72586662  0.45237300  1.0
  C  C58  1  0.45714141  0.10324781  0.41627877  1.0
  C  C59  1  0.42461751  0.07775618  0.36717558  1.0
  C  C60  1  0.54278381  0.89736626  0.59092006  1.0
  C  C61  1  0.56734041  0.92316516  0.64374822  1.0
  C  C62  1  0.55834055  0.01059102  0.62340670  1.0
  C  C63  1  0.18855011  0.51160165  0.47564653  1.0
  C  C64  1  0.52635457  0.07195430  0.54496968  1.0
  C  C65  1  0.57889935  0.03793383  0.67972178  1.0
  C  C66  1  0.56782701  0.12268362  0.66068701  1.0
  C  C67  1  0.52303791  0.15801675  0.52429740  1.0
  C  C68  1  0.71951831  0.48035281  0.50574519  1.0
  C  C69  1  0.27887026  0.50725535  0.48141781  1.0
  C  C70  1  0.81122455  0.47271796  0.50858035  1.0
  C  C71  1  0.97617344  0.46360390  0.51746559  1.0
  C  C72  1  0.02229927  0.52488584  0.46576576  1.0
  C  C73  1  0.62980186  0.74150467  0.98955213  1.0
  C  C74  1  0.44517847  0.43990623  0.80983523  1.0
  C  C75  1  0.66043867  0.78924499  0.02886809  1.0
  C  C76  1  0.54267426  0.57402914  0.18887742  1.0
  C  C77  1  0.39191163  0.35583394  0.94873770  1.0
  C  C78  1  0.39976635  0.37521378  0.86512949  1.0
  C  C79  1  0.47970178  0.48493861  0.83930506  1.0
  O  O80  1  0.49560022  0.50093748  0.50006430  1.0
  O  O81  1  0.69690448  0.44296979  0.46838503  1.0
  O  O82  1  0.31264931  0.56755377  0.42404571  1.0
  O  O83  1  0.67092694  0.52408529  0.54114785  1.0
  O  O84  1  0.31469016  0.44373855  0.54321148  1.0
  O  O85  1  0.98196764  0.59744488  0.40445169  1.0
  O  O86  1  0.38363401  0.13371313  0.29617411  1.0
  O  O87  1  0.49034948  0.30189156  0.61144944  1.0
  O  O88  1  0.41735777  0.70530227  0.41110669  1.0
  O  O89  1  0.56488850  0.47852043  0.32887994  1.0
  O  O90  1  0.50943672  0.50938948  0.67510427  1.0
  O  O91  1  0.48713164  0.61090211  0.30028919  1.0
  O  O92  1  0.41546695  0.42377696  0.69403163  1.0
  O  O93  1  0.56371907  0.32050532  0.48693428  1.0
  O  O94  1  0.50855424  0.67477971  0.51034975  1.0
