# generated using pymatgen
data_Al3H9C34NO14
_symmetry_space_group_name_H-M   'P 1'
_cell_length_a   12.28729711
_cell_length_b   12.36337833
_cell_length_c   26.97975944
_cell_angle_alpha   82.61622207
_cell_angle_beta   82.60040591
_cell_angle_gamma   64.02225115
_symmetry_Int_Tables_number   1
_chemical_formula_structural   Al3H9C34NO14
_chemical_formula_sum   'Al6 H18 C68 N2 O28'
_cell_volume   3641.80709399
_cell_formula_units_Z   2
loop_
 _symmetry_equiv_pos_site_id
 _symmetry_equiv_pos_as_xyz
  1  'x, y, z'
loop_
 _atom_site_type_symbol
 _atom_site_label
 _atom_site_symmetry_multiplicity
 _atom_site_fract_x
 _atom_site_fract_y
 _atom_site_fract_z
 _atom_site_occupancy
  Al  Al0  1  0.59689610  0.59647559  0.48859649  1.0
  Al  Al1  1  0.57475233  0.34464867  0.50427324  1.0
  Al  Al2  1  0.34345655  0.57442514  0.50244871  1.0
  Al  Al3  1  0.06147752  0.07274223  0.02151048  1.0
  Al  Al4  1  0.31890261  0.08651425  0.00392848  1.0
  Al  Al5  1  0.09217378  0.32027037  0.00558811  1.0
  H  H6  1  0.19247171  0.74627962  0.80336793  1.0
  H  H7  1  0.63450186  0.40321006  0.80885527  1.0
  H  H8  1  0.73121521  0.20500053  0.74809185  1.0
  H  H9  1  0.96298835  0.13342750  0.78414595  1.0
  H  H10  1  0.15026125  0.48091960  0.28558118  1.0
  H  H11  1  0.50955766  0.36984624  0.26380375  1.0
  H  H12  1  0.53336467  0.15945262  0.22292162  1.0
  H  H13  1  0.37272806  0.12740010  0.30307426  1.0
  H  H14  1  0.17300126  0.27087916  0.24479972  1.0
  H  H15  1  0.12292172  0.93374668  0.72456132  1.0
  H  H16  1  0.40659568  0.61114133  0.74287696  1.0
  H  H17  1  0.53073182  0.72205521  0.78447984  1.0
  H  H18  1  0.46013040  0.90978388  0.70551342  1.0
  H  H19  1  0.92119949  0.47439182  0.76329692  1.0
  H  H20  1  0.01773502  0.27689298  0.70302430  1.0
  H  H21  1  0.68931600  0.54684347  0.72728425  1.0
  H  H22  1  0.69952673  0.70543022  0.44529743  1.0
  H  H23  1  0.94368604  0.97868951  0.00380635  1.0
  C  C24  1  0.71486757  0.38710220  0.56407013  1.0
  C  C25  1  0.34085576  0.34952793  0.73206686  1.0
  C  C26  1  0.34958811  0.35920362  0.68175832  1.0
  C  C27  1  0.35859557  0.36805323  0.63569590  1.0
  C  C28  1  0.21338082  0.88504493  0.73813753  1.0
  C  C29  1  0.25241519  0.78149123  0.78108544  1.0
  C  C30  1  0.29974879  0.89520557  0.89751318  1.0
  C  C31  1  0.35282727  0.76659926  0.61015764  1.0
  C  C32  1  0.28247228  0.94740070  0.75987996  1.0
  C  C33  1  0.32199509  0.84164034  0.80445512  1.0
  C  C34  1  0.40217133  0.87176322  0.72752754  1.0
  C  C35  1  0.38308678  0.38986377  0.58271236  1.0
  C  C36  1  0.33230913  0.81132040  0.70448570  1.0
  C  C37  1  0.44053184  0.76808756  0.77050463  1.0
  C  C38  1  0.37135213  0.70689485  0.74871131  1.0
  C  C39  1  0.31258994  0.86621422  0.85493131  1.0
  C  C40  1  0.34067835  0.79034599  0.65354659  1.0
  C  C41  1  0.93286970  0.30470404  0.72693540  1.0
  C  C42  1  0.87845968  0.41512034  0.75945509  1.0
  C  C43  1  0.89394159  0.31656042  0.89882033  1.0
  C  C44  1  0.76140026  0.36065355  0.61236845  1.0
  C  C45  1  0.90170876  0.22485094  0.77080751  1.0
  C  C46  1  0.38325613  0.71707697  0.56219686  1.0
  C  C47  1  0.84818312  0.33516642  0.80474189  1.0
  C  C48  1  0.77353222  0.26467397  0.75200495  1.0
  C  C49  1  0.80381432  0.34469396  0.70672392  1.0
  C  C50  1  0.71907156  0.37522327  0.78458680  1.0
  C  C51  1  0.75023666  0.45511590  0.74060832  1.0
  C  C52  1  0.87102341  0.32733620  0.85532576  1.0
  C  C53  1  0.78214022  0.35142568  0.65608448  1.0
  C  C54  1  0.23490205  0.40824398  0.27190015  1.0
  C  C55  1  0.32439632  0.42669699  0.22812398  1.0
  C  C56  1  0.31651818  0.29397686  0.11019343  1.0
  C  C57  1  0.71594252  0.38704933  0.42234043  1.0
  C  C58  1  0.36173618  0.35279002  0.39866700  1.0
  C  C59  1  0.24816806  0.29209596  0.24984559  1.0
  C  C60  1  0.33785187  0.30825060  0.20467804  1.0
  C  C61  1  0.35901976  0.21234210  0.28109323  1.0
  C  C62  1  0.34566453  0.32952517  0.30450820  1.0
  C  C63  1  0.44824835  0.23006766  0.23748583  1.0
  C  C64  1  0.43571593  0.34591927  0.25955552  1.0
  C  C65  1  0.32839500  0.30045559  0.15375655  1.0
  C  C66  1  0.35340775  0.34117291  0.35527005  1.0
  C  C67  1  0.29824887  0.90377780  0.13689521  1.0
  C  C68  1  0.38527015  0.37974529  0.44510820  1.0
  C  C69  1  0.31125205  0.87605457  0.18173395  1.0
  C  C70  1  0.32412060  0.84710249  0.23087812  1.0
  C  C71  1  0.33474536  0.82236491  0.27631059  1.0
  C  C72  1  0.34771885  0.79306142  0.32546392  1.0
  C  C73  1  0.36013455  0.76479899  0.37039306  1.0
  C  C74  1  0.89801683  0.30913860  0.13763368  1.0
  C  C75  1  0.87036388  0.31981311  0.18264199  1.0
  C  C76  1  0.84281911  0.32991288  0.23199577  1.0
  C  C77  1  0.82025728  0.33739928  0.27765754  1.0
  C  C78  1  0.79335387  0.34771074  0.32702244  1.0
  C  C79  1  0.38741417  0.71380069  0.42066920  1.0
  C  C80  1  0.76682546  0.35868057  0.37208172  1.0
  C  C81  1  0.27157242  0.94827551  0.94472640  1.0
  C  C82  1  0.28193207  0.27807737  0.92640274  1.0
  C  C83  1  0.94439742  0.28630238  0.94640646  1.0
  C  C84  1  0.27150718  0.95094948  0.08624538  1.0
  C  C85  1  0.28822565  0.27337154  0.06341212  1.0
  C  C86  1  0.94948561  0.28071275  0.08741494  1.0
  C  C87  1  0.30931036  0.30804713  0.87445030  1.0
  C  C88  1  0.32137107  0.32415966  0.82859550  1.0
  C  C89  1  0.33290909  0.33929480  0.77836364  1.0
  C  C90  1  0.30761605  0.53690508  0.19942255  1.0
  C  C91  1  0.23460720  0.07217872  0.76730095  1.0
  N  N92  1  0.29470312  0.62611484  0.17492536  1.0
  N  N93  1  0.19274990  0.17452991  0.77424063  1.0
  O  O94  1  0.48833677  0.69447953  0.54173711  1.0
  O  O95  1  0.48396975  0.30563272  0.46423862  1.0
  O  O96  1  0.30937338  0.47904061  0.46292593  1.0
  O  O97  1  0.30610639  0.68685549  0.44720141  1.0
  O  O98  1  0.50373234  0.50407005  0.49820615  1.0
  O  O99  1  0.96220016  0.18402214  0.96845281  1.0
  O  O100  1  0.16672284  0.97404229  0.96604577  1.0
  O  O101  1  0.35533567  0.96941250  0.95998327  1.0
  O  O102  1  0.35448305  0.17568158  0.94575722  1.0
  O  O103  1  0.18440713  0.35383342  0.94797799  1.0
  O  O104  1  0.97244143  0.36477463  0.96214475  1.0
  O  O105  1  0.69479590  0.48935985  0.54162132  1.0
  O  O106  1  0.96681866  0.17910136  0.07518443  1.0
  O  O107  1  0.16788475  0.97260107  0.07398783  1.0
  O  O108  1  0.35515763  0.97146362  0.05827998  1.0
  O  O109  1  0.36106337  0.17558640  0.04366530  1.0
  O  O110  1  0.18868297  0.35105970  0.04606878  1.0
  O  O111  1  0.97743534  0.36027012  0.06046716  1.0
  O  O112  1  0.15887215  0.16100401  0.01015973  1.0
  O  O113  1  0.69236764  0.30499542  0.54816657  1.0
  O  O114  1  0.48181012  0.31309113  0.56228978  1.0
  O  O115  1  0.30744658  0.48733414  0.56116561  1.0
  O  O116  1  0.30185082  0.69520505  0.54521501  1.0
  O  O117  1  0.48921283  0.69570623  0.43401757  1.0
  O  O118  1  0.69579768  0.48993284  0.43427941  1.0
  O  O119  1  0.69110137  0.30620226  0.44981806  1.0
  O  O120  1  0.68120589  0.68116794  0.47965182  1.0
  O  O121  1  0.97438207  0.99094037  0.03280193  1.0
