# generated using pymatgen
data_CuH8C9O5
_symmetry_space_group_name_H-M   'P 1'
_cell_length_a   6.82487557
_cell_length_b   19.18143418
_cell_length_c   19.18070737
_cell_angle_alpha   89.99988394
_cell_angle_beta   90.00658668
_cell_angle_gamma   89.99318076
_symmetry_Int_Tables_number   1
_chemical_formula_structural   CuH8C9O5
_chemical_formula_sum   'Cu8 H64 C72 O40'
_cell_volume   2510.96365946
_cell_formula_units_Z   8
loop_
 _symmetry_equiv_pos_site_id
 _symmetry_equiv_pos_as_xyz
  1  'x, y, z'
loop_
 _atom_site_type_symbol
 _atom_site_label
 _atom_site_symmetry_multiplicity
 _atom_site_fract_x
 _atom_site_fract_y
 _atom_site_fract_z
 _atom_site_occupancy
  Cu  Cu0  1  0.64037470  0.46938393  0.96947763  1.0
  Cu  Cu1  1  0.64035086  0.46942661  0.53056994  1.0
  Cu  Cu2  1  0.64033946  0.03057420  0.96944054  1.0
  Cu  Cu3  1  0.35962786  0.53061724  0.03052104  1.0
  Cu  Cu4  1  0.64037426  0.03052877  0.53060688  1.0
  Cu  Cu5  1  0.35964990  0.96942697  0.03056178  1.0
  Cu  Cu6  1  0.35965169  0.53057874  0.46943864  1.0
  Cu  Cu7  1  0.35963269  0.96947032  0.46938971  1.0
  H  H8  1  0.52882357  0.75003052  0.01189984  1.0
  H  H9  1  0.52871119  0.51184841  0.24997785  1.0
  H  H10  1  0.52882222  0.98810164  0.24996903  1.0
  H  H11  1  0.47128697  0.48815172  0.75002447  1.0
  H  H12  1  0.52872302  0.75002066  0.48815235  1.0
  H  H13  1  0.47118337  0.24997430  0.98810039  1.0
  H  H14  1  0.47128539  0.24997634  0.51185154  1.0
  H  H15  1  0.47117301  0.01189380  0.75002965  1.0
  H  H16  1  0.03082649  0.63801465  0.93430359  1.0
  H  H17  1  0.03082247  0.43432139  0.36199174  1.0
  H  H18  1  0.03084787  0.06569537  0.13803010  1.0
  H  H19  1  0.96917368  0.56567539  0.86196374  1.0
  H  H20  1  0.03082498  0.86195865  0.56568192  1.0
  H  H21  1  0.96915774  0.13803299  0.06569062  1.0
  H  H22  1  0.96918418  0.36198459  0.43432018  1.0
  H  H23  1  0.96916255  0.93431124  0.63800812  1.0
  H  H24  1  0.96916874  0.36198340  0.06569456  1.0
  H  H25  1  0.96919181  0.56567510  0.63801371  1.0
  H  H26  1  0.96913856  0.93431206  0.86197171  1.0
  H  H27  1  0.03082448  0.43432318  0.13804119  1.0
  H  H28  1  0.96918197  0.13804200  0.43431623  1.0
  H  H29  1  0.03085213  0.86196714  0.93430284  1.0
  H  H30  1  0.03082424  0.63801398  0.56568528  1.0
  H  H31  1  0.03083267  0.06568837  0.36198951  1.0
  H  H32  1  0.33156825  0.79657621  0.90306101  1.0
  H  H33  1  0.33157685  0.40306724  0.20342663  1.0
  H  H34  1  0.33160776  0.09694978  0.29660963  1.0
  H  H35  1  0.66839164  0.59693247  0.70339144  1.0
  H  H36  1  0.33161213  0.70339527  0.59693840  1.0
  H  H37  1  0.66839824  0.29660674  0.09693965  1.0
  H  H38  1  0.66842794  0.20342778  0.40307027  1.0
  H  H39  1  0.66841567  0.90306172  0.79657956  1.0
  H  H40  1  0.66842844  0.20342132  0.09693506  1.0
  H  H41  1  0.66842131  0.59693081  0.79657465  1.0
  H  H42  1  0.66838453  0.90305765  0.70338696  1.0
  H  H43  1  0.33161530  0.40306401  0.29660880  1.0
  H  H44  1  0.66839335  0.29660486  0.40306653  1.0
  H  H45  1  0.33160431  0.70338974  0.90305798  1.0
  H  H46  1  0.33157754  0.79657495  0.59693466  1.0
  H  H47  1  0.33156784  0.09694414  0.20342016  1.0
  H  H48  1  0.22168881  0.74998199  0.83340548  1.0
  H  H49  1  0.22180936  0.33339381  0.25001918  1.0
  H  H50  1  0.22168626  0.16659815  0.25001622  1.0
  H  H51  1  0.77818587  0.66666667  0.74998001  1.0
  H  H52  1  0.22181431  0.74998372  0.66661080  1.0
  H  H53  1  0.77831668  0.25001605  0.16659267  1.0
  H  H54  1  0.77819263  0.25001849  0.33333333  1.0
  H  H55  1  0.77830456  0.83340980  0.74998141  1.0
  H  H56  1  0.94676636  0.38993924  0.89175798  1.0
  H  H57  1  0.94688626  0.39072257  0.60910469  1.0
  H  H58  1  0.94686139  0.10920840  0.89081096  1.0
  H  H59  1  0.05323180  0.61005099  0.10825686  1.0
  H  H60  1  0.94677382  0.10824682  0.61005697  1.0
  H  H61  1  0.05313970  0.89073960  0.10912984  1.0
  H  H62  1  0.05310604  0.60915818  0.39076416  1.0
  H  H63  1  0.05323461  0.89169544  0.38999383  1.0
  H  H64  1  0.03534568  0.44391122  0.94514290  1.0
  H  H65  1  0.03537657  0.44443973  0.55543881  1.0
  H  H66  1  0.03535469  0.05552629  0.94452913  1.0
  H  H67  1  0.96465394  0.55609151  0.05485891  1.0
  H  H68  1  0.03535081  0.05489899  0.55604607  1.0
  H  H69  1  0.96464640  0.94445299  0.05544764  1.0
  H  H70  1  0.96461719  0.55550514  0.44450147  1.0
  H  H71  1  0.96464882  0.94507663  0.44396721  1.0
  C  C72  1  0.67468479  0.75002174  0.98911810  1.0
  C  C73  1  0.67458432  0.48906234  0.24998504  1.0
  C  C74  1  0.67468166  0.01088329  0.24997875  1.0
  C  C75  1  0.32542117  0.51093779  0.75001677  1.0
  C  C76  1  0.67459162  0.75001337  0.51093657  1.0
  C  C77  1  0.32532216  0.24998047  0.01088162  1.0
  C  C78  1  0.32541093  0.24998416  0.48906628  1.0
  C  C79  1  0.32530917  0.98911372  0.75002045  1.0
  C  C80  1  0.76914876  0.68713759  0.97388448  1.0
  C  C81  1  0.76906318  0.47381480  0.31286997  1.0
  C  C82  1  0.76912052  0.02617947  0.18711124  1.0
  C  C83  1  0.23098599  0.52625245  0.81288997  1.0
  C  C84  1  0.76901756  0.81288517  0.52625279  1.0
  C  C85  1  0.23088211  0.18711594  0.02617219  1.0
  C  C86  1  0.23093179  0.31286729  0.47381927  1.0
  C  C87  1  0.23084564  0.97388335  0.68713398  1.0
  C  C88  1  0.23085526  0.31286514  0.02611680  1.0
  C  C89  1  0.23093937  0.52619054  0.68713236  1.0
  C  C90  1  0.23087031  0.97382327  0.81288587  1.0
  C  C91  1  0.76901802  0.47374820  0.18711444  1.0
  C  C92  1  0.23098939  0.18711392  0.47374693  1.0
  C  C93  1  0.76912484  0.81288732  0.97382700  1.0
  C  C94  1  0.76906930  0.68713075  0.52619087  1.0
  C  C95  1  0.76914812  0.02612043  0.31286417  1.0
  C  C96  1  0.95723527  0.68741672  0.94421998  1.0
  C  C97  1  0.95718433  0.44416339  0.31258867  1.0
  C  C98  1  0.95723041  0.05582133  0.18742007  1.0
  C  C99  1  0.04285742  0.55587624  0.81257327  1.0
  C  C100  1  0.95714303  0.81257095  0.55587390  1.0
  C  C101  1  0.04277351  0.18742280  0.05581427  1.0
  C  C102  1  0.04281374  0.31258250  0.44416531  1.0
  C  C103  1  0.04274903  0.94422167  0.68741169  1.0
  C  C104  1  0.04277021  0.31258393  0.05578130  1.0
  C  C105  1  0.04282261  0.55584039  0.68741626  1.0
  C  C106  1  0.04275748  0.94418453  0.81257652  1.0
  C  C107  1  0.95713780  0.44412546  0.18743062  1.0
  C  C108  1  0.04286245  0.18742971  0.44412425  1.0
  C  C109  1  0.95723050  0.81257785  0.94418284  1.0
  C  C110  1  0.95718442  0.68741503  0.55584379  1.0
  C  C111  1  0.95723007  0.05578523  0.31258750  1.0
  C  C112  1  0.05170970  0.74999072  0.92777391  1.0
  C  C113  1  0.05166890  0.42774386  0.25001143  1.0
  C  C114  1  0.05171062  0.07223134  0.25000918  1.0
  C  C115  1  0.94833804  0.57225783  0.74999194  1.0
  C  C116  1  0.05166414  0.74999212  0.57226095  1.0
  C  C117  1  0.94829285  0.25000837  0.07222373  1.0
  C  C118  1  0.94833988  0.25000905  0.42774398  1.0
  C  C119  1  0.94827581  0.92777296  0.74998845  1.0
  C  C120  1  0.24545371  0.74998456  0.89027718  1.0
  C  C121  1  0.24547503  0.39026758  0.25001648  1.0
  C  C122  1  0.24545442  0.10972703  0.25001416  1.0
  C  C123  1  0.75452606  0.60973360  0.74998480  1.0
  C  C124  1  0.24547591  0.74998797  0.60973434  1.0
  C  C125  1  0.75455177  0.25001297  0.10971993  1.0
  C  C126  1  0.75452811  0.25001320  0.39026954  1.0
  C  C127  1  0.75453347  0.89027779  0.74998556  1.0
  C  C128  1  0.66688469  0.61928456  0.98589191  1.0
  C  C129  1  0.66683583  0.48577273  0.38073658  1.0
  C  C130  1  0.66687821  0.01423787  0.11924461  1.0
  C  C131  1  0.33318832  0.51437050  0.88077644  1.0
  C  C132  1  0.66682077  0.88076705  0.51435794  1.0
  C  C133  1  0.33312487  0.11925181  0.01421807  1.0
  C  C134  1  0.33315137  0.38073230  0.48579062  1.0
  C  C135  1  0.33311149  0.98588869  0.61927830  1.0
  C  C136  1  0.33311347  0.38071870  0.01411093  1.0
  C  C137  1  0.33316086  0.51423105  0.61926418  1.0
  C  C138  1  0.33311555  0.98576330  0.88075458  1.0
  C  C139  1  0.66681276  0.48562963  0.11922849  1.0
  C  C140  1  0.33318618  0.11922943  0.48563917  1.0
  C  C141  1  0.66687768  0.88074989  0.98577799  1.0
  C  C142  1  0.66685118  0.61926679  0.51421953  1.0
  C  C143  1  0.66688373  0.01410936  0.38071829  1.0
  O  O144  1  0.75641578  0.56455788  0.96431848  1.0
  O  O145  1  0.75606602  0.46395021  0.43542359  1.0
  O  O146  1  0.75605273  0.03608841  0.06456752  1.0
  O  O147  1  0.24421454  0.53639363  0.93541439  1.0
  O  O148  1  0.75581169  0.93541694  0.53634430  1.0
  O  O149  1  0.24388020  0.06456851  0.03601216  1.0
  O  O150  1  0.24386678  0.43542773  0.46401738  1.0
  O  O151  1  0.24361747  0.96428225  0.56455796  1.0
  O  O152  1  0.24358530  0.43544433  0.03568489  1.0
  O  O153  1  0.24399513  0.53609267  0.56458082  1.0
  O  O154  1  0.24391318  0.96392736  0.93543168  1.0
  O  O155  1  0.75578361  0.46360859  0.06458741  1.0
  O  O156  1  0.24419525  0.06458684  0.46364082  1.0
  O  O157  1  0.75615166  0.93543840  0.96400372  1.0
  O  O158  1  0.75606838  0.56457605  0.53602874  1.0
  O  O159  1  0.75636310  0.03572674  0.43543810  1.0
  O  O160  1  0.49968921  0.62039015  0.01551499  1.0
  O  O161  1  0.49981373  0.51555508  0.37969771  1.0
  O  O162  1  0.49991643  0.98443321  0.12028813  1.0
  O  O163  1  0.50001671  0.48442707  0.87978879  1.0
  O  O164  1  0.49995154  0.87977330  0.48444322  1.0
  O  O165  1  0.50013827  0.12030247  0.98444588  1.0
  O  O166  1  0.50023191  0.37968188  0.51553487  1.0
  O  O167  1  0.50027731  0.01553382  0.62037756  1.0
  O  O168  1  0.50031481  0.37961519  0.98448681  1.0
  O  O169  1  0.50014341  0.48442003  0.62030462  1.0
  O  O170  1  0.50008759  0.01555806  0.87971210  1.0
  O  O171  1  0.49999023  0.51557410  0.12021301  1.0
  O  O172  1  0.50004223  0.12022527  0.51556276  1.0
  O  O173  1  0.49985109  0.87969662  0.01553402  1.0
  O  O174  1  0.49982338  0.62031460  0.48443878  1.0
  O  O175  1  0.49973696  0.98445224  0.37962215  1.0
  O  O176  1  0.91380086  0.42646428  0.92461268  1.0
  O  O177  1  0.91367427  0.42562477  0.57456615  1.0
  O  O178  1  0.91364287  0.07445150  0.92549100  1.0
  O  O179  1  0.08620169  0.57354732  0.07538078  1.0
  O  O180  1  0.91379114  0.07536263  0.57356081  1.0
  O  O181  1  0.08635822  0.92559920  0.07455721  1.0
  O  O182  1  0.08632242  0.57450466  0.42555192  1.0
  O  O183  1  0.08622019  0.92467973  0.42639460  1.0
