# generated using pymatgen
data_CdH7C9(NO)3
_symmetry_space_group_name_H-M   'P 1'
_cell_length_a   5.82665465
_cell_length_b   20.86378413
_cell_length_c   20.86322443
_cell_angle_alpha   90.00313100
_cell_angle_beta   89.99999153
_cell_angle_gamma   89.99867245
_symmetry_Int_Tables_number   1
_chemical_formula_structural   CdH7C9(NO)3
_chemical_formula_sum   'Cd8 H56 C72 N24 O24'
_cell_volume   2536.26008890
_cell_formula_units_Z   8
loop_
 _symmetry_equiv_pos_site_id
 _symmetry_equiv_pos_as_xyz
  1  'x, y, z'
loop_
 _atom_site_type_symbol
 _atom_site_label
 _atom_site_symmetry_multiplicity
 _atom_site_fract_x
 _atom_site_fract_y
 _atom_site_fract_z
 _atom_site_occupancy
  Cd  Cd0  1  0.00986129  0.26614024  0.33091733  1.0
  Cd  Cd1  1  0.00987321  0.23386702  0.16908077  1.0
  Cd  Cd2  1  0.50987039  0.33092163  0.23385937  1.0
  Cd  Cd3  1  0.50985130  0.16908398  0.26613659  1.0
  Cd  Cd4  1  0.99013471  0.73386455  0.66908116  1.0
  Cd  Cd5  1  0.99013996  0.76614352  0.83092060  1.0
  Cd  Cd6  1  0.49013419  0.66908076  0.76613865  1.0
  Cd  Cd7  1  0.49013440  0.83091697  0.73386094  1.0
  H  H8  1  0.98239039  0.14738437  0.27501751  1.0
  H  H9  1  0.98241219  0.35262769  0.22498450  1.0
  H  H10  1  0.48240968  0.27501416  0.35262139  1.0
  H  H11  1  0.48240914  0.22498709  0.14737270  1.0
  H  H12  1  0.01758329  0.85262426  0.72498673  1.0
  H  H13  1  0.01759926  0.64737901  0.77501927  1.0
  H  H14  1  0.51759661  0.72497960  0.64737663  1.0
  H  H15  1  0.51758686  0.77501674  0.85262484  1.0
  H  H16  1  0.10776561  0.99364848  0.66848749  1.0
  H  H17  1  0.10778802  0.50634438  0.83150161  1.0
  H  H18  1  0.60778275  0.66848340  0.50634841  1.0
  H  H19  1  0.60784388  0.83151690  0.99367067  1.0
  H  H20  1  0.89218919  0.00636062  0.33151196  1.0
  H  H21  1  0.89221828  0.49364268  0.16847867  1.0
  H  H22  1  0.39222698  0.33150940  0.49367405  1.0
  H  H23  1  0.39222592  0.16848357  0.00634125  1.0
  H  H24  1  0.45784217  0.99370949  0.57181379  1.0
  H  H25  1  0.45785764  0.50628532  0.92817722  1.0
  H  H26  1  0.95783303  0.57182814  0.50630035  1.0
  H  H27  1  0.95788487  0.92815687  0.99369811  1.0
  H  H28  1  0.54210749  0.00630824  0.42818710  1.0
  H  H29  1  0.54213664  0.49369023  0.07180163  1.0
  H  H30  1  0.04214409  0.42817953  0.49369719  1.0
  H  H31  1  0.04214546  0.07182203  0.00631333  1.0
  H  H32  1  0.58562682  0.08339523  0.50244165  1.0
  H  H33  1  0.58565340  0.41660572  0.99754968  1.0
  H  H34  1  0.08562121  0.50245334  0.41661554  1.0
  H  H35  1  0.08561896  0.99754186  0.08338052  1.0
  H  H36  1  0.41434172  0.91662202  0.49755972  1.0
  H  H37  1  0.41437006  0.58337415  0.00242677  1.0
  H  H38  1  0.91440224  0.49755576  0.58338056  1.0
  H  H39  1  0.91438905  0.00243849  0.91663476  1.0
  H  H40  1  0.23944438  0.08392616  0.59898930  1.0
  H  H41  1  0.23947114  0.41606565  0.90100203  1.0
  H  H42  1  0.73945402  0.59897848  0.41607287  1.0
  H  H43  1  0.73947478  0.90101864  0.08394145  1.0
  H  H44  1  0.76050700  0.91608534  0.40101543  1.0
  H  H45  1  0.76055404  0.58392140  0.09898017  1.0
  H  H46  1  0.26055914  0.40102247  0.58394001  1.0
  H  H47  1  0.26056413  0.09897992  0.91607095  1.0
  H  H48  1  0.39411362  0.22983371  0.45413320  1.0
  H  H49  1  0.39412361  0.27015687  0.04586053  1.0
  H  H50  1  0.89411410  0.45413625  0.27016308  1.0
  H  H51  1  0.89412233  0.04586466  0.22983426  1.0
  H  H52  1  0.60585835  0.77017635  0.54586626  1.0
  H  H53  1  0.60589299  0.72983019  0.95412886  1.0
  H  H54  1  0.10584929  0.54587238  0.72982679  1.0
  H  H55  1  0.10592001  0.95412335  0.77017334  1.0
  H  H56  1  0.76699651  0.13444508  0.42274435  1.0
  H  H57  1  0.76702715  0.36555995  0.07725269  1.0
  H  H58  1  0.26699294  0.42274414  0.36555902  1.0
  H  H59  1  0.26699547  0.07726207  0.13443920  1.0
  H  H60  1  0.23298061  0.86556115  0.57725846  1.0
  H  H61  1  0.23298945  0.63443286  0.92273095  1.0
  H  H62  1  0.73299619  0.57726784  0.63444187  1.0
  H  H63  1  0.73302970  0.92273314  0.86557655  1.0
  C  C64  1  0.69596651  0.93097791  0.66274519  1.0
  C  C65  1  0.69597571  0.56901342  0.83724405  1.0
  C  C66  1  0.19596432  0.66275150  0.56902012  1.0
  C  C67  1  0.19599758  0.83724820  0.93098612  1.0
  C  C68  1  0.30399688  0.06903215  0.33725762  1.0
  C  C69  1  0.30403574  0.43097507  0.16274198  1.0
  C  C70  1  0.80402310  0.33724850  0.43098653  1.0
  C  C71  1  0.80404133  0.16275179  0.06902148  1.0
  C  C72  1  0.99423250  0.01322309  0.63195264  1.0
  C  C73  1  0.99425078  0.48676792  0.86803381  1.0
  C  C74  1  0.49423367  0.63195377  0.48677605  1.0
  C  C75  1  0.49428507  0.86804683  0.01323621  1.0
  C  C76  1  0.00571888  0.98678985  0.36804969  1.0
  C  C77  1  0.00576067  0.51321913  0.13194647  1.0
  C  C78  1  0.50577606  0.36804767  0.51323682  1.0
  C  C79  1  0.50576756  0.13194838  0.98677283  1.0
  C  C80  1  0.77528442  0.98668121  0.62334766  1.0
  C  C81  1  0.77529257  0.51331167  0.87664291  1.0
  C  C82  1  0.27528230  0.62335353  0.51332180  1.0
  C  C83  1  0.27533324  0.87664245  0.98668720  1.0
  C  C84  1  0.22467382  0.01333268  0.37665515  1.0
  C  C85  1  0.22471202  0.48667778  0.12334457  1.0
  C  C86  1  0.72470855  0.37664742  0.48668868  1.0
  C  C87  1  0.72471081  0.12335275  0.01332184  1.0
  C  C88  1  0.63033714  0.01294140  0.57669441  1.0
  C  C89  1  0.63035287  0.48705291  0.92329590  1.0
  C  C90  1  0.13033014  0.57670370  0.48706478  1.0
  C  C91  1  0.13037132  0.92329252  0.01293888  1.0
  C  C92  1  0.36961080  0.98707537  0.42331080  1.0
  C  C93  1  0.36965343  0.51293031  0.07668774  1.0
  C  C94  1  0.86966243  0.42330300  0.51293515  1.0
  C  C95  1  0.86966244  0.07669502  0.98707495  1.0
  C  C96  1  0.70303601  0.06277472  0.53740462  1.0
  C  C97  1  0.70305476  0.43721826  0.96258271  1.0
  C  C98  1  0.20303030  0.53741810  0.43722846  1.0
  C  C99  1  0.20305304  0.96258398  0.06277031  1.0
  C  C100  1  0.29692738  0.93724349  0.46260154  1.0
  C  C101  1  0.29696184  0.56276257  0.03739374  1.0
  C  C102  1  0.79696570  0.46259675  0.56276956  1.0
  C  C103  1  0.79696527  0.03739972  0.93724544  1.0
  C  C104  1  0.92644341  0.08620857  0.54447476  1.0
  C  C105  1  0.92646293  0.41377755  0.95550747  1.0
  C  C106  1  0.42643208  0.54448182  0.41378862  1.0
  C  C107  1  0.42646167  0.95552395  0.08621271  1.0
  C  C108  1  0.07350110  0.91381060  0.45553189  1.0
  C  C109  1  0.07355710  0.58620040  0.04446610  1.0
  C  C110  1  0.57357078  0.45553303  0.58620987  1.0
  C  C111  1  0.57356694  0.04446263  0.91380448  1.0
  C  C112  1  0.06997337  0.06299241  0.59296359  1.0
  C  C113  1  0.06999293  0.43699579  0.90702127  1.0
  C  C114  1  0.56996985  0.59296438  0.43700348  1.0
  C  C115  1  0.57000630  0.90703920  0.06300532  1.0
  C  C116  1  0.92997972  0.93702292  0.40704257  1.0
  C  C117  1  0.93002710  0.56298743  0.09295374  1.0
  C  C118  1  0.43002786  0.40704520  0.56300364  1.0
  C  C119  1  0.43002917  0.09295169  0.93700756  1.0
  C  C120  1  0.24473405  0.19928427  0.46119540  1.0
  C  C121  1  0.24474169  0.30070944  0.03879902  1.0
  C  C122  1  0.74472266  0.46119348  0.30071516  1.0
  C  C123  1  0.74472825  0.03880768  0.19928862  1.0
  C  C124  1  0.75524479  0.80072436  0.53880501  1.0
  C  C125  1  0.75527147  0.69928288  0.96118893  1.0
  C  C126  1  0.25525274  0.53881562  0.69928382  1.0
  C  C127  1  0.25530722  0.96118321  0.80071850  1.0
  C  C128  1  0.92536037  0.15213451  0.44401357  1.0
  C  C129  1  0.92537847  0.34786500  0.05597989  1.0
  C  C130  1  0.42534928  0.44402164  0.34786837  1.0
  C  C131  1  0.42536119  0.05598672  0.15213107  1.0
  C  C132  1  0.07460817  0.84787555  0.55598780  1.0
  C  C133  1  0.07463298  0.65212541  0.94400470  1.0
  C  C134  1  0.57463128  0.55599465  0.65212677  1.0
  C  C135  1  0.57466570  0.94400465  0.84788276  1.0
  N  N136  1  0.01199804  0.13300178  0.50134152  1.0
  N  N137  1  0.01200635  0.36698873  0.99864678  1.0
  N  N138  1  0.51198390  0.50134709  0.36699825  1.0
  N  N139  1  0.51198228  0.99865977  0.13300392  1.0
  N  N140  1  0.98796363  0.86701355  0.49866416  1.0
  N  N141  1  0.98801024  0.63299736  0.00133494  1.0
  N  N142  1  0.48801381  0.49866393  0.63300216  1.0
  N  N143  1  0.48803088  0.00133160  0.86700944  1.0
  N  N144  1  0.21733276  0.16288235  0.51263405  1.0
  N  N145  1  0.21734468  0.33710464  0.98735492  1.0
  N  N146  1  0.71731484  0.51263654  0.33711895  1.0
  N  N147  1  0.71731066  0.98736582  0.16288533  1.0
  N  N148  1  0.78263407  0.83713203  0.48737067  1.0
  N  N149  1  0.78268564  0.66288241  0.01262824  1.0
  N  N150  1  0.28269146  0.48737304  0.66288338  1.0
  N  N151  1  0.28271623  0.01262507  0.83712323  1.0
  N  N152  1  0.06931445  0.19416702  0.41783300  1.0
  N  N153  1  0.06933219  0.30583411  0.08216502  1.0
  N  N154  1  0.56930702  0.41783755  0.30583401  1.0
  N  N155  1  0.56931823  0.08216719  0.19416475  1.0
  N  N156  1  0.93066095  0.80583873  0.58216406  1.0
  N  N157  1  0.93067239  0.69415870  0.91782437  1.0
  N  N158  1  0.43064608  0.58217491  0.69415922  1.0
  N  N159  1  0.43071553  0.91782370  0.80584573  1.0
  O  O160  1  0.81841963  0.91291539  0.71004474  1.0
  O  O161  1  0.81843499  0.58707517  0.78994577  1.0
  O  O162  1  0.31841801  0.71005286  0.58707421  1.0
  O  O163  1  0.31843741  0.78994510  0.91292802  1.0
  O  O164  1  0.18155577  0.08709276  0.28995328  1.0
  O  O165  1  0.18159190  0.41291380  0.21004362  1.0
  O  O166  1  0.68155739  0.28995001  0.41293147  1.0
  O  O167  1  0.68159635  0.21005441  0.08707815  1.0
  O  O168  1  0.50656005  0.90369790  0.64754582  1.0
  O  O169  1  0.50655759  0.59629028  0.85244225  1.0
  O  O170  1  0.00656739  0.64755615  0.59630673  1.0
  O  O171  1  0.00658708  0.85244711  0.90370456  1.0
  O  O172  1  0.49339648  0.09631168  0.35245891  1.0
  O  O173  1  0.49344184  0.40369390  0.14753947  1.0
  O  O174  1  0.99341660  0.35244337  0.40369799  1.0
  O  O175  1  0.99344324  0.14755049  0.09630640  1.0
  O  O176  1  0.89327900  0.18598044  0.26370748  1.0
  O  O177  1  0.89330125  0.31403197  0.23628986  1.0
  O  O178  1  0.39329923  0.26371227  0.31402174  1.0
  O  O179  1  0.39330584  0.23629461  0.18597295  1.0
  O  O180  1  0.10670156  0.81402818  0.73629389  1.0
  O  O181  1  0.10669990  0.68597618  0.76371295  1.0
  O  O182  1  0.60670191  0.73629061  0.68597484  1.0
  O  O183  1  0.60670389  0.76370778  0.81402699  1.0
