# generated using pymatgen
data_Zn4H6C24S4O17F2
_symmetry_space_group_name_H-M   'P 1'
_cell_length_a   19.67676808
_cell_length_b   19.75304002
_cell_length_c   33.39166768
_cell_angle_alpha   78.94673351
_cell_angle_beta   79.17090258
_cell_angle_gamma   63.95122629
_symmetry_Int_Tables_number   1
_chemical_formula_structural   Zn4H6C24S4O17F2
_chemical_formula_sum   'Zn16 H24 C96 S16 O68 F8'
_cell_volume   11364.48335229
_cell_formula_units_Z   4
loop_
 _symmetry_equiv_pos_site_id
 _symmetry_equiv_pos_as_xyz
  1  'x, y, z'
loop_
 _atom_site_type_symbol
 _atom_site_label
 _atom_site_symmetry_multiplicity
 _atom_site_fract_x
 _atom_site_fract_y
 _atom_site_fract_z
 _atom_site_occupancy
  Zn  Zn0  1  0.05603173  0.40080508  0.47840465  1.0
  Zn  Zn1  1  0.98433509  0.48339378  0.56050345  1.0
  Zn  Zn2  1  0.05887314  0.56113735  0.48230422  1.0
  Zn  Zn3  1  0.90040036  0.55522195  0.47954093  1.0
  Zn  Zn4  1  0.69387892  0.34904240  0.27169798  1.0
  Zn  Zn5  1  0.69070434  0.18828577  0.26677570  1.0
  Zn  Zn6  1  0.76878887  0.26650217  0.18994489  1.0
  Zn  Zn7  1  0.84839786  0.19454761  0.27178160  1.0
  Zn  Zn8  1  0.26590621  0.76639024  0.68950430  1.0
  Zn  Zn9  1  0.34968061  0.69595896  0.77115119  1.0
  Zn  Zn10  1  0.19271356  0.84887145  0.77098428  1.0
  Zn  Zn11  1  0.19124742  0.68864955  0.76771835  1.0
  Zn  Zn12  1  0.55900688  0.06191618  0.98322584  1.0
  Zn  Zn13  1  0.40144032  0.05414149  0.97749443  1.0
  Zn  Zn14  1  0.55719470  0.90109014  0.97900579  1.0
  Zn  Zn15  1  0.48104394  0.98370745  0.06004048  1.0
  H  H16  1  0.74857691  0.45251912  0.35036492  1.0
  H  H17  1  0.00107793  0.29817021  0.39974103  1.0
  H  H18  1  0.20061237  0.70041838  0.59926761  1.0
  H  H19  1  0.04940621  0.54971177  0.65067564  1.0
  H  H20  1  0.65073960  0.15122487  0.04943184  1.0
  H  H21  1  0.59932218  0.09872590  0.20050547  1.0
  H  H22  1  0.29928554  0.00010175  0.89977103  1.0
  H  H23  1  0.45110943  0.74908591  0.84998574  1.0
  H  H24  1  0.32737312  0.54020512  0.39781180  1.0
  H  H25  1  0.42241387  0.20963319  0.35233429  1.0
  H  H26  1  0.75447677  0.54087764  0.68445613  1.0
  H  H27  1  0.49562603  0.70892541  0.56579845  1.0
  H  H28  1  0.04134860  0.25408018  0.68383856  1.0
  H  H29  1  0.20879851  0.99572645  0.56605230  1.0
  H  H30  1  0.74386660  0.81689601  0.38735382  1.0
  H  H31  1  0.00539337  0.93284834  0.36265590  1.0
  H  H32  1  0.70854345  0.49579544  0.06619083  1.0
  H  H33  1  0.54125784  0.75426877  0.18411489  1.0
  H  H34  1  0.14904986  0.07628182  0.21941594  1.0
  H  H35  1  0.10054118  0.17409372  0.03055688  1.0
  H  H36  1  0.50666176  0.43247785  0.86273582  1.0
  H  H37  1  0.24425427  0.31782151  0.88722670  1.0
  H  H38  1  0.92216246  0.70979281  0.85225077  1.0
  H  H39  1  0.82796717  0.04048970  0.89758087  1.0
  C  C40  1  0.06159751  0.31649648  0.56192284  1.0
  C  C41  1  0.06923281  0.57013206  0.56855968  1.0
  C  C42  1  0.18376531  0.44017904  0.43849657  1.0
  C  C43  1  0.93624766  0.68404895  0.43878404  1.0
  C  C44  1  0.93088611  0.43065240  0.43130399  1.0
  C  C45  1  0.81689079  0.56085043  0.56257664  1.0
  C  C46  1  0.56605940  0.30958432  0.31122030  1.0
  C  C47  1  0.68229843  0.18016676  0.18068554  1.0
  C  C48  1  0.68963636  0.43331005  0.18814238  1.0
  C  C49  1  0.93523153  0.18793773  0.18948995  1.0
  C  C50  1  0.81846693  0.31974514  0.31911293  1.0
  C  C51  1  0.81285230  0.06549991  0.31140544  1.0
  C  C52  1  0.43316413  0.68948564  0.68773245  1.0
  C  C53  1  0.31798834  0.82034423  0.81869939  1.0
  C  C54  1  0.18834159  0.93326004  0.68785680  1.0
  C  C55  1  0.06576940  0.80961115  0.81133189  1.0
  C  C56  1  0.18073839  0.67995801  0.68143713  1.0
  C  C57  1  0.31428205  0.56617221  0.81136700  1.0
  C  C58  1  0.43690152  0.18412940  0.93840786  1.0
  C  C59  1  0.43265499  0.92904724  0.93084052  1.0
  C  C60  1  0.68408793  0.94094228  0.93896442  1.0
  C  C61  1  0.56065948  0.81681431  0.06220376  1.0
  C  C62  1  0.56780257  0.06974671  0.06928095  1.0
  C  C63  1  0.31464617  0.06197740  0.06012442  1.0
  C  C64  1  0.90084618  0.40373695  0.40241770  1.0
  C  C65  1  0.84876926  0.34694926  0.34772676  1.0
  C  C66  1  0.82949878  0.44586945  0.38766771  1.0
  C  C67  1  0.92016917  0.30484022  0.36242716  1.0
  C  C68  1  0.80412972  0.41832064  0.36109567  1.0
  C  C69  1  0.94552283  0.33237572  0.38901341  1.0
  C  C70  1  0.09857506  0.59907860  0.59671021  1.0
  C  C71  1  0.15137456  0.65109461  0.65324418  1.0
  C  C72  1  0.14168144  0.64195020  0.58324120  1.0
  C  C73  1  0.10830867  0.60820478  0.66666667  1.0
  C  C74  1  0.16739261  0.66733481  0.61070308  1.0
  C  C75  1  0.08259064  0.58283225  0.63923786  1.0
  C  C76  1  0.30488665  0.45444725  0.40071549  1.0
  C  C77  1  0.44502510  0.29533098  0.34922242  1.0
  C  C78  1  0.25832164  0.41578912  0.41388436  1.0
  C  C79  1  0.49161650  0.33391683  0.33600291  1.0
  C  C80  1  0.37696746  0.33946623  0.37287275  1.0
  C  C81  1  0.37303812  0.41025525  0.37712141  1.0
  C  C82  1  0.72577386  0.57593580  0.63015935  1.0
  C  C83  1  0.52422068  0.67386929  0.62012650  1.0
  C  C84  1  0.74279414  0.58519086  0.58751701  1.0
  C  C85  1  0.50725258  0.66478758  0.66278370  1.0
  C  C86  1  0.60411636  0.64135953  0.60831175  1.0
  C  C87  1  0.64589362  0.60843366  0.64195637  1.0
  C  C88  1  0.07640305  0.22539426  0.62966017  1.0
  C  C89  1  0.17383377  0.02439144  0.62022641  1.0
  C  C90  1  0.08574389  0.24243392  0.58698036  1.0
  C  C91  1  0.16442467  0.00737695  0.66287792  1.0
  C  C92  1  0.14161787  0.10407415  0.60821380  1.0
  C  C93  1  0.10867070  0.14570569  0.64169537  1.0
  C  C94  1  0.84254791  0.80119929  0.39723821  1.0
  C  C95  1  0.90659265  0.94843202  0.35295802  1.0
  C  C96  1  0.91112880  0.75822024  0.41392871  1.0
  C  C97  1  0.83795609  0.99131439  0.33625572  1.0
  C  C98  1  0.90818934  0.87887274  0.37513558  1.0
  C  C99  1  0.84121655  0.87052523  0.37492484  1.0
  C  C100  1  0.65366641  0.15261587  0.15139953  1.0
  C  C101  1  0.59649617  0.09724118  0.09855151  1.0
  C  C102  1  0.66693834  0.16641469  0.10833690  1.0
  C  C103  1  0.58314335  0.08350239  0.14161303  1.0
  C  C104  1  0.63925263  0.13949686  0.08260949  1.0
  C  C105  1  0.61085985  0.11040542  0.16733064  1.0
  C  C106  1  0.67403142  0.52452731  0.12040030  1.0
  C  C107  1  0.57576187  0.72553806  0.12991604  1.0
  C  C108  1  0.66477152  0.50740711  0.16307030  1.0
  C  C109  1  0.58515264  0.74270818  0.08725273  1.0
  C  C110  1  0.60832063  0.64582248  0.14189150  1.0
  C  C111  1  0.64151201  0.60425461  0.10839593  1.0
  C  C112  1  0.08210676  0.12380387  0.17779817  1.0
  C  C113  1  0.16778916  0.12623182  0.07197644  1.0
  C  C114  1  0.00966359  0.16291600  0.16493025  1.0
  C  C115  1  0.24026037  0.08721399  0.08476269  1.0
  C  C116  1  0.11019605  0.13954672  0.10604022  1.0
  C  C117  1  0.13978576  0.11052769  0.14374928  1.0
  C  C118  1  0.34574960  0.84966873  0.84752876  1.0
  C  C119  1  0.40469584  0.89954217  0.90218688  1.0
  C  C120  1  0.30432467  0.92054282  0.86235367  1.0
  C  C121  1  0.44606089  0.82864521  0.88740332  1.0
  C  C122  1  0.33288473  0.94488534  0.88892720  1.0
  C  C123  1  0.41751736  0.80430048  0.86082554  1.0
  C  C124  1  0.40782107  0.44868012  0.85288719  1.0
  C  C125  1  0.34325600  0.30164986  0.89689489  1.0
  C  C126  1  0.33937863  0.49183582  0.83610360  1.0
  C  C127  1  0.41175366  0.25850207  0.91367522  1.0
  C  C128  1  0.34196279  0.37112774  0.87473231  1.0
  C  C129  1  0.40899225  0.37929392  0.87508918  1.0
  C  C130  1  0.94474741  0.79550324  0.84936408  1.0
  C  C131  1  0.80501842  0.95499917  0.90069383  1.0
  C  C132  1  0.99139199  0.83402379  0.83608249  1.0
  C  C133  1  0.75833143  0.91656095  0.91404856  1.0
  C  C134  1  0.87296807  0.91064253  0.87705135  1.0
  C  C135  1  0.87667950  0.83986345  0.87295101  1.0
  S  S136  1  0.29792775  0.32591687  0.39755371  1.0
  S  S137  1  0.45211838  0.42373647  0.35241389  1.0
  S  S138  1  0.66150915  0.63321514  0.56202753  1.0
  S  S139  1  0.58854965  0.61672250  0.68824580  1.0
  S  S140  1  0.13369072  0.16136055  0.56181731  1.0
  S  S141  1  0.11649883  0.08839730  0.68808464  1.0
  S  S142  1  0.97353971  0.80239586  0.40235662  1.0
  S  S143  1  0.77579738  0.94690819  0.34770419  1.0
  S  S144  1  0.61631853  0.58843885  0.18826224  1.0
  S  S145  1  0.63359486  0.66170751  0.06203310  1.0
  S  S146  1  0.01210970  0.18326761  0.11155827  1.0
  S  S147  1  0.23789046  0.06688648  0.13815940  1.0
  S  S148  1  0.27684642  0.44777815  0.84745129  1.0
  S  S149  1  0.47410616  0.30274259  0.90240242  1.0
  S  S150  1  0.95205550  0.92398916  0.85226918  1.0
  S  S151  1  0.79754344  0.82662931  0.89778121  1.0
  O  O152  1  0.00044608  0.49914856  0.50009946  1.0
  O  O153  1  0.07787325  0.31541838  0.52286202  1.0
  O  O154  1  0.03211981  0.53106515  0.58595326  1.0
  O  O155  1  0.15511821  0.50647496  0.44950153  1.0
  O  O156  1  0.02691310  0.37496311  0.58086892  1.0
  O  O157  1  0.15403540  0.39200514  0.44667059  1.0
  O  O158  1  0.08348694  0.58670473  0.53017617  1.0
  O  O159  1  0.00351550  0.65738713  0.44946383  1.0
  O  O160  1  0.88796446  0.49483349  0.44342468  1.0
  O  O161  1  0.88990422  0.65269967  0.44764141  1.0
  O  O162  1  0.99730071  0.38625538  0.44126922  1.0
  O  O163  1  0.87593408  0.52614682  0.58144004  1.0
  O  O164  1  0.81520115  0.57711643  0.52354239  1.0
  O  O165  1  0.74916289  0.25040243  0.25027475  1.0
  O  O166  1  0.59591601  0.35764926  0.30337334  1.0
  O  O167  1  0.66524874  0.16256130  0.21887717  1.0
  O  O168  1  0.72608312  0.37484050  0.16928530  1.0
  O  O169  1  0.59440860  0.24363031  0.29976598  1.0
  O  O170  1  0.67226711  0.43434021  0.22717276  1.0
  O  O171  1  0.72076460  0.21832495  0.16520303  1.0
  O  O172  1  0.87739442  0.22347792  0.16923721  1.0
  O  O173  1  0.86072059  0.25470631  0.30792515  1.0
  O  O174  1  0.93413795  0.17253047  0.22840461  1.0
  O  O175  1  0.75258945  0.36453942  0.30853376  1.0
  O  O176  1  0.74628890  0.09174317  0.29978925  1.0
  O  O177  1  0.85873487  0.09732213  0.30350177  1.0
  O  O178  1  0.25022782  0.75008420  0.74990418  1.0
  O  O179  1  0.37426558  0.72378193  0.66874741  1.0
  O  O180  1  0.36351543  0.75536576  0.80773385  1.0
  O  O181  1  0.17137481  0.93434655  0.72687690  1.0
  O  O182  1  0.43469353  0.67399952  0.72681288  1.0
  O  O183  1  0.22337495  0.87476558  0.66893525  1.0
  O  O184  1  0.25223313  0.86208002  0.80772237  1.0
  O  O185  1  0.09503774  0.85815152  0.80279573  1.0
  O  O186  1  0.16634645  0.66345475  0.71981358  1.0
  O  O187  1  0.09483396  0.74309651  0.80054288  1.0
  O  O188  1  0.21796986  0.71891092  0.66406089  1.0
  O  O189  1  0.36017446  0.59806818  0.80298398  1.0
  O  O190  1  0.24729041  0.59244608  0.80038145  1.0
  O  O191  1  0.50006060  0.00029730  0.99971126  1.0
  O  O192  1  0.50321622  0.15834962  0.95024722  1.0
  O  O193  1  0.38777576  0.99477889  0.94097964  1.0
  O  O194  1  0.65466770  0.89253117  0.94722014  1.0
  O  O195  1  0.39149529  0.15177147  0.94593984  1.0
  O  O196  1  0.65543096  0.00710445  0.95018414  1.0
  O  O197  1  0.49780804  0.88684733  0.94249917  1.0
  O  O198  1  0.57883310  0.81568809  0.02323270  1.0
  O  O199  1  0.52912497  0.03180079  0.08477118  1.0
  O  O200  1  0.52378085  0.87540086  0.08094417  1.0
  O  O201  1  0.58495542  0.08721793  0.03109258  1.0
  O  O202  1  0.31576515  0.07649252  0.02116716  1.0
  O  O203  1  0.37241826  0.02700356  0.08044155  1.0
  O  O204  1  0.28626375  0.52496476  0.40969588  1.0
  O  O205  1  0.46347724  0.22482357  0.34022498  1.0
  O  O206  1  0.77953946  0.54034004  0.65634395  1.0
  O  O207  1  0.47052644  0.70937130  0.59390493  1.0
  O  O208  1  0.04091099  0.27897391  0.65564773  1.0
  O  O209  1  0.20928112  0.97081140  0.59423999  1.0
  O  O210  1  0.78543849  0.77850297  0.40209415  1.0
  O  O211  1  0.96349097  0.97136848  0.34818726  1.0
  O  O212  1  0.70965155  0.47098286  0.09441208  1.0
  O  O213  1  0.54006716  0.77909357  0.15590006  1.0
  O  O214  1  0.09438109  0.10195519  0.21776880  1.0
  O  O215  1  0.15525346  0.14809248  0.03202324  1.0
  O  O216  1  0.46501440  0.47124852  0.84819043  1.0
  O  O217  1  0.28617161  0.27896069  0.90155416  1.0
  O  O218  1  0.96335310  0.72494538  0.84044239  1.0
  O  O219  1  0.78671598  0.02553165  0.90959968  1.0
  F  F220  1  0.78228474  0.51548054  0.39881142  1.0
  F  F221  1  0.96745326  0.23529605  0.35125502  1.0
  F  F222  1  0.16006764  0.66026728  0.54271406  1.0
  F  F223  1  0.08996127  0.58977671  0.70722196  1.0
  F  F224  1  0.70754092  0.20679059  0.09004736  1.0
  F  F225  1  0.54244223  0.04322489  0.15989197  1.0
  F  F226  1  0.23447572  0.96836657  0.85120827  1.0
  F  F227  1  0.51594798  0.78087786  0.89853180  1.0
