# generated using pymatgen
data_Zr6H22C52S10N2O37
_symmetry_space_group_name_H-M   'P 1'
_cell_length_a   16.44961232
_cell_length_b   16.44914449
_cell_length_c   16.45612636
_cell_angle_alpha   119.72027038
_cell_angle_beta   119.69665835
_cell_angle_gamma   88.85678908
_symmetry_Int_Tables_number   1
_chemical_formula_structural   Zr6H22C52S10N2O37
_chemical_formula_sum   'Zr6 H22 C52 S10 N2 O37'
_cell_volume   3205.31602470
_cell_formula_units_Z   1
loop_
 _symmetry_equiv_pos_site_id
 _symmetry_equiv_pos_as_xyz
  1  'x, y, z'
loop_
 _atom_site_type_symbol
 _atom_site_label
 _atom_site_symmetry_multiplicity
 _atom_site_fract_x
 _atom_site_fract_y
 _atom_site_fract_z
 _atom_site_occupancy
  Zr  Zr0  1  0.90315036  0.40254706  0.51413574  1.0
  Zr  Zr1  1  0.10266920  0.60210789  0.48956933  1.0
  Zr  Zr2  1  0.89354150  0.39237971  0.28972308  1.0
  Zr  Zr3  1  0.11178717  0.61084451  0.71251316  1.0
  Zr  Zr4  1  0.89324882  0.61066217  0.50083733  1.0
  Zr  Zr5  1  0.11152189  0.39247762  0.50115823  1.0
  H  H6  1  0.75277253  0.42210288  0.34439656  1.0
  H  H7  1  0.08202185  0.75190043  0.65847434  1.0
  H  H8  1  0.08159609  0.40998559  0.32627319  1.0
  H  H9  1  0.09454295  0.42290961  0.67758585  1.0
  H  H10  1  0.61199561  0.63835695  0.51274160  1.0
  H  H11  1  0.12719707  0.10048340  0.48951566  1.0
  H  H12  1  0.12523111  0.88266250  0.01469871  1.0
  H  H13  1  0.39700004  0.63715324  0.01431889  1.0
  H  H14  1  0.64369903  0.12749430  0.03225955  1.0
  H  H15  1  0.65487513  0.15008827  0.30768211  1.0
  H  H16  1  0.37717314  0.86229159  0.97374435  1.0
  H  H17  1  0.35480112  0.85052787  0.69811471  1.0
  H  H18  1  0.87547108  0.39033045  0.76789062  1.0
  H  H19  1  0.44960795  0.32354906  0.51264060  1.0
  H  H20  1  0.81394370  0.93941229  0.49278238  1.0
  H  H21  1  0.81359952  0.06466562  0.89368482  1.0
  H  H22  1  0.57770167  0.32530869  0.89165630  1.0
  H  H23  1  0.17355099  0.67992668  0.24741467  1.0
  H  H24  1  0.54947467  0.07568450  0.87143079  1.0
  H  H25  1  0.46234272  0.98079659  0.73890988  1.0
  H  H26  1  0.42906242  0.95722470  0.13501856  1.0
  H  H27  1  0.52475370  0.04290841  0.26715023  1.0
  C  C28  1  0.73909868  0.51550103  0.52079858  1.0
  C  C29  1  0.98819307  0.76503809  0.48279839  1.0
  C  C30  1  0.27266937  0.49504319  0.49720786  1.0
  C  C31  1  0.00909530  0.23167940  0.50710473  1.0
  C  C32  1  0.74196137  0.23337892  0.25449756  1.0
  C  C33  1  0.00671239  0.51396874  0.78234163  1.0
  C  C34  1  0.27132103  0.76352927  0.75110541  1.0
  C  C35  1  0.99158974  0.49874755  0.22247963  1.0
  C  C36  1  0.72990782  0.50229906  0.22984228  1.0
  C  C37  1  0.99694257  0.22205190  0.23114131  1.0
  C  C38  1  0.28183179  0.50683651  0.77270256  1.0
  C  C39  1  0.00031882  0.77350887  0.77307905  1.0
  C  C40  1  0.42189729  0.43541010  0.50913484  1.0
  C  C41  1  0.59266794  0.57669267  0.51453516  1.0
  C  C42  1  0.36417923  0.49820987  0.50336630  1.0
  C  C43  1  0.64928636  0.51398774  0.51971883  1.0
  C  C44  1  0.50990848  0.54875121  0.51126371  1.0
  C  C45  1  0.50534921  0.46472830  0.51379067  1.0
  C  C46  1  0.92522994  0.91119616  0.48791701  1.0
  C  C47  1  0.06557431  0.08103442  0.49130706  1.0
  C  C48  1  0.98797033  0.85339782  0.48220385  1.0
  C  C49  1  0.00410356  0.13875864  0.49913460  1.0
  C  C50  1  0.03700384  0.99767718  0.48675419  1.0
  C  C51  1  0.95371784  0.99381315  0.49073642  1.0
  C  C52  1  0.92802997  0.08295367  0.02475174  1.0
  C  C53  1  0.06315992  0.90721896  0.97823912  1.0
  C  C54  1  0.99482338  0.13261361  0.14150179  1.0
  C  C55  1  0.99763299  0.85955343  0.86274395  1.0
  C  C56  1  0.03804475  0.98845464  0.03782249  1.0
  C  C57  1  0.95319076  0.00074521  0.96590667  1.0
  C  C58  1  0.59433728  0.43717102  0.02329684  1.0
  C  C59  1  0.42089512  0.57454648  0.97757766  1.0
  C  C60  1  0.64399286  0.50359533  0.14006661  1.0
  C  C61  1  0.37160280  0.50768472  0.86211166  1.0
  C  C62  1  0.50244138  0.54960576  0.03691939  1.0
  C  C63  1  0.51349340  0.46372754  0.96476578  1.0
  C  C64  1  0.61056741  0.09833496  0.05922678  1.0
  C  C65  1  0.61815151  0.11062965  0.21651125  1.0
  C  C66  1  0.53630446  0.02928805  0.14361845  1.0
  C  C67  1  0.48885883  0.97889835  0.02364218  1.0
  C  C68  1  0.40638950  0.89513669  0.94660382  1.0
  C  C69  1  0.39423810  0.88726525  0.78927744  1.0
  C  C70  1  0.47589941  0.96890733  0.86222425  1.0
  C  C71  1  0.52645832  0.01622662  0.98222429  1.0
  C  C72  1  0.65533904  0.14466939  0.17436072  1.0
  C  C73  1  0.36000770  0.85029462  0.83144084  1.0
  C  C74  1  0.05977297  0.57053268  0.15385224  1.0
  C  C75  1  0.93496043  0.44909096  0.85231053  1.0
  C  C76  1  0.99215998  0.50368392  0.13663900  1.0
  C  C77  1  0.00295798  0.51473213  0.87006556  1.0
  C  C78  1  0.95485595  0.46919462  0.95535347  1.0
  C  C79  1  0.03800610  0.55040695  0.04979298  1.0
  S  S80  1  0.41188440  0.59219727  0.50352556  1.0
  S  S81  1  0.60292288  0.42044007  0.52079194  1.0
  S  S82  1  0.08051358  0.89968126  0.47932096  1.0
  S  S83  1  0.91061116  0.09239982  0.50015749  1.0
  S  S84  1  0.08733463  0.07809217  0.17810182  1.0
  S  S85  1  0.90435206  0.91250528  0.82530972  1.0
  S  S86  1  0.59171716  0.59816511  0.17703907  1.0
  S  S87  1  0.42396046  0.41385139  0.82428343  1.0
  S  S88  1  0.90278646  0.41738284  0.99403079  1.0
  S  S89  1  0.09147202  0.60199666  0.01199557  1.0
  N  N90  1  0.51086321  0.00362027  0.82035309  1.0
  N  N91  1  0.50149326  0.99436235  0.18553697  1.0
  O  O92  1  0.77703166  0.44784176  0.52482171  1.0
  O  O93  1  0.05701727  0.72819190  0.48035835  1.0
  O  O94  1  0.23393684  0.56178562  0.49070016  1.0
  O  O95  1  0.94341914  0.27138067  0.51495470  1.0
  O  O96  1  0.77233232  0.26468011  0.21422809  1.0
  O  O97  1  0.07517390  0.57995424  0.81355094  1.0
  O  O98  1  0.23974179  0.73299010  0.79131527  1.0
  O  O99  1  0.92505169  0.43000273  0.19041035  1.0
  O  O100  1  0.76244158  0.57190163  0.33198908  1.0
  O  O101  1  0.06789927  0.25619300  0.33327256  1.0
  O  O102  1  0.24722129  0.43596607  0.67092988  1.0
  O  O103  1  0.93125588  0.74070807  0.67119094  1.0
  O  O104  1  0.92848603  0.26014471  0.20033351  1.0
  O  O105  1  0.24552544  0.57645142  0.80542646  1.0
  O  O106  1  0.07265925  0.74015211  0.80569121  1.0
  O  O107  1  0.76520186  0.43107277  0.19930713  1.0
  O  O108  1  0.77908819  0.27367888  0.35982095  1.0
  O  O109  1  0.06037421  0.56450802  0.32472898  1.0
  O  O110  1  0.23141014  0.72633241  0.64608285  1.0
  O  O111  1  0.94029304  0.44456496  0.68097728  1.0
  O  O112  1  0.07834746  0.26500526  0.50676967  1.0
  O  O113  1  0.77005975  0.58208905  0.51536846  1.0
  O  O114  1  0.92198862  0.73249875  0.48800885  1.0
  O  O115  1  0.23805170  0.42642077  0.49778778  1.0
  O  O116  1  0.06940606  0.44582623  0.62815284  1.0
  O  O117  1  0.05884371  0.43521698  0.37590766  1.0
  O  O118  1  0.05866821  0.68087042  0.61401335  1.0
  O  O119  1  0.82381576  0.44580518  0.39027282  1.0
  O  O120  1  0.95355421  0.54309814  0.40929625  1.0
  O  O121  1  0.96116525  0.55160918  0.59516899  1.0
  O  O122  1  0.13438583  0.54285976  0.58427827  1.0
  O  O123  1  0.96174269  0.37019860  0.41975025  1.0
  O  O124  1  0.39940977  0.35664037  0.50957312  1.0
  O  O125  1  0.84807406  0.89014063  0.49141289  1.0
  O  O126  1  0.84992160  0.11117797  0.97525779  1.0
  O  O127  1  0.62034517  0.35705120  0.97307099  1.0
  O  O128  1  0.13639014  0.64421406  0.25715066  1.0
