# generated using pymatgen
data_ZnH6C7NO7
_symmetry_space_group_name_H-M   'P 1'
_cell_length_a   10.23395745
_cell_length_b   11.40976739
_cell_length_c   11.41025897
_cell_angle_alpha   78.96971656
_cell_angle_beta   81.85315205
_cell_angle_gamma   81.84049779
_symmetry_Int_Tables_number   1
_chemical_formula_structural   ZnH6C7NO7
_chemical_formula_sum   'Zn2 H12 C14 N2 O14'
_cell_volume   1285.46142687
_cell_formula_units_Z   2
loop_
 _symmetry_equiv_pos_site_id
 _symmetry_equiv_pos_as_xyz
  1  'x, y, z'
loop_
 _atom_site_type_symbol
 _atom_site_label
 _atom_site_symmetry_multiplicity
 _atom_site_fract_x
 _atom_site_fract_y
 _atom_site_fract_z
 _atom_site_occupancy
  Zn  Zn0  1  0.63064143  0.51060543  0.51056106  1.0
  Zn  Zn1  1  0.35877537  0.51503683  0.51497415  1.0
  H  H2  1  0.66409534  0.10990813  0.51655296  1.0
  H  H3  1  0.05661922  0.58825371  0.58813505  1.0
  H  H4  1  0.93204424  0.43653159  0.43637603  1.0
  H  H5  1  0.71918897  0.64251923  0.64310854  1.0
  H  H6  1  0.27143693  0.38283483  0.38337960  1.0
  H  H7  1  0.28753233  0.03714502  0.59463555  1.0
  H  H8  1  0.65492057  0.95247789  0.62844316  1.0
  H  H9  1  0.65491528  0.62845053  0.95252419  1.0
  H  H10  1  0.33333333  0.92216706  0.47925284  1.0
  H  H11  1  0.28750681  0.59462631  0.03706637  1.0
  H  H12  1  0.33339202  0.47921819  0.92210455  1.0
  H  H13  1  0.66409391  0.51659724  0.10988505  1.0
  C  C14  1  0.44882256  0.50608114  0.74615751  1.0
  C  C15  1  0.93291418  0.49821628  0.49815515  1.0
  C  C16  1  0.05623683  0.52646137  0.52639840  1.0
  C  C17  1  0.42456333  0.87536323  0.51295294  1.0
  C  C18  1  0.56069576  0.14699315  0.53523554  1.0
  C  C19  1  0.56070149  0.53532254  0.14696763  1.0
  C  C20  1  0.42463274  0.51294150  0.87532521  1.0
  C  C21  1  0.53884985  0.53001715  0.27826719  1.0
  C  C22  1  0.50451032  0.94035236  0.55352370  1.0
  C  C23  1  0.46619848  0.07063901  0.55377028  1.0
  C  C24  1  0.46620174  0.55383545  0.07059898  1.0
  C  C25  1  0.50453688  0.55354161  0.94033368  1.0
  C  C26  1  0.53881708  0.27830978  0.52990958  1.0
  C  C27  1  0.44875373  0.74618366  0.50607997  1.0
  N  N28  1  0.17295858  0.48296197  0.48299844  1.0
  N  N29  1  0.81653063  0.54213358  0.54221894  1.0
  O  O30  1  0.56723672  0.50645237  0.69365562  1.0
  O  O31  1  0.64327784  0.52939783  0.32866444  1.0
  O  O32  1  0.64318114  0.32868489  0.52953319  1.0
  O  O33  1  0.34561551  0.69718767  0.49916581  1.0
  O  O34  1  0.34577718  0.49887221  0.69718266  1.0
  O  O35  1  0.81487532  0.61988412  0.62013681  1.0
  O  O36  1  0.17557924  0.40486402  0.40497544  1.0
  O  O37  1  0.42120706  0.52495702  0.33207130  1.0
  O  O38  1  0.33420494  0.10854652  0.56939208  1.0
  O  O39  1  0.62295986  0.89183650  0.59308178  1.0
  O  O40  1  0.62298970  0.59308150  0.89186819  1.0
  O  O41  1  0.33420673  0.56947433  0.10846581  1.0
  O  O42  1  0.42119506  0.33215764  0.52459575  1.0
  O  O43  1  0.56720278  0.69372253  0.50616438  1.0
