# generated using pymatgen
data_CdH7C12NO4
_symmetry_space_group_name_H-M   'P 1'
_cell_length_a   7.07208674
_cell_length_b   14.28533786
_cell_length_c   15.30906630
_cell_angle_alpha   89.99988523
_cell_angle_beta   96.14243193
_cell_angle_gamma   89.99876957
_symmetry_Int_Tables_number   1
_chemical_formula_structural   CdH7C12NO4
_chemical_formula_sum   'Cd4 H28 C48 N4 O16'
_cell_volume   1537.75206402
_cell_formula_units_Z   4
loop_
 _symmetry_equiv_pos_site_id
 _symmetry_equiv_pos_as_xyz
  1  'x, y, z'
loop_
 _atom_site_type_symbol
 _atom_site_label
 _atom_site_symmetry_multiplicity
 _atom_site_fract_x
 _atom_site_fract_y
 _atom_site_fract_z
 _atom_site_occupancy
  Cd  Cd0  1  0.47208147  0.80200239  0.68704895  1.0
  Cd  Cd1  1  0.02790492  0.30201070  0.31294126  1.0
  Cd  Cd2  1  0.52791324  0.19799160  0.31294822  1.0
  Cd  Cd3  1  0.97208122  0.69798539  0.68706265  1.0
  H  H4  1  0.17373414  0.14538958  0.60275084  1.0
  H  H5  1  0.32623213  0.64539397  0.39724385  1.0
  H  H6  1  0.82624206  0.85460441  0.39725127  1.0
  H  H7  1  0.67378817  0.35460422  0.60275722  1.0
  H  H8  1  0.29816130  0.01132127  0.70006278  1.0
  H  H9  1  0.20181801  0.51132720  0.29993084  1.0
  H  H10  1  0.70182345  0.98867272  0.29993518  1.0
  H  H11  1  0.79819661  0.48867098  0.70006995  1.0
  H  H12  1  0.36179691  0.84298929  0.48554734  1.0
  H  H13  1  0.13819902  0.34298827  0.51444850  1.0
  H  H14  1  0.63820634  0.15701170  0.51445026  1.0
  H  H15  1  0.86179709  0.65701762  0.48555331  1.0
  H  H16  1  0.25718147  0.97328649  0.37933703  1.0
  H  H17  1  0.24281439  0.47328343  0.62065793  1.0
  H  H18  1  0.74281892  0.02671520  0.62066238  1.0
  H  H19  1  0.75719309  0.52672036  0.37934576  1.0
  H  H20  1  0.35890025  0.99030348  0.94058532  1.0
  H  H21  1  0.14110057  0.49029364  0.05940660  1.0
  H  H22  1  0.64111154  0.00970031  0.05941141  1.0
  H  H23  1  0.85891402  0.50970035  0.94059811  1.0
  H  H24  1  0.32746479  0.09487182  0.07005442  1.0
  H  H25  1  0.17252080  0.59486476  0.92993741  1.0
  H  H26  1  0.67251432  0.90513687  0.92993607  1.0
  H  H27  1  0.82747815  0.40512713  0.07006650  1.0
  H  H28  1  0.87417458  0.83339312  0.82681028  1.0
  H  H29  1  0.62582111  0.33337970  0.17318409  1.0
  H  H30  1  0.12581594  0.16661837  0.17317557  1.0
  H  H31  1  0.37418069  0.66666667  0.82681866  1.0
  C  C32  1  0.15156192  0.14895369  0.42261997  1.0
  C  C33  1  0.34843547  0.64895114  0.57737694  1.0
  C  C34  1  0.84842992  0.85104870  0.57738358  1.0
  C  C35  1  0.65158487  0.35105685  0.42261695  1.0
  C  C36  1  0.20959661  0.06928351  0.48365129  1.0
  C  C37  1  0.29039863  0.56928592  0.51634304  1.0
  C  C38  1  0.79039950  0.93071678  0.51635117  1.0
  C  C39  1  0.70961030  0.43071787  0.48365746  1.0
  C  C40  1  0.21664902  0.07962475  0.57475967  1.0
  C  C41  1  0.28333294  0.57962603  0.42523788  1.0
  C  C42  1  0.78334141  0.92036924  0.42524054  1.0
  C  C43  1  0.71668453  0.42037496  0.57476109  1.0
  C  C44  1  0.28316157  0.00551198  0.62858313  1.0
  C  C45  1  0.21682083  0.50551549  0.37141196  1.0
  C  C46  1  0.71682174  0.99448621  0.37141737  1.0
  C  C47  1  0.78318382  0.49448340  0.62859028  1.0
  C  C48  1  0.32070852  0.91163539  0.50817738  1.0
  C  C49  1  0.17929291  0.41163818  0.49181862  1.0
  C  C50  1  0.67929330  0.08836490  0.49182145  1.0
  C  C51  1  0.82071600  0.58836700  0.50818579  1.0
  C  C52  1  0.26136102  0.98315595  0.45006343  1.0
  C  C53  1  0.23864009  0.48315659  0.54993309  1.0
  C  C54  1  0.73864222  0.01684294  0.54993678  1.0
  C  C55  1  0.76136597  0.51684930  0.45007053  1.0
  C  C56  1  0.25085479  0.86559731  0.81462803  1.0
  C  C57  1  0.24914153  0.36558954  0.18537368  1.0
  C  C58  1  0.74913137  0.13440578  0.18537197  1.0
  C  C59  1  0.75085741  0.63440515  0.81463285  1.0
  C  C60  1  0.13070202  0.90697947  0.87879262  1.0
  C  C61  1  0.36930962  0.40697406  0.12119672  1.0
  C  C62  1  0.86930558  0.09301592  0.12119148  1.0
  C  C63  1  0.63070073  0.59302063  0.87880450  1.0
  C  C64  1  0.20954688  0.97121197  0.94016342  1.0
  C  C65  1  0.29044057  0.47120684  0.05982720  1.0
  C  C66  1  0.79044219  0.02878762  0.05982693  1.0
  C  C67  1  0.70955554  0.52878855  0.94017526  1.0
  C  C68  1  0.09878118  0.01248584  0.00147184  1.0
  C  C69  1  0.40121794  0.51248110  0.99853062  1.0
  C  C70  1  0.90120924  0.98752075  0.99852968  1.0
  C  C71  1  0.59878952  0.48751499  0.00147699  1.0
  C  C72  1  0.17652818  0.07759967  0.06570426  1.0
  C  C73  1  0.32346953  0.57758890  0.93429149  1.0
  C  C74  1  0.82347650  0.92241322  0.93429341  1.0
  C  C75  1  0.67653226  0.42239879  0.06571322  1.0
  C  C76  1  0.93536898  0.88269784  0.87610463  1.0
  C  C77  1  0.56463446  0.38268518  0.12389331  1.0
  C  C78  1  0.06462860  0.11731085  0.12388876  1.0
  C  C79  1  0.43536875  0.61730391  0.87611017  1.0
  N  N80  1  0.33504018  0.92307212  0.59589007  1.0
  N  N81  1  0.16495932  0.42307176  0.40410581  1.0
  N  N82  1  0.66495881  0.07692607  0.40410535  1.0
  N  N83  1  0.83504816  0.57692853  0.59589918  1.0
  O  O84  1  0.21906505  0.15070276  0.34846438  1.0
  O  O85  1  0.28093653  0.65069796  0.65153339  1.0
  O  O86  1  0.78092965  0.84929613  0.65153540  1.0
  O  O87  1  0.71908238  0.34931632  0.34846304  1.0
  O  O88  1  0.03744038  0.20992448  0.44654207  1.0
  O  O89  1  0.46254576  0.70992007  0.55345808  1.0
  O  O90  1  0.96254862  0.79007371  0.55346068  1.0
  O  O91  1  0.53746749  0.29007672  0.44653218  1.0
  O  O92  1  0.18429361  0.79985759  0.76259921  1.0
  O  O93  1  0.31572692  0.29984969  0.23740776  1.0
  O  O94  1  0.81571246  0.20015250  0.23740180  1.0
  O  O95  1  0.68427338  0.70014780  0.76260733  1.0
  O  O96  1  0.41864586  0.89637133  0.81020826  1.0
  O  O97  1  0.08133064  0.39636814  0.18978650  1.0
  O  O98  1  0.58132754  0.10362336  0.18978586  1.0
  O  O99  1  0.91865695  0.60363075  0.81021291  1.0
