# generated using pymatgen
data_Zn4H18C36O13
_symmetry_space_group_name_H-M   'P 1'
_cell_length_a   19.69069437
_cell_length_b   20.61100352
_cell_length_c   21.78655894
_cell_angle_alpha   66.12673907
_cell_angle_beta   65.04241378
_cell_angle_gamma   63.42867044
_symmetry_Int_Tables_number   1
_chemical_formula_structural   Zn4H18C36O13
_chemical_formula_sum   'Zn8 H36 C72 O26'
_cell_volume   6910.61695708
_cell_formula_units_Z   2
loop_
 _symmetry_equiv_pos_site_id
 _symmetry_equiv_pos_as_xyz
  1  'x, y, z'
loop_
 _atom_site_type_symbol
 _atom_site_label
 _atom_site_symmetry_multiplicity
 _atom_site_fract_x
 _atom_site_fract_y
 _atom_site_fract_z
 _atom_site_occupancy
  Zn  Zn0  1  0.99691231  0.93537839  0.93493407  1.0
  Zn  Zn1  1  0.15786569  0.93192777  0.93669064  1.0
  Zn  Zn2  1  0.00454099  0.94700835  0.07342128  1.0
  Zn  Zn3  1  0.00854679  0.08603393  0.93231019  1.0
  Zn  Zn4  1  0.59131184  0.51370030  0.50042822  1.0
  Zn  Zn5  1  0.42705566  0.51661057  0.50736418  1.0
  Zn  Zn6  1  0.57707569  0.36335754  0.50489740  1.0
  Zn  Zn7  1  0.57431802  0.50384898  0.36544503  1.0
  H  H8  1  0.08883993  0.79992543  0.80559577  1.0
  H  H9  1  0.15750716  0.72147310  0.72063096  1.0
  H  H10  1  0.28264911  0.65063290  0.64620017  1.0
  H  H11  1  0.50790420  0.63560855  0.64515728  1.0
  H  H12  1  0.43965031  0.71399748  0.73007342  1.0
  H  H13  1  0.31363408  0.78741750  0.80335721  1.0
  H  H14  1  0.86733919  0.79321723  0.02792621  1.0
  H  H15  1  0.78823720  0.70653745  0.09699456  1.0
  H  H16  1  0.71600882  0.63916684  0.21340629  1.0
  H  H17  1  0.70289950  0.66808665  0.40306411  1.0
  H  H18  1  0.78162747  0.75511229  0.33371512  1.0
  H  H19  1  0.85551282  0.82032832  0.21792799  1.0
  H  H20  1  0.87405960  0.02573874  0.79312681  1.0
  H  H21  1  0.79808792  0.09267847  0.70544618  1.0
  H  H22  1  0.72989453  0.21295880  0.63036295  1.0
  H  H23  1  0.74139068  0.42124225  0.61805347  1.0
  H  H24  1  0.82065774  0.35391238  0.70320614  1.0
  H  H25  1  0.88342104  0.23426005  0.78276178  1.0
  H  H26  1  0.32581865  0.79695259  0.03752886  1.0
  H  H27  1  0.41970972  0.71193629  0.10882717  1.0
  H  H28  1  0.44292259  0.64199360  0.22547835  1.0
  H  H29  1  0.24651881  0.65626969  0.41379418  1.0
  H  H30  1  0.15237494  0.74212708  0.34299564  1.0
  H  H31  1  0.12855555  0.81186390  0.22524881  1.0
  H  H32  1  0.33442427  0.02388973  0.80419542  1.0
  H  H33  1  0.42809628  0.09352557  0.71953496  1.0
  H  H34  1  0.45138263  0.21536501  0.64545973  1.0
  H  H35  1  0.25560114  0.42317225  0.64840529  1.0
  H  H36  1  0.16238177  0.35359325  0.73476504  1.0
  H  H37  1  0.13876729  0.23180100  0.80651835  1.0
  H  H38  1  0.86203594  0.25886511  0.02924455  1.0
  H  H39  1  0.77620792  0.35093938  0.10109641  1.0
  H  H40  1  0.70472620  0.37688805  0.21870687  1.0
  H  H41  1  0.70865651  0.19328465  0.40591580  1.0
  H  H42  1  0.79329084  0.10116117  0.33400799  1.0
  H  H43  1  0.86597786  0.07543495  0.21658273  1.0
  C  C44  1  0.15475226  0.84640685  0.85854705  1.0
  C  C45  1  0.19795571  0.79792173  0.80895609  1.0
  C  C46  1  0.15337790  0.77899647  0.78573339  1.0
  C  C47  1  0.19149720  0.73571601  0.73899566  1.0
  C  C48  1  0.27576636  0.70886485  0.71345451  1.0
  C  C49  1  0.31629970  0.66475122  0.66497777  1.0
  C  C50  1  0.39848771  0.63912341  0.64086039  1.0
  C  C51  1  0.44334198  0.65680813  0.66488407  1.0
  C  C52  1  0.40538360  0.69998595  0.71179633  1.0
  C  C53  1  0.32104324  0.72733494  0.73731956  1.0
  C  C54  1  0.28021521  0.77235057  0.78515387  1.0
  C  C55  1  0.44010649  0.59309055  0.58925518  1.0
  C  C56  1  0.91380557  0.86256026  0.07703127  1.0
  C  C57  1  0.86561313  0.81151688  0.11958665  1.0
  C  C58  1  0.84636526  0.77931790  0.08507781  1.0
  C  C59  1  0.80269936  0.73157413  0.12347152  1.0
  C  C60  1  0.77560051  0.71392301  0.19805762  1.0
  C  C61  1  0.73072951  0.66486042  0.23904071  1.0
  C  C62  1  0.70549207  0.64869756  0.31163329  1.0
  C  C63  1  0.72396659  0.68177373  0.34595173  1.0
  C  C64  1  0.76739433  0.72963681  0.30746673  1.0
  C  C65  1  0.79468828  0.74686506  0.23294142  1.0
  C  C66  1  0.84019300  0.79528159  0.19216392  1.0
  C  C67  1  0.65928733  0.59597870  0.35521265  1.0
  C  C68  1  0.92590706  0.08519756  0.84701738  1.0
  C  C69  1  0.88223338  0.12687889  0.79312877  1.0
  C  C70  1  0.85844667  0.08642265  0.77083474  1.0
  C  C71  1  0.81655140  0.12361285  0.72253092  1.0
  C  C72  1  0.79600813  0.20292309  0.69423936  1.0
  C  C73  1  0.75054366  0.24296853  0.64637451  1.0
  C  C74  1  0.73104220  0.32031229  0.62000416  1.0
  C  C75  1  0.75740284  0.36050110  0.64013916  1.0
  C  C76  1  0.80112294  0.32306182  0.68704633  1.0
  C  C77  1  0.82117003  0.24379302  0.71580060  1.0
  C  C78  1  0.86436150  0.20402441  0.76549688  1.0
  C  C79  1  0.68041719  0.36259614  0.57167168  1.0
  C  C80  1  0.16729584  0.85926584  0.08343687  1.0
  C  C81  1  0.22176677  0.80896732  0.12794339  1.0
  C  C82  1  0.30462309  0.78064359  0.09466499  1.0
  C  C83  1  0.35606482  0.73380485  0.13420624  1.0
  C  C84  1  0.32761682  0.71280271  0.20873889  1.0
  C  C85  1  0.37930087  0.66422049  0.25049117  1.0
  C  C86  1  0.35032631  0.64413522  0.32306490  1.0
  C  C87  1  0.26759606  0.67278233  0.35663078  1.0
  C  C88  1  0.21592746  0.72019133  0.31726160  1.0
  C  C89  1  0.24390443  0.74147034  0.24261826  1.0
  C  C90  1  0.19229927  0.78967229  0.20055159  1.0
  C  C91  1  0.40630034  0.59246609  0.36590367  1.0
  C  C92  1  0.17550304  0.08183776  0.85953089  1.0
  C  C93  1  0.23103688  0.12456114  0.80987726  1.0
  C  C94  1  0.31343515  0.08503635  0.78537862  1.0
  C  C95  1  0.36482321  0.12374570  0.73863269  1.0
  C  C96  1  0.33683313  0.20356669  0.71408294  1.0
  C  C97  1  0.38809808  0.24479076  0.66530872  1.0
  C  C98  1  0.35887745  0.32251267  0.64196846  1.0
  C  C99  1  0.27668336  0.36206177  0.66748675  1.0
  C  C100  1  0.22553758  0.32343747  0.71503746  1.0
  C  C101  1  0.25362839  0.24361369  0.73932463  1.0
  C  C102  1  0.20214095  0.20235193  0.78720962  1.0
  C  C103  1  0.41334747  0.36539049  0.58954374  1.0
  C  C104  1  0.92123598  0.10705521  0.07569662  1.0
  C  C105  1  0.86901644  0.16165272  0.11936000  1.0
  C  C106  1  0.84335565  0.24007659  0.08638724  1.0
  C  C107  1  0.79601198  0.29067128  0.12628358  1.0
  C  C108  1  0.77203739  0.26576484  0.20087799  1.0
  C  C109  1  0.72423124  0.31650718  0.24326429  1.0
  C  C110  1  0.70202284  0.29057474  0.31586622  1.0
  C  C111  1  0.72702768  0.21206020  0.34878314  1.0
  C  C112  1  0.77368642  0.16144814  0.30886802  1.0
  C  C113  1  0.79760477  0.18646016  0.23429123  1.0
  C  C114  1  0.84607134  0.13576232  0.19195359  1.0
  C  C115  1  0.65234794  0.34488578  0.36005922  1.0
  O  O116  1  0.04183247  0.97602225  0.97019640  1.0
  O  O117  1  0.19594990  0.86549511  0.87619840  1.0
  O  O118  1  0.07908529  0.86529485  0.87922707  1.0
  O  O119  1  0.39697832  0.58135919  0.56722308  1.0
  O  O120  1  0.51599318  0.56911765  0.57106537  1.0
  O  O121  1  0.93649341  0.88455486  0.10989633  1.0
  O  O122  1  0.92857214  0.87994882  0.01047689  1.0
  O  O123  1  0.64202125  0.56759275  0.32362335  1.0
  O  O124  1  0.64086131  0.58347690  0.42164689  1.0
  O  O125  1  0.94890650  0.12238455  0.86455393  1.0
  O  O126  1  0.93639859  0.01478529  0.87153808  1.0
  O  O127  1  0.64993134  0.32615988  0.56126575  1.0
  O  O128  1  0.67114238  0.43270809  0.54496051  1.0
  O  O129  1  0.09317641  0.88466321  0.11459979  1.0
  O  O130  1  0.20006478  0.87260484  0.01706903  1.0
  O  O131  1  0.47961915  0.56713272  0.33265531  1.0
  O  O132  1  0.37590385  0.57785372  0.43263293  1.0
  O  O133  1  0.10158218  0.11968811  0.87794032  1.0
  O  O134  1  0.20684596  0.01041441  0.87936188  1.0
  O  O135  1  0.48710810  0.32786521  0.56926832  1.0
  O  O136  1  0.38119239  0.43662811  0.56907616  1.0
  O  O137  1  0.94208638  0.03728794  0.10835689  1.0
  O  O138  1  0.94092307  0.13481510  0.00908521  1.0
  O  O139  1  0.63322788  0.41500085  0.32812052  1.0
  O  O140  1  0.63323233  0.31641939  0.42653889  1.0
  O  O141  1  0.54243801  0.47342217  0.46863014  1.0
