# generated using pymatgen
data_ZnH26C37(NO10)2
_symmetry_space_group_name_H-M   'P 1'
_cell_length_a   14.89741476
_cell_length_b   15.01459817
_cell_length_c   22.42907831
_cell_angle_alpha   90.89221534
_cell_angle_beta   106.53835782
_cell_angle_gamma   97.29439778
_symmetry_Int_Tables_number   1
_chemical_formula_structural   ZnH26C37(NO10)2
_chemical_formula_sum   'Zn2 H52 C74 N4 O40'
_cell_volume   4763.37147029
_cell_formula_units_Z   2
loop_
 _symmetry_equiv_pos_site_id
 _symmetry_equiv_pos_as_xyz
  1  'x, y, z'
loop_
 _atom_site_type_symbol
 _atom_site_label
 _atom_site_symmetry_multiplicity
 _atom_site_fract_x
 _atom_site_fract_y
 _atom_site_fract_z
 _atom_site_occupancy
  Zn  Zn0  1  0.60861474  0.49777499  0.53409417  1.0
  Zn  Zn1  1  0.37297350  0.55476245  0.46115932  1.0
  H  H2  1  0.67500755  0.32960975  0.54721850  1.0
  H  H3  1  0.18599729  0.12371348  0.26477991  1.0
  H  H4  1  0.16246563  0.23042973  0.29107944  1.0
  H  H5  1  0.07286878  0.13416603  0.27563557  1.0
  H  H6  1  0.52896366  0.19334330  0.36659254  1.0
  H  H7  1  0.64520452  0.19569739  0.35763980  1.0
  H  H8  1  0.61629680  0.28890063  0.39602818  1.0
  H  H9  1  0.44978087  0.76731564  0.37073432  1.0
  H  H10  1  0.48657226  0.86639282  0.33505096  1.0
  H  H11  1  0.39083823  0.78468155  0.29124330  1.0
  H  H12  1  0.84783569  0.60511465  0.28252983  1.0
  H  H13  1  0.26442709  0.67139049  0.36873186  1.0
  H  H14  1  0.04120564  0.24528350  0.51886689  1.0
  H  H15  1  0.82068124  0.60941948  0.46034120  1.0
  H  H16  1  0.16788462  0.47090684  0.52965780  1.0
  H  H17  1  0.14725008  0.74037236  0.31142089  1.0
  H  H18  1  0.75875875  0.21019514  0.55060810  1.0
  H  H19  1  0.98923564  0.60878816  0.14105380  1.0
  H  H20  1  0.99493798  0.51742120  0.19255786  1.0
  H  H21  1  0.00893760  0.63098054  0.22341996  1.0
  H  H22  1  0.47866422  0.20941535  0.87106870  1.0
  H  H23  1  0.44546202  0.29663365  0.91213471  1.0
  H  H24  1  0.81123060  0.56144858  0.37551108  1.0
  H  H25  1  0.38271064  0.18434867  0.90539685  1.0
  H  H26  1  0.40264483  0.47123901  0.12755047  1.0
  H  H27  1  0.86478344  0.46051337  0.81831374  1.0
  H  H28  1  0.31379524  0.54280290  0.22883121  1.0
  H  H29  1  0.74950346  0.48736454  0.68136789  1.0
  H  H30  1  0.53076558  0.54282725  0.40960108  1.0
  H  H31  1  0.44846445  0.46533188  0.67838859  1.0
  H  H32  1  0.68860755  0.44212516  0.38636127  1.0
  H  H33  1  0.44447919  0.43839572  0.81645881  1.0
  H  H34  1  0.79453979  0.17475626  0.43924200  1.0
  H  H35  1  0.09516759  0.36811733  0.48191685  1.0
  H  H36  1  0.74403822  0.07774461  0.38670068  1.0
  H  H37  1  0.86316843  0.08614412  0.43671168  1.0
  H  H38  1  0.12928269  0.96568526  0.35894765  1.0
  H  H39  1  0.19203209  0.87053309  0.36102098  1.0
  H  H40  1  0.11468773  0.89970040  0.28853715  1.0
  H  H41  1  0.58438084  0.24020513  0.61332941  1.0
  H  H42  1  0.46696120  0.18065789  0.58555922  1.0
  H  H43  1  0.48772300  0.30094271  0.58054807  1.0
  H  H44  1  0.37249870  0.88690358  0.52322572  1.0
  H  H45  1  0.38937037  0.77704399  0.55316516  1.0
  H  H46  1  0.84627017  0.60026575  0.00740210  1.0
  H  H47  1  0.28720012  0.79046123  0.49007795  1.0
  H  H48  1  0.26620045  0.35980669  0.42391958  1.0
  H  H49  1  0.78350474  0.79555346  0.59289821  1.0
  H  H50  1  0.48363803  0.15803711  0.04047205  1.0
  H  H51  1  0.83857264  0.92799696  0.47199286  1.0
  H  H52  1  0.84140584  0.81783463  0.50234612  1.0
  H  H53  1  0.92644600  0.91100182  0.54299711  1.0
  C  C54  1  0.53476976  0.67086451  0.51974679  1.0
  C  C55  1  0.54533751  0.45691465  0.75273843  1.0
  C  C56  1  0.60462388  0.45518273  0.30741231  1.0
  C  C57  1  0.57198911  0.44439286  0.81654528  1.0
  C  C58  1  0.57829957  0.44412333  0.24271523  1.0
  C  C59  1  0.66732088  0.44174473  0.84862125  1.0
  C  C60  1  0.56639366  0.76782039  0.51657245  1.0
  C  C61  1  0.39224894  0.27320690  0.45359085  1.0
  C  C62  1  0.69821972  0.88627396  0.52410674  1.0
  C  C63  1  0.27247432  0.15720500  0.38695003  1.0
  C  C64  1  0.66377152  0.80129703  0.53873097  1.0
  C  C65  1  0.42429761  0.36903127  0.47351431  1.0
  C  C66  1  0.29893638  0.24515671  0.41315846  1.0
  C  C67  1  0.50423301  0.82442120  0.48274765  1.0
  C  C68  1  0.45504960  0.20854494  0.46848340  1.0
  C  C69  1  0.39521339  0.55653447  0.33079649  1.0
  C  C70  1  0.58413557  0.47881237  0.65313020  1.0
  C  C71  1  0.53729100  0.91022247  0.46545957  1.0
  C  C72  1  0.43488977  0.12432831  0.43478307  1.0
  C  C73  1  0.63699241  0.94274012  0.48823094  1.0
  C  C74  1  0.33988420  0.09609837  0.39589937  1.0
  C  C75  1  0.47285930  0.96939840  0.43211470  1.0
  C  C76  1  0.49064046  0.46565949  0.20677197  1.0
  C  C77  1  0.50387608  0.06311915  0.44300712  1.0
  C  C78  1  0.60338748  0.09214007  0.45572612  1.0
  C  C79  1  0.38259140  0.94412788  0.38641453  1.0
  C  C80  1  0.66851785  0.03203616  0.47370307  1.0
  C  C81  1  0.31932937  0.00661299  0.36808298  1.0
  C  C82  1  0.11589801  0.64801423  0.36273961  1.0
  C  C83  1  0.80944971  0.32508095  0.53010866  1.0
  C  C84  1  0.20988288  0.63701199  0.38707762  1.0
  C  C85  1  0.73171508  0.36555409  0.53157371  1.0
  C  C86  1  0.17669965  0.53715832  0.45854612  1.0
  C  C87  1  0.73702488  0.45361533  0.81766719  1.0
  C  C88  1  0.78313315  0.49543480  0.48894719  1.0
  C  C89  1  0.07787051  0.53556715  0.43265997  1.0
  C  C90  1  0.85936481  0.45578753  0.47781072  1.0
  C  C91  1  0.04615660  0.59585867  0.38471238  1.0
  C  C92  1  0.87853851  0.37203929  0.50491275  1.0
  C  C93  1  0.64847877  0.33877113  0.92777677  1.0
  C  C94  1  0.71480326  0.47534611  0.20384325  1.0
  C  C95  1  0.01135504  0.47779291  0.45529836  1.0
  C  C96  1  0.91901024  0.50074925  0.44359521  1.0
  C  C97  1  0.88683609  0.55872170  0.39467202  1.0
  C  C98  1  0.42981456  0.50025904  0.23565318  1.0
  C  C99  1  0.03130682  0.39558778  0.48361829  1.0
  C  C100  1  0.94545629  0.59725428  0.36094008  1.0
  C  C101  1  0.96525219  0.34075462  0.50374945  1.0
  C  C102  1  0.74512281  0.48817723  0.95791898  1.0
  C  C103  1  0.60546233  0.32959087  0.17549235  1.0
  C  C104  1  0.75308910  0.47025539  0.02277417  1.0
  C  C105  1  0.62493633  0.32505551  0.11510570  1.0
  C  C106  1  0.69364127  0.39848571  0.03821673  1.0
  C  C107  1  0.68692830  0.39526057  0.09999434  1.0
  C  C108  1  0.63771970  0.33333333  0.99096079  1.0
  C  C109  1  0.71063007  0.46865023  0.75386911  1.0
  C  C110  1  0.74288361  0.46233042  0.14644905  1.0
  C  C111  1  0.81338169  0.53167558  0.06922733  1.0
  C  C112  1  0.57356471  0.25868408  0.06944237  1.0
  C  C113  1  0.81330213  0.52321732  0.13289294  1.0
  C  C114  1  0.57684643  0.26519143  0.00654642  1.0
  C  C115  1  0.85325405  0.89066721  0.51460751  1.0
  C  C116  1  0.14904346  0.15694899  0.29300458  1.0
  C  C117  1  0.60443860  0.21567620  0.38835056  1.0
  C  C118  1  0.42583755  0.81813657  0.33732736  1.0
  C  C119  1  0.97345232  0.58452592  0.18325325  1.0
  C  C120  1  0.45788870  0.51668144  0.30100447  1.0
  C  C121  1  0.45130442  0.22459676  0.90990348  1.0
  C  C122  1  0.79186700  0.10194483  0.43277234  1.0
  C  C123  1  0.16486552  0.92618431  0.33311025  1.0
  C  C124  1  0.51601132  0.23744265  0.57768957  1.0
  C  C125  1  0.36254674  0.81412395  0.51135848  1.0
  C  C126  1  0.61465617  0.46909822  0.72060784  1.0
  C  C127  1  0.54601366  0.49399022  0.33609208  1.0
  N  N128  1  0.68883635  0.42406378  0.91325518  1.0
  N  N129  1  0.63859817  0.41459899  0.20919786  1.0
  N  N130  1  0.23922058  0.58304263  0.43462962  1.0
  N  N131  1  0.72125266  0.45072530  0.51416859  1.0
  O  O132  1  0.59300639  0.61938341  0.51209803  1.0
  O  O133  1  0.74649491  0.53957977  0.24294858  1.0
  O  O134  1  0.78518852  0.55894844  0.94254701  1.0
  O  O135  1  0.55947616  0.27118468  0.19633204  1.0
  O  O136  1  0.86684300  0.60218304  0.05532497  1.0
  O  O137  1  0.51463827  0.19020005  0.08126946  1.0
  O  O138  1  0.79424407  0.91253514  0.55236487  1.0
  O  O139  1  0.17831282  0.13050652  0.35639358  1.0
  O  O140  1  0.63790298  0.17936747  0.44884048  1.0
  O  O141  1  0.35556591  0.86333016  0.35330952  1.0
  O  O142  1  0.91263969  0.63485320  0.30662933  1.0
  O  O143  1  0.35957221  0.42224827  0.46395627  1.0
  O  O144  1  0.98058275  0.25719272  0.52345205  1.0
  O  O145  1  0.77153542  0.58204395  0.47816295  1.0
  O  O146  1  0.21678279  0.49559256  0.51082647  1.0
  O  O147  1  0.09007957  0.70843756  0.31842095  1.0
  O  O148  1  0.82071629  0.24217354  0.55197424  1.0
  O  O149  1  0.87360831  0.57994493  0.17808519  1.0
  O  O150  1  0.51435433  0.20022122  0.96766983  1.0
  O  O151  1  0.46574954  0.45345479  0.14316399  1.0
  O  O152  1  0.82934731  0.44841214  0.84861986  1.0
  O  O153  1  0.34554610  0.51892479  0.19853267  1.0
  O  O154  1  0.45250057  0.64361330  0.52472408  1.0
  O  O155  1  0.78196603  0.48015732  0.72657844  1.0
  O  O156  1  0.57933866  0.50919181  0.39886174  1.0
  O  O157  1  0.45153417  0.45646464  0.72388306  1.0
  O  O158  1  0.68776792  0.42999671  0.34316236  1.0
  O  O159  1  0.50449461  0.43334776  0.84771569  1.0
  O  O160  1  0.76314202  0.05492985  0.48124306  1.0
  O  O161  1  0.23995483  0.98274392  0.31857879  1.0
  O  O162  1  0.53454179  0.22239840  0.51883417  1.0
  O  O163  1  0.40854131  0.79601648  0.46497968  1.0
  O  O164  1  0.23245969  0.30135762  0.40114858  1.0
  O  O165  1  0.51167323  0.39594081  0.49507202  1.0
  O  O166  1  0.72468574  0.75327289  0.57774610  1.0
  O  O167  1  0.42916762  0.57577258  0.39126450  1.0
  O  O168  1  0.49791997  0.47696484  0.62368839  1.0
  O  O169  1  0.31478029  0.57233157  0.29919565  1.0
  O  O170  1  0.65089569  0.48780206  0.62506126  1.0
  O  O171  1  0.62461553  0.27644181  0.88806306  1.0
