# generated using pymatgen
data_AlH9C17O6
_symmetry_space_group_name_H-M   'P 1'
_cell_length_a   6.71321142
_cell_length_b   23.60514315
_cell_length_c   26.20016585
_cell_angle_alpha   78.66908520
_cell_angle_beta   89.99855257
_cell_angle_gamma   89.99866500
_symmetry_Int_Tables_number   1
_chemical_formula_structural   AlH9C17O6
_chemical_formula_sum   'Al4 H36 C68 O24'
_cell_volume   4070.91931521
_cell_formula_units_Z   4
loop_
 _symmetry_equiv_pos_site_id
 _symmetry_equiv_pos_as_xyz
  1  'x, y, z'
loop_
 _atom_site_type_symbol
 _atom_site_label
 _atom_site_symmetry_multiplicity
 _atom_site_fract_x
 _atom_site_fract_y
 _atom_site_fract_z
 _atom_site_occupancy
  Al  Al0  1  0.74548647  0.24872545  0.75110841  1.0
  Al  Al1  1  0.24797533  0.74968392  0.25074446  1.0
  Al  Al2  1  0.24549318  0.25128882  0.74887839  1.0
  Al  Al3  1  0.74796992  0.75032692  0.24924627  1.0
  H  H4  1  0.31027500  0.62587737  0.16195878  1.0
  H  H5  1  0.78772543  0.29907560  0.90339589  1.0
  H  H6  1  0.81029764  0.87410075  0.33805338  1.0
  H  H7  1  0.28781435  0.20093958  0.59658539  1.0
  H  H8  1  0.31295349  0.55755950  0.10014357  1.0
  H  H9  1  0.80924270  0.35954062  0.97023155  1.0
  H  H10  1  0.81299958  0.94241646  0.39986465  1.0
  H  H11  1  0.30934801  0.14047051  0.52975709  1.0
  H  H12  1  0.70188765  0.60181532  0.06024760  1.0
  H  H13  1  0.19361314  0.47819786  0.86917410  1.0
  H  H14  1  0.20185284  0.89821174  0.43973623  1.0
  H  H15  1  0.69357565  0.02179066  0.63083211  1.0
  H  H16  1  0.69543916  0.66496906  0.12616004  1.0
  H  H17  1  0.19764270  0.41261756  0.80657058  1.0
  H  H18  1  0.19540735  0.83505716  0.37382819  1.0
  H  H19  1  0.69760483  0.08737760  0.69343397  1.0
  H  H20  1  0.72379658  0.43494817  0.99503368  1.0
  H  H21  1  0.30315160  0.55917080  0.01050420  1.0
  H  H22  1  0.22384762  0.06506423  0.50496951  1.0
  H  H23  1  0.80312088  0.94081319  0.48949291  1.0
  H  H24  1  0.31173633  0.54103284  0.46193877  1.0
  H  H25  1  0.66885534  0.46088859  0.53901509  1.0
  H  H26  1  0.81173506  0.95894534  0.03802940  1.0
  H  H27  1  0.16885490  0.03915181  0.96099805  1.0
  H  H28  1  0.31021482  0.46076593  0.53989936  1.0
  H  H29  1  0.67015936  0.54110668  0.46103717  1.0
  H  H30  1  0.81024980  0.03921056  0.96005904  1.0
  H  H31  1  0.17016737  0.95894430  0.03897988  1.0
  H  H32  1  0.72153406  0.49989102  0.11213100  1.0
  H  H33  1  0.48984960  0.52424298  0.95720460  1.0
  H  H34  1  0.22155149  0.00015132  0.38785347  1.0
  H  H35  1  0.98984076  0.97572164  0.54279114  1.0
  H  H36  1  0.49884056  0.32091096  0.75930315  1.0
  H  H37  1  0.50006487  0.67568151  0.27315085  1.0
  H  H38  1  0.99885037  0.17910442  0.74069257  1.0
  H  H39  1  0.00006105  0.82432146  0.22683244  1.0
  C  C40  1  0.49242059  0.17324223  0.82655799  1.0
  C  C41  1  0.49620280  0.82542092  0.17257009  1.0
  C  C42  1  0.99241509  0.32676140  0.67342389  1.0
  C  C43  1  0.99620976  0.67460195  0.32742845  1.0
  C  C44  1  0.49398856  0.18734280  0.68732352  1.0
  C  C45  1  0.49890262  0.81340120  0.31236513  1.0
  C  C46  1  0.99395295  0.31266847  0.81266802  1.0
  C  C47  1  0.99892165  0.68661683  0.18761821  1.0
  C  C48  1  0.17761548  0.61971261  0.13970500  1.0
  C  C49  1  0.88074830  0.33763930  0.89677507  1.0
  C  C50  1  0.67761768  0.88027988  0.36029772  1.0
  C  C51  1  0.38078592  0.16236833  0.60321449  1.0
  C  C52  1  0.17960831  0.58255504  0.10459864  1.0
  C  C53  1  0.89157358  0.37225702  0.93396884  1.0
  C  C54  1  0.67963635  0.91743472  0.39540482  1.0
  C  C55  1  0.39160304  0.12774043  0.56602987  1.0
  C  C56  1  0.00735326  0.57455697  0.07617678  1.0
  C  C57  1  0.00774963  0.42284561  0.92551286  1.0
  C  C58  1  0.50734392  0.92545313  0.42381023  1.0
  C  C59  1  0.50776160  0.07714515  0.57448930  1.0
  C  C60  1  0.83395136  0.60554384  0.08367916  1.0
  C  C61  1  0.11034428  0.43794631  0.87799103  1.0
  C  C62  1  0.33390862  0.89448077  0.41630397  1.0
  C  C63  1  0.61034297  0.06204643  0.62201179  1.0
  C  C64  1  0.83029172  0.64162472  0.11976289  1.0
  C  C65  1  0.11011906  0.40172095  0.84218673  1.0
  C  C66  1  0.33025582  0.85839766  0.38022499  1.0
  C  C67  1  0.61011088  0.09827441  0.65781374  1.0
  C  C68  1  0.00222372  0.64887916  0.14810521  1.0
  C  C69  1  0.99479511  0.35126981  0.85129725  1.0
  C  C70  1  0.50220118  0.85113357  0.35188772  1.0
  C  C71  1  0.49482815  0.14873899  0.64869195  1.0
  C  C72  1  0.85067692  0.49608711  0.03582090  1.0
  C  C73  1  0.18505406  0.49385210  0.97268574  1.0
  C  C74  1  0.35070229  0.00392580  0.46417431  1.0
  C  C75  1  0.68505497  0.00613767  0.52730936  1.0
  C  C76  1  0.85415820  0.46147295  0.99805323  1.0
  C  C77  1  0.17421998  0.53186916  0.00742473  1.0
  C  C78  1  0.35419729  0.03853522  0.50194580  1.0
  C  C79  1  0.67422061  0.96812699  0.49257104  1.0
  C  C80  1  0.01718980  0.45943044  0.96524867  1.0
  C  C81  1  0.01009966  0.53424538  0.03974962  1.0
  C  C82  1  0.51721701  0.04056528  0.53474939  1.0
  C  C83  1  0.51011202  0.96576175  0.46024512  1.0
  C  C84  1  0.17096316  0.47864912  0.52235280  1.0
  C  C85  1  0.80948848  0.52331066  0.47860598  1.0
  C  C86  1  0.67098498  0.02133971  0.97761808  1.0
  C  C87  1  0.30949475  0.97673053  0.02140052  1.0
  C  C88  1  0.98936689  0.45559700  0.54447987  1.0
  C  C89  1  0.99104134  0.54632942  0.45648144  1.0
  C  C90  1  0.48937633  0.04440609  0.95550675  1.0
  C  C91  1  0.49104680  0.95369156  0.04351643  1.0
  C  C92  1  0.80870708  0.47874337  0.52185597  1.0
  C  C93  1  0.17178329  0.52324778  0.47912255  1.0
  C  C94  1  0.30871429  0.02129174  0.97814739  1.0
  C  C95  1  0.67179523  0.97674910  0.02085615  1.0
  C  C96  1  0.98857066  0.41029290  0.58876203  1.0
  C  C97  1  0.99197461  0.59143670  0.41206383  1.0
  C  C98  1  0.48858763  0.08970365  0.91121956  1.0
  C  C99  1  0.49196212  0.90859191  0.08793595  1.0
  C  C100  1  0.99346676  0.63001742  0.37358101  1.0
  C  C101  1  0.98824336  0.37156978  0.62710842  1.0
  C  C102  1  0.49344619  0.87000627  0.12642381  1.0
  C  C103  1  0.48825652  0.12842810  0.87286695  1.0
  C  C104  1  0.68661640  0.48741177  0.07428314  1.0
  C  C105  1  0.38976532  0.48746159  0.95327429  1.0
  C  C106  1  0.18665011  0.01261126  0.42570716  1.0
  C  C107  1  0.88977667  0.01251044  0.54672455  1.0
  O  O108  1  0.32532239  0.20539836  0.69966121  1.0
  O  O109  1  0.66709487  0.80028634  0.29531723  1.0
  O  O110  1  0.82529621  0.29461224  0.80033061  1.0
  O  O111  1  0.16710364  0.69972969  0.20466538  1.0
  O  O112  1  0.66489010  0.18962087  0.80956474  1.0
  O  O113  1  0.32766747  0.80789492  0.19193031  1.0
  O  O114  1  0.16489099  0.31038979  0.69041942  1.0
  O  O115  1  0.82767987  0.69212414  0.30806735  1.0
  O  O116  1  0.66227615  0.19891423  0.70540849  1.0
  O  O117  1  0.32852533  0.79828976  0.29820950  1.0
  O  O118  1  0.16224070  0.30109513  0.79458194  1.0
  O  O119  1  0.82854251  0.70172813  0.20177570  1.0
  O  O120  1  0.82431323  0.30899484  0.69272038  1.0
  O  O121  1  0.16711090  0.69212373  0.30980179  1.0
  O  O122  1  0.32432419  0.19100963  0.80726059  1.0
  O  O123  1  0.66709804  0.80789286  0.19019405  1.0
  O  O124  1  0.49693826  0.28437522  0.74770555  1.0
  O  O125  1  0.49832746  0.71523979  0.25403651  1.0
  O  O126  1  0.99694377  0.21564237  0.75228591  1.0
  O  O127  1  0.99832301  0.78476666  0.24595544  1.0
  O  O128  1  0.52376197  0.46636217  0.06731382  1.0
  O  O129  1  0.45592097  0.44565641  0.93769662  1.0
  O  O130  1  0.02378412  0.03365897  0.43268404  1.0
  O  O131  1  0.95598539  0.05430391  0.56231026  1.0
