# generated using pymatgen
data_AlH2C12Cl4O5
_symmetry_space_group_name_H-M   'P 1'
_cell_length_a   6.67884272
_cell_length_b   20.07781628
_cell_length_c   20.64166879
_cell_angle_alpha   101.69129511
_cell_angle_beta   89.99959255
_cell_angle_gamma   89.99593927
_symmetry_Int_Tables_number   1
_chemical_formula_structural   AlH2C12Cl4O5
_chemical_formula_sum   'Al4 H8 C48 Cl16 O20'
_cell_volume   2710.55158585
_cell_formula_units_Z   4
loop_
 _symmetry_equiv_pos_site_id
 _symmetry_equiv_pos_as_xyz
  1  'x, y, z'
loop_
 _atom_site_type_symbol
 _atom_site_label
 _atom_site_symmetry_multiplicity
 _atom_site_fract_x
 _atom_site_fract_y
 _atom_site_fract_z
 _atom_site_occupancy
  Al  Al0  1  0.23539748  0.75048329  0.24955143  1.0
  Al  Al1  1  0.76420118  0.24959931  0.75077636  1.0
  Al  Al2  1  0.73574318  0.74959830  0.25077432  1.0
  Al  Al3  1  0.26454722  0.25048009  0.74955247  1.0
  H  H4  1  0.29977282  0.49439789  0.57092373  1.0
  H  H5  1  0.70135283  0.50823532  0.43075718  1.0
  H  H6  1  0.79869104  0.00822448  0.93077932  1.0
  H  H7  1  0.20012433  0.99438215  0.07088377  1.0
  H  H8  1  0.48405687  0.66031421  0.23106693  1.0
  H  H9  1  0.51617477  0.33483241  0.74183308  1.0
  H  H10  1  0.98372934  0.83483990  0.24185404  1.0
  H  H11  1  0.01591537  0.16031489  0.73097969  1.0
  C  C12  1  0.48319187  0.83642365  0.34929789  1.0
  C  C13  1  0.51179687  0.16120858  0.65175685  1.0
  C  C14  1  0.98817632  0.66122175  0.15175306  1.0
  C  C15  1  0.01674378  0.33642962  0.84929622  1.0
  C  C16  1  0.48889320  0.82615234  0.17291191  1.0
  C  C17  1  0.51524655  0.17547658  0.82787596  1.0
  C  C18  1  0.98474008  0.67546981  0.32786920  1.0
  C  C19  1  0.01101498  0.32614983  0.67291175  1.0
  C  C20  1  0.16893041  0.49774402  0.54036932  1.0
  C  C21  1  0.83224016  0.50481238  0.46127988  1.0
  C  C22  1  0.66777103  0.00480268  0.96128783  1.0
  C  C23  1  0.33099643  0.99773181  0.04034206  1.0
  C  C24  1  0.00405005  0.45483878  0.54406217  1.0
  C  C25  1  0.99723732  0.54764741  0.45752960  1.0
  C  C26  1  0.50277090  0.04763996  0.95752355  1.0
  C  C27  1  0.49588877  0.95482884  0.04405140  1.0
  C  C28  1  0.83525177  0.45915433  0.50351110  1.0
  C  C29  1  0.16600116  0.54334492  0.49808117  1.0
  C  C30  1  0.33395938  0.04333224  0.99805416  1.0
  C  C31  1  0.66472723  0.95914240  0.00351535  1.0
  C  C32  1  0.00832678  0.40932188  0.58788477  1.0
  C  C33  1  0.99266115  0.59296048  0.41350009  1.0
  C  C34  1  0.50737297  0.09295662  0.91350243  1.0
  C  C35  1  0.49158767  0.90931062  0.08787897  1.0
  C  C36  1  0.98890583  0.63132248  0.37481201  1.0
  C  C37  1  0.01034981  0.37054238  0.62622187  1.0
  C  C38  1  0.48955310  0.87053496  0.12621509  1.0
  C  C39  1  0.51110697  0.13133006  0.87481730  1.0
  C  C40  1  0.97985571  0.60680575  0.08956458  1.0
  C  C41  1  0.01120881  0.38861552  0.91306066  1.0
  C  C42  1  0.48874416  0.88860071  0.41306378  1.0
  C  C43  1  0.52015729  0.10678236  0.58957079  1.0
  C  C44  1  0.04674240  0.41534334  0.03288322  1.0
  C  C45  1  0.89309048  0.57468371  0.97339047  1.0
  C  C46  1  0.60720791  0.07463200  0.47341955  1.0
  C  C47  1  0.45307248  0.91533103  0.53288347  1.0
  C  C48  1  0.03876427  0.36785058  0.97350702  1.0
  C  C49  1  0.91078577  0.62420726  0.03077261  1.0
  C  C50  1  0.58944066  0.12416269  0.53079033  1.0
  C  C51  1  0.46107298  0.86783834  0.47350632  1.0
  C  C52  1  0.97941211  0.45632424  0.91211223  1.0
  C  C53  1  0.02380561  0.53993858  0.09186840  1.0
  C  C54  1  0.47606459  0.03992639  0.59186986  1.0
  C  C55  1  0.52071190  0.95630016  0.41212510  1.0
  C  C56  1  0.96045291  0.50654879  0.97192508  1.0
  C  C57  1  0.01253970  0.48635276  0.03409772  1.0
  C  C58  1  0.48739962  0.98633349  0.53410076  1.0
  C  C59  1  0.53968021  0.00651332  0.47194314  1.0
  Cl  Cl60  1  0.36957468  0.59530641  0.49501965  1.0
  Cl  Cl61  1  0.63188039  0.40709545  0.50650182  1.0
  Cl  Cl62  1  0.86808500  0.90707438  0.00652136  1.0
  Cl  Cl63  1  0.13037554  0.09529102  0.99497536  1.0
  Cl  Cl64  1  0.09170823  0.52823212  0.16993980  1.0
  Cl  Cl65  1  0.98846985  0.47598889  0.83419843  1.0
  Cl  Cl66  1  0.51180096  0.97598317  0.33421681  1.0
  Cl  Cl67  1  0.40791669  0.02823443  0.66991935  1.0
  Cl  Cl68  1  0.84430863  0.70721926  0.03259045  1.0
  Cl  Cl69  1  0.07007683  0.28239179  0.97088626  1.0
  Cl  Cl70  1  0.42960670  0.78238241  0.47087780  1.0
  Cl  Cl71  1  0.65607341  0.20715932  0.53261129  1.0
  Cl  Cl72  1  0.09375694  0.38255292  0.10216665  1.0
  Cl  Cl73  1  0.76789383  0.59755138  0.90844596  1.0
  Cl  Cl74  1  0.73266996  0.09745099  0.40850653  1.0
  Cl  Cl75  1  0.40584764  0.88254805  0.60215725  1.0
  O  O76  1  0.65919609  0.80661971  0.18969596  1.0
  O  O77  1  0.34692354  0.19018381  0.80549262  1.0
  O  O78  1  0.15306263  0.69019170  0.30549941  1.0
  O  O79  1  0.84070456  0.30660680  0.68968326  1.0
  O  O80  1  0.31260002  0.81658371  0.32673167  1.0
  O  O81  1  0.67986295  0.17759120  0.67901346  1.0
  O  O82  1  0.82010034  0.67761499  0.17899717  1.0
  O  O83  1  0.18733528  0.31656780  0.82673903  1.0
  O  O84  1  0.31802574  0.81147567  0.19359155  1.0
  O  O85  1  0.68695198  0.19477686  0.81251004  1.0
  O  O86  1  0.81302375  0.69475463  0.31249177  1.0
  O  O87  1  0.18187739  0.31148407  0.69360242  1.0
  O  O88  1  0.15881633  0.68481791  0.17063327  1.0
  O  O89  1  0.84734330  0.31792118  0.82457767  1.0
  O  O90  1  0.65259002  0.81789929  0.32458494  1.0
  O  O91  1  0.34115578  0.18481947  0.67062553  1.0
  O  O92  1  0.48495132  0.70946902  0.24386200  1.0
  O  O93  1  0.51490043  0.29076326  0.75421226  1.0
  O  O94  1  0.98503030  0.79076575  0.25422134  1.0
  O  O95  1  0.01500711  0.20946407  0.74385786  1.0
