# generated using pymatgen
data_AlH7C16O7
_symmetry_space_group_name_H-M   'P 1'
_cell_length_a   6.69732627
_cell_length_b   21.92755165
_cell_length_c   25.09957141
_cell_angle_alpha   95.80835660
_cell_angle_beta   89.99986661
_cell_angle_gamma   89.99893847
_symmetry_Int_Tables_number   1
_chemical_formula_structural   AlH7C16O7
_chemical_formula_sum   'Al4 H28 C64 O28'
_cell_volume   3667.09766099
_cell_formula_units_Z   4
loop_
 _symmetry_equiv_pos_site_id
 _symmetry_equiv_pos_as_xyz
  1  'x, y, z'
loop_
 _atom_site_type_symbol
 _atom_site_label
 _atom_site_symmetry_multiplicity
 _atom_site_fract_x
 _atom_site_fract_y
 _atom_site_fract_z
 _atom_site_occupancy
  Al  Al0  1  0.78554751  0.75144680  0.74983318  1.0
  Al  Al1  1  0.21677382  0.24897419  0.25007725  1.0
  Al  Al2  1  0.28554508  0.74855259  0.75016634  1.0
  Al  Al3  1  0.71677478  0.25102603  0.24992299  1.0
  H  H4  1  0.72667360  0.57726058  0.52044118  1.0
  H  H5  1  0.26983339  0.42598498  0.47675020  1.0
  H  H6  1  0.22667797  0.92274179  0.97956161  1.0
  H  H7  1  0.76982770  0.07401344  0.02324878  1.0
  H  H8  1  0.29895183  0.53099528  0.91879353  1.0
  H  H9  1  0.69594578  0.46540756  0.07793009  1.0
  H  H10  1  0.79894250  0.96900330  0.58120757  1.0
  H  H11  1  0.19594291  0.03459311  0.42206897  1.0
  H  H12  1  0.32344477  0.60381210  0.84849745  1.0
  H  H13  1  0.67355663  0.39345588  0.14919451  1.0
  H  H14  1  0.82343926  0.89618698  0.65150523  1.0
  H  H15  1  0.17357241  0.10654382  0.35080298  1.0
  H  H16  1  0.72504027  0.66666667  0.88596164  1.0
  H  H17  1  0.27972518  0.33750729  0.11736874  1.0
  H  H18  1  0.22503686  0.83336006  0.61403875  1.0
  H  H19  1  0.77972291  0.16249034  0.38263583  1.0
  H  H20  1  0.53032804  0.53915919  0.45298325  1.0
  H  H21  1  0.35032882  0.53504920  0.60097669  1.0
  H  H22  1  0.03033836  0.96084208  0.04701916  1.0
  H  H23  1  0.85032741  0.96494963  0.89902515  1.0
  H  H24  1  0.65300820  0.56390146  0.99644375  1.0
  H  H25  1  0.46451765  0.36953050  0.05013127  1.0
  H  H26  1  0.15300099  0.93610476  0.50355712  1.0
  H  H27  1  0.96450777  0.13046752  0.44987389  1.0
  H  H28  1  0.54169298  0.66966287  0.75019768  1.0
  H  H29  1  0.46340709  0.32639424  0.27557486  1.0
  H  H30  1  0.04168408  0.83033820  0.74980452  1.0
  H  H31  1  0.96341448  0.17360639  0.22442510  1.0
  C  C32  1  0.53259402  0.82025149  0.68179496  1.0
  C  C33  1  0.46888072  0.17925918  0.31806325  1.0
  C  C34  1  0.03260115  0.67974899  0.81820564  1.0
  C  C35  1  0.96887207  0.32073831  0.18193751  1.0
  C  C36  1  0.53363093  0.82649865  0.82664800  1.0
  C  C37  1  0.46820661  0.17452417  0.17293833  1.0
  C  C38  1  0.03364866  0.67350005  0.67334899  1.0
  C  C39  1  0.96818594  0.32547990  0.32706003  1.0
  C  C40  1  0.82415686  0.50059897  0.46668013  1.0
  C  C41  1  0.16961772  0.50204729  0.53061433  1.0
  C  C42  1  0.32416047  0.99940275  0.03332076  1.0
  C  C43  1  0.66961368  0.99795249  0.96938292  1.0
  C  C44  1  0.97820778  0.45678395  0.45362143  1.0
  C  C45  1  0.01606998  0.54574495  0.54365969  1.0
  C  C46  1  0.47821067  0.04321805  0.04637932  1.0
  C  C47  1  0.51607320  0.95425312  0.95633893  1.0
  C  C48  1  0.14950523  0.45886695  0.48607856  1.0
  C  C49  1  0.84601182  0.54410829  0.51072733  1.0
  C  C50  1  0.64949714  0.04113348  0.01392015  1.0
  C  C51  1  0.34602156  0.95589143  0.98927413  1.0
  C  C52  1  0.96564614  0.41129373  0.40961576  1.0
  C  C53  1  0.02868541  0.59011259  0.58858352  1.0
  C  C54  1  0.46564736  0.08870894  0.09038220  1.0
  C  C55  1  0.52869023  0.90988436  0.91141788  1.0
  C  C56  1  0.03082223  0.62892744  0.62689373  1.0
  C  C57  1  0.97019561  0.37086715  0.37263604  1.0
  C  C58  1  0.53081780  0.87107396  0.87310287  1.0
  C  C59  1  0.47021794  0.12913467  0.12736272  1.0
  C  C60  1  0.17488651  0.56095995  0.91111736  1.0
  C  C61  1  0.82288681  0.43707780  0.08676562  1.0
  C  C62  1  0.67488491  0.93903588  0.58888148  1.0
  C  C63  1  0.32288976  0.06292281  0.41323530  1.0
  C  C64  1  0.18739344  0.60111133  0.87194887  1.0
  C  C65  1  0.81056204  0.39712346  0.12624104  1.0
  C  C66  1  0.68738648  0.89888739  0.62805196  1.0
  C  C67  1  0.31056739  0.10287678  0.37375990  1.0
  C  C68  1  0.02423022  0.63865988  0.86189547  1.0
  C  C69  1  0.97607987  0.36149525  0.13784770  1.0
  C  C70  1  0.52422545  0.86133832  0.63810474  1.0
  C  C71  1  0.47608614  0.13850312  0.36215304  1.0
  C  C72  1  0.85152146  0.63718266  0.89295243  1.0
  C  C73  1  0.15136868  0.36532984  0.10818190  1.0
  C  C74  1  0.35151632  0.86281967  0.60704822  1.0
  C  C75  1  0.65137548  0.13466871  0.39182041  1.0
  C  C76  1  0.83899507  0.59865591  0.93384365  1.0
  C  C77  1  0.16549570  0.40415668  0.06747399  1.0
  C  C78  1  0.33899839  0.90134490  0.56615501  1.0
  C  C79  1  0.66549853  0.09584188  0.43252910  1.0
  C  C80  1  0.00106035  0.55902578  0.94272737  1.0
  C  C81  1  0.99923628  0.44154512  0.05659620  1.0
  C  C82  1  0.50106040  0.94097297  0.55727246  1.0
  C  C83  1  0.49923626  0.05845407  0.44340492  1.0
  C  C84  1  0.99407559  0.51855748  0.98295287  1.0
  C  C85  1  0.00417245  0.48231064  0.01672419  1.0
  C  C86  1  0.49407447  0.98143974  0.51704601  1.0
  C  C87  1  0.50417512  0.01768648  0.48327828  1.0
  C  C88  1  0.63368691  0.50174285  0.43657946  1.0
  C  C89  1  0.35129008  0.50182472  0.56432136  1.0
  C  C90  1  0.13368287  0.99825947  0.06342124  1.0
  C  C91  1  0.85129230  0.99817634  0.93567609  1.0
  C  C92  1  0.65857811  0.59964622  0.96789854  1.0
  C  C93  1  0.35705583  0.40501161  0.03865135  1.0
  C  C94  1  0.15857731  0.90036125  0.53210153  1.0
  C  C95  1  0.85704950  0.09498539  0.46135153  1.0
  O  O96  1  0.36416394  0.80806468  0.80871811  1.0
  O  O97  1  0.63738392  0.19325655  0.19108476  1.0
  O  O98  1  0.86417797  0.69193977  0.69127772  1.0
  O  O99  1  0.13736698  0.30674783  0.30891197  1.0
  O  O100  1  0.70400903  0.80676567  0.69944908  1.0
  O  O101  1  0.29741346  0.19263720  0.30052714  1.0
  O  O102  1  0.20401550  0.69323651  0.80055494  1.0
  O  O103  1  0.79740546  0.30736352  0.19947341  1.0
  O  O104  1  0.70502973  0.81096491  0.80805511  1.0
  O  O105  1  0.29777979  0.19141950  0.19135849  1.0
  O  O106  1  0.20504487  0.68902934  0.69194730  1.0
  O  O107  1  0.79776927  0.30858076  0.30864206  1.0
  O  O108  1  0.86550172  0.69765400  0.80116670  1.0
  O  O109  1  0.13706744  0.30365021  0.19878231  1.0
  O  O110  1  0.36549796  0.80234292  0.69883112  1.0
  O  O111  1  0.63707128  0.19634719  0.30121721  1.0
  O  O112  1  0.53715701  0.71349119  0.74824816  1.0
  O  O113  1  0.46558386  0.28742032  0.25347749  1.0
  O  O114  1  0.03715375  0.78650972  0.75175244  1.0
  O  O115  1  0.96558869  0.21257993  0.24652327  1.0
  O  O116  1  0.58614232  0.46635980  0.39796180  1.0
  O  O117  1  0.49533967  0.46831277  0.55340625  1.0
  O  O118  1  0.08613634  0.03364469  0.10203739  1.0
  O  O119  1  0.99534181  0.03168685  0.94659146  1.0
  O  O120  1  0.52191052  0.63659896  0.96564508  1.0
  O  O121  1  0.40454848  0.44028054  0.00588237  1.0
  O  O122  1  0.02190598  0.86340861  0.53435715  1.0
  O  O123  1  0.90454103  0.05971820  0.49412206  1.0
