# generated using pymatgen
data_AlH10C12NO5
_symmetry_space_group_name_H-M   'P 1'
_cell_length_a   6.65355685
_cell_length_b   11.09439832
_cell_length_c   14.87717429
_cell_angle_alpha   69.22623676
_cell_angle_beta   86.30545274
_cell_angle_gamma   72.56884161
_symmetry_Int_Tables_number   1
_chemical_formula_structural   AlH10C12NO5
_chemical_formula_sum   'Al2 H20 C24 N2 O10'
_cell_volume   978.56648702
_cell_formula_units_Z   2
loop_
 _symmetry_equiv_pos_site_id
 _symmetry_equiv_pos_as_xyz
  1  'x, y, z'
loop_
 _atom_site_type_symbol
 _atom_site_label
 _atom_site_symmetry_multiplicity
 _atom_site_fract_x
 _atom_site_fract_y
 _atom_site_fract_z
 _atom_site_occupancy
  Al  Al0  1  0.49551015  0.00213064  0.49961435  1.0
  Al  Al1  1  0.99525012  0.00208555  0.50014654  1.0
  H  H2  1  0.73376010  0.98580418  0.62053298  1.0
  H  H3  1  0.25614903  0.01757910  0.37931998  1.0
  H  H4  1  0.64039949  0.60487135  0.54739433  1.0
  H  H5  1  0.35384624  0.39545182  0.45993750  1.0
  H  H6  1  0.79329749  0.51384825  0.07096931  1.0
  H  H7  1  0.25993959  0.45901047  0.91428236  1.0
  H  H8  1  0.56093587  0.83988327  0.79391061  1.0
  H  H9  1  0.66403617  0.67592712  0.95754619  1.0
  H  H10  1  0.39362883  0.18763156  0.21415912  1.0
  H  H11  1  0.28201611  0.35742224  0.05346510  1.0
  H  H12  1  0.73715878  0.26047043  0.56033070  1.0
  H  H13  1  0.55968171  0.40136475  0.57676023  1.0
  H  H14  1  0.25052932  0.74421506  0.44332195  1.0
  H  H15  1  0.42490701  0.60838586  0.41882531  1.0
  H  H16  1  0.99997473  0.44356176  0.20083580  1.0
  H  H17  1  0.89156686  0.37706371  0.31384863  1.0
  H  H18  1  0.07491972  0.26698853  0.26727080  1.0
  H  H19  1  0.94630756  0.69709282  0.73008882  1.0
  H  H20  1  0.15312243  0.62322507  0.66888521  1.0
  H  H21  1  0.07332534  0.52025716  0.77849692  1.0
  C  C22  1  0.29227426  0.85353650  0.66585637  1.0
  C  C23  1  0.13852103  0.22337211  0.51310786  1.0
  C  C24  1  0.69931795  0.15035356  0.33341589  1.0
  C  C25  1  0.85333560  0.77923963  0.48950952  1.0
  C  C26  1  0.05935135  0.36454284  0.50975170  1.0
  C  C27  1  0.93552977  0.63588578  0.49814353  1.0
  C  C28  1  0.85213845  0.42118228  0.53664598  1.0
  C  C29  1  0.14552308  0.57758296  0.47497193  1.0
  C  C30  1  0.79779724  0.55690925  0.52898118  1.0
  C  C31  1  0.19772537  0.44329088  0.47976640  1.0
  C  C32  1  0.65104253  0.25483416  0.23524752  1.0
  C  C33  1  0.34464919  0.74804163  0.76346843  1.0
  C  C34  1  0.76476386  0.34964243  0.19470534  1.0
  C  C35  1  0.70231038  0.44298805  0.10171279  1.0
  C  C36  1  0.25552864  0.63989964  0.79811442  1.0
  C  C37  1  0.32339049  0.54460342  0.88995787  1.0
  C  C38  1  0.49361204  0.75620964  0.82205115  1.0
  C  C39  1  0.55278740  0.66256992  0.91399763  1.0
  C  C40  1  0.48026008  0.26040001  0.18165871  1.0
  C  C41  1  0.41934937  0.35567388  0.09049280  1.0
  C  C42  1  0.53087390  0.44991991  0.04761008  1.0
  C  C43  1  0.46902774  0.55293280  0.95022973  1.0
  C  C44  1  0.94234425  0.35984534  0.24652449  1.0
  C  C45  1  0.09909400  0.61883497  0.74092566  1.0
  N  N46  1  0.71060451  0.34899400  0.57152741  1.0
  N  N47  1  0.29610588  0.64457272  0.45221131  1.0
  O  O48  1  0.43045268  0.91359822  0.62902221  1.0
  O  O49  1  0.00653232  0.15477761  0.52927706  1.0
  O  O50  1  0.87631718  0.12448096  0.37549016  1.0
  O  O51  1  0.65689284  0.82674996  0.49964979  1.0
  O  O52  1  0.55968881  0.09133684  0.37007859  1.0
  O  O53  1  0.98386297  0.84921954  0.47101431  1.0
  O  O54  1  0.11416595  0.87909132  0.62489100  1.0
  O  O55  1  0.33390206  0.17689914  0.50021911  1.0
  O  O56  1  0.72805081  0.02281578  0.55078227  1.0
  O  O57  1  0.26255922  0.98091402  0.44905320  1.0
