# generated using pymatgen
data_AlH12C33N7O18
_symmetry_space_group_name_H-M   'P 1'
_cell_length_a   4.23912563
_cell_length_b   18.00673174
_cell_length_c   18.10871501
_cell_angle_alpha   60.52894451
_cell_angle_beta   89.26864114
_cell_angle_gamma   86.98940289
_symmetry_Int_Tables_number   1
_chemical_formula_structural   AlH12C33N7O18
_chemical_formula_sum   'Al1 H12 C33 N7 O18'
_cell_volume   1201.62987491
_cell_formula_units_Z   1
loop_
 _symmetry_equiv_pos_site_id
 _symmetry_equiv_pos_as_xyz
  1  'x, y, z'
loop_
 _atom_site_type_symbol
 _atom_site_label
 _atom_site_symmetry_multiplicity
 _atom_site_fract_x
 _atom_site_fract_y
 _atom_site_fract_z
 _atom_site_occupancy
  Al  Al0  1  0.98453843  0.50620632  0.00494371  1.0
  H  H1  1  0.33943879  0.41583524  0.68959952  1.0
  H  H2  1  0.66715483  0.89500563  0.91694167  1.0
  H  H3  1  0.70473847  0.19217805  0.39426906  1.0
  H  H4  1  0.54076609  0.89528304  0.68173575  1.0
  H  H5  1  0.24272138  0.40881273  0.39727514  1.0
  H  H6  1  0.69322194  0.18951665  0.91345967  1.0
  H  H7  1  0.02711877  0.33909704  0.00185975  1.0
  H  H8  1  0.99893633  0.51338510  0.83566691  1.0
  H  H9  1  0.57411938  0.56552765  0.21663359  1.0
  H  H10  1  0.36233604  0.22949754  0.20393632  1.0
  H  H11  1  0.79724615  0.70012048  0.72643087  1.0
  H  H12  1  0.88029334  0.73368385  0.06306303  1.0
  C  C13  1  0.50653197  0.43812998  0.93347611  1.0
  C  C14  1  0.46577255  0.63449315  0.93559150  1.0
  C  C15  1  0.48788047  0.43651302  0.13238145  1.0
  C  C16  1  0.41379072  0.38311498  0.75601808  1.0
  C  C17  1  0.51509156  0.29691172  0.79618880  1.0
  C  C18  1  0.63196536  0.85945904  0.88364484  1.0
  C  C19  1  0.62478816  0.90337734  0.79436833  1.0
  C  C20  1  0.47433472  0.29560234  0.40532233  1.0
  C  C21  1  0.60599673  0.25766778  0.35991617  1.0
  C  C22  1  0.55464673  0.86012830  0.75079035  1.0
  C  C23  1  0.49397366  0.77335973  0.79515492  1.0
  C  C24  1  0.50344998  0.72898637  0.88398396  1.0
  C  C25  1  0.56702016  0.77356652  0.92783636  1.0
  C  C26  1  0.61042834  0.30311275  0.27169235  1.0
  C  C27  1  0.47876125  0.38725579  0.22685082  1.0
  C  C28  1  0.33995832  0.42438188  0.27308667  1.0
  C  C29  1  0.34179201  0.37931592  0.36145974  1.0
  C  C30  1  0.61771530  0.25702212  0.88072658  1.0
  C  C31  1  0.62651868  0.30237140  0.92485451  1.0
  C  C32  1  0.51506622  0.38912903  0.88514488  1.0
  C  C33  1  0.40577168  0.42887839  0.79989931  1.0
  C  C34  1  0.45838857  0.25190576  0.62290029  1.0
  C  C35  1  0.61490533  0.12100928  0.75311708  1.0
  C  C36  1  0.51867113  0.24875850  0.74968413  1.0
  C  C37  1  0.48322545  0.24769292  0.49881958  1.0
  C  C38  1  0.58516129  0.11986617  0.61949007  1.0
  C  C39  1  0.64576093  0.99693193  0.74709604  1.0
  C  C40  1  0.74656253  0.24904919  0.01510076  1.0
  C  C41  1  0.29362112  0.52123368  0.74683959  1.0
  C  C42  1  0.17696860  0.51216549  0.23346467  1.0
  C  C43  1  0.76704231  0.25661605  0.23003312  1.0
  C  C44  1  0.37567739  0.73361215  0.74526359  1.0
  C  C45  1  0.46676207  0.73664096  0.01838417  1.0
  N  N46  1  0.55248820  0.16435465  0.66515397  1.0
  N  N47  1  0.61522055  0.16575169  0.79382101  1.0
  N  N48  1  0.42629008  0.29248879  0.66765576  1.0
  N  N49  1  0.41055734  0.29229103  0.53910198  1.0
  N  N50  1  0.56620932  0.16378174  0.53509275  1.0
  N  N51  1  0.66490442  0.03637386  0.79355348  1.0
  N  N52  1  0.62834557  0.03508262  0.66191633  1.0
  O  O53  1  0.24950609  0.48782007  0.09451336  1.0
  O  O54  1  0.27006100  0.42855560  0.98105749  1.0
  O  O55  1  0.22749406  0.60097335  0.92423332  1.0
  O  O56  1  0.72923205  0.42516196  0.09539081  1.0
  O  O57  1  0.69087428  0.59379043  0.98924784  1.0
  O  O58  1  0.73494903  0.48552785  0.92378930  1.0
  O  O59  1  0.94709008  0.28423041  0.04506758  1.0
  O  O60  1  0.66999793  0.17602146  0.05819064  1.0
  O  O61  1  0.09960684  0.55567486  0.78325012  1.0
  O  O62  1  0.37421857  0.56266426  0.67369763  1.0
  O  O63  1  0.33658392  0.58000595  0.21130436  1.0
  O  O64  1  0.88578615  0.51623657  0.22906992  1.0
  O  O65  1  0.59906480  0.22340364  0.19484878  1.0
  O  O66  1  0.05794236  0.24741432  0.23592376  1.0
  O  O67  1  0.56591903  0.69013686  0.72142296  1.0
  O  O68  1  0.09050325  0.74559222  0.72792785  1.0
  O  O69  1  0.64752955  0.73503978  0.07736701  1.0
  O  O70  1  0.19169220  0.71370643  0.03232930  1.0
