# generated using pymatgen
data_Zn2H20C41Br2(NO3)6
_symmetry_space_group_name_H-M   'P 1'
_cell_length_a   10.93426151
_cell_length_b   15.86509876
_cell_length_c   17.10333093
_cell_angle_alpha   87.06193370
_cell_angle_beta   86.37170183
_cell_angle_gamma   87.70573112
_symmetry_Int_Tables_number   1
_chemical_formula_structural   Zn2H20C41Br2(NO3)6
_chemical_formula_sum   'Zn2 H20 C41 Br2 N6 O18'
_cell_volume   2955.11423110
_cell_formula_units_Z   1
loop_
 _symmetry_equiv_pos_site_id
 _symmetry_equiv_pos_as_xyz
  1  'x, y, z'
loop_
 _atom_site_type_symbol
 _atom_site_label
 _atom_site_symmetry_multiplicity
 _atom_site_fract_x
 _atom_site_fract_y
 _atom_site_fract_z
 _atom_site_occupancy
  Zn  Zn0  1  0.47991346  0.58992392  0.49886636  1.0
  Zn  Zn1  1  0.50609879  0.41368005  0.49090166  1.0
  H  H2  1  0.42073323  0.65907225  0.24995282  1.0
  H  H3  1  0.41552394  0.39233607  0.10839802  1.0
  H  H4  1  0.31551491  0.36707563  0.88605029  1.0
  H  H5  1  0.43882836  0.38821643  0.25397308  1.0
  H  H6  1  0.54480377  0.73064443  0.39037148  1.0
  H  H7  1  0.38501020  0.71728733  0.61687682  1.0
  H  H8  1  0.36725834  0.11822870  0.55268094  1.0
  H  H9  1  0.36638821  0.27840923  0.54320898  1.0
  H  H10  1  0.93373951  0.47330165  0.21930904  1.0
  H  H11  1  0.14709985  0.41761792  0.23747456  1.0
  H  H12  1  0.23607130  0.42713124  0.36631631  1.0
  H  H13  1  0.08707744  0.51140942  0.61948919  1.0
  H  H14  1  0.56338376  0.59177541  0.74867789  1.0
  H  H15  1  0.52925557  0.58741400  0.89553212  1.0
  H  H16  1  0.39937112  0.66363442  0.10371107  1.0
  H  H17  1  0.27182383  0.24851907  0.72656956  1.0
  H  H18  1  0.65064712  0.89079023  0.27335612  1.0
  H  H19  1  0.83244354  0.35668397  0.35536495  1.0
  H  H20  1  0.71474119  0.45608201  0.27919517  1.0
  H  H21  1  0.36253381  0.97319238  0.71079696  1.0
  C  C22  1  0.46089787  0.51886933  0.34458133  1.0
  C  C23  1  0.94177315  0.50023787  0.41709714  1.0
  C  C24  1  0.86617748  0.51870681  0.48578138  1.0
  C  C25  1  0.92005235  0.51971758  0.55685471  1.0
  C  C26  1  0.04700573  0.50611199  0.56332865  1.0
  C  C27  1  0.12000319  0.48382495  0.49849236  1.0
  C  C28  1  0.43247957  0.52341653  0.25989116  1.0
  C  C29  1  0.42809077  0.44803726  0.22041294  1.0
  C  C30  1  0.41516623  0.45005393  0.14030683  1.0
  C  C31  1  0.40714086  0.52846923  0.09811871  1.0
  C  C32  1  0.40626806  0.60386799  0.13789159  1.0
  C  C33  1  0.72825434  0.52231468  0.48474591  1.0
  C  C34  1  0.41804802  0.60127412  0.21849128  1.0
  C  C35  1  0.48942612  0.54128196  0.86053701  1.0
  C  C36  1  0.50808752  0.54339513  0.77953359  1.0
  C  C37  1  0.41848886  0.47778076  0.89888047  1.0
  C  C38  1  0.45642853  0.48367939  0.73495073  1.0
  C  C39  1  0.38569546  0.41994014  0.77349245  1.0
  C  C40  1  0.36958527  0.41615720  0.85527798  1.0
  C  C41  1  0.44482088  0.23972858  0.52160790  1.0
  C  C42  1  0.44481427  0.15245278  0.52593071  1.0
  C  C43  1  0.54714053  0.10707201  0.49455347  1.0
  C  C44  1  0.48071309  0.49014271  0.64757049  1.0
  C  C45  1  0.64730590  0.15160153  0.46112947  1.0
  C  C46  1  0.64193947  0.24021553  0.46057649  1.0
  C  C47  1  0.50750784  0.85332236  0.43909635  1.0
  C  C48  1  0.50764013  0.76538048  0.44052687  1.0
  C  C49  1  0.46214338  0.89439658  0.50695243  1.0
  C  C50  1  0.41812104  0.75749863  0.56694553  1.0
  C  C51  1  0.41641897  0.84513645  0.57252069  1.0
  C  C52  1  0.25668197  0.47802804  0.50407943  1.0
  C  C53  1  0.89660795  0.50209033  0.33997787  1.0
  C  C54  1  0.96928951  0.47010103  0.27767506  1.0
  C  C55  1  0.09107391  0.44085297  0.28737604  1.0
  C  C56  1  0.14068601  0.44665010  0.35887267  1.0
  C  C57  1  0.06859728  0.47611100  0.42466718  1.0
  C  C58  1  0.31467215  0.36200933  0.72911024  1.0
  C  C59  1  0.54529259  0.90140191  0.36457826  1.0
  C  C60  1  0.75709885  0.28732245  0.43566529  1.0
  C  C61  1  0.78617957  0.55473424  0.31717583  1.0
  C  C62  1  0.36987175  0.87774165  0.64946528  1.0
  Br  Br63  1  0.82314925  0.53652653  0.65173283  1.0
  Br  Br64  1  0.78457833  0.09366740  0.41422864  1.0
  N  N65  1  0.41027108  0.53741317  0.01557361  1.0
  N  N66  1  0.39749582  0.46968158  0.98107475  1.0
  N  N67  1  0.54126603  0.28279877  0.48921862  1.0
  N  N68  1  0.55716414  0.01772984  0.49837517  1.0
  N  N69  1  0.45589715  0.98284164  0.50607417  1.0
  N  N70  1  0.46233192  0.71895971  0.50277904  1.0
  O  O71  1  0.46266511  0.58758497  0.37978069  1.0
  O  O72  1  0.48267385  0.44506834  0.37486866  1.0
  O  O73  1  0.66909527  0.59157275  0.49202708  1.0
  O  O74  1  0.68292762  0.45046947  0.47765336  1.0
  O  O75  1  0.48596060  0.56494825  0.61744775  1.0
  O  O76  1  0.49558202  0.42204467  0.61137757  1.0
  O  O77  1  0.30313464  0.54867909  0.51341418  1.0
  O  O78  1  0.31416984  0.40748883  0.49687921  1.0
  O  O79  1  0.24521637  0.38427750  0.67831458  1.0
  O  O80  1  0.32886246  0.27949439  0.75537811  1.0
  O  O81  1  0.49950056  0.96911906  0.34224921  1.0
  O  O82  1  0.63393543  0.85795337  0.32271942  1.0
  O  O83  1  0.84206207  0.28631396  0.47813967  1.0
  O  O84  1  0.75623344  0.32490951  0.36312314  1.0
  O  O85  1  0.77238828  0.62930758  0.32995492  1.0
  O  O86  1  0.70646984  0.51756876  0.27236353  1.0
  O  O87  1  0.31582976  0.83493613  0.70079720  1.0
  O  O88  1  0.39551337  0.96008981  0.65794273  1.0
