# generated using pymatgen
data_ZnH2C14Br3NO4
_symmetry_space_group_name_H-M   'P 1'
_cell_length_a   14.00165703
_cell_length_b   14.84954065
_cell_length_c   16.21313105
_cell_angle_alpha   89.06172581
_cell_angle_beta   89.52462470
_cell_angle_gamma   82.81334405
_symmetry_Int_Tables_number   1
_chemical_formula_structural   ZnH2C14Br3NO4
_chemical_formula_sum   'Zn2 H4 C28 Br6 N2 O8'
_cell_volume   3344.00677593
_cell_formula_units_Z   2
loop_
 _symmetry_equiv_pos_site_id
 _symmetry_equiv_pos_as_xyz
  1  'x, y, z'
loop_
 _atom_site_type_symbol
 _atom_site_label
 _atom_site_symmetry_multiplicity
 _atom_site_fract_x
 _atom_site_fract_y
 _atom_site_fract_z
 _atom_site_occupancy
  Zn  Zn0  1  0.49974055  0.59497260  0.49849071  1.0
  Zn  Zn1  1  0.50025584  0.40503376  0.50151609  1.0
  H  H2  1  0.97567844  0.60421793  0.49997460  1.0
  H  H3  1  0.02432262  0.39575312  0.50003496  1.0
  H  H4  1  0.49539479  0.08348739  0.63268606  1.0
  H  H5  1  0.50460449  0.91653535  0.36730825  1.0
  C  C6  1  0.49964304  0.50065686  0.66083972  1.0
  C  C7  1  0.50035266  0.49935499  0.33916026  1.0
  C  C8  1  0.49967226  0.50070517  0.75016955  1.0
  C  C9  1  0.50031719  0.49929987  0.24983297  1.0
  C  C10  1  0.50147502  0.95228758  0.57608819  1.0
  C  C11  1  0.49853630  0.04773583  0.42390794  1.0
  C  C12  1  0.50398289  0.90595556  0.50050474  1.0
  C  C13  1  0.49602175  0.09405903  0.49949086  1.0
  C  C14  1  0.50259587  0.95368098  0.42481565  1.0
  C  C15  1  0.49741349  0.04633562  0.57518362  1.0
  C  C16  1  0.50695165  0.81008440  0.49957002  1.0
  C  C17  1  0.49306157  0.18991932  0.50042688  1.0
  C  C18  1  0.31295430  0.52871515  0.50022092  1.0
  C  C19  1  0.68704336  0.47124992  0.49977081  1.0
  C  C20  1  0.79100087  0.46255548  0.49982413  1.0
  C  C21  1  0.20898828  0.53742518  0.50017120  1.0
  C  C22  1  0.97864488  0.46109972  0.49997013  1.0
  C  C23  1  0.02135647  0.53889024  0.50005283  1.0
  C  C24  1  0.12160438  0.53876181  0.50010107  1.0
  C  C25  1  0.87838507  0.46121142  0.49988754  1.0
  C  C26  1  0.49951871  0.58212109  0.04222773  1.0
  C  C27  1  0.50045071  0.41789478  0.95777847  1.0
  C  C28  1  0.50006057  0.49952588  0.08777682  1.0
  C  C29  1  0.49992486  0.50048256  0.91222322  1.0
  C  C30  1  0.50053358  0.41750843  0.04387183  1.0
  C  C31  1  0.49948417  0.58249322  0.95613062  1.0
  C  C32  1  0.50022797  0.49910624  0.17471572  1.0
  C  C33  1  0.49976031  0.50090218  0.82528801  1.0
  Br  Br34  1  0.49871786  0.69178460  0.89486464  1.0
  Br  Br35  1  0.50129353  0.30822176  0.10514273  1.0
  Br  Br36  1  0.49890570  0.69054875  0.10128648  1.0
  Br  Br37  1  0.50111266  0.30945899  0.89871777  1.0
  Br  Br38  1  0.50368488  0.88743674  0.67668300  1.0
  Br  Br39  1  0.49631379  0.11259079  0.32330634  1.0
  N  N40  1  0.49139740  0.26808910  0.50314414  1.0
  N  N41  1  0.50860802  0.73191932  0.49686015  1.0
  O  O42  1  0.49843835  0.57771960  0.62504792  1.0
  O  O43  1  0.50156351  0.42228340  0.37495458  1.0
  O  O44  1  0.50084465  0.42356782  0.62735429  1.0
  O  O45  1  0.49915099  0.57643388  0.37264084  1.0
  O  O46  1  0.35241032  0.60156328  0.49923529  1.0
  O  O47  1  0.64758306  0.39840178  0.50075707  1.0
  O  O48  1  0.35526625  0.44746257  0.50124360  1.0
  O  O49  1  0.64474134  0.55249777  0.49874444  1.0
