# generated using pymatgen
data_MgH3C7O3
_symmetry_space_group_name_H-M   'P 1'
_cell_length_a   6.83790318
_cell_length_b   22.09962466
_cell_length_c   22.10384315
_cell_angle_alpha   118.95030249
_cell_angle_beta   95.90526393
_cell_angle_gamma   95.92553436
_symmetry_Int_Tables_number   1
_chemical_formula_structural   MgH3C7O3
_chemical_formula_sum   'Mg6 H18 C42 O18'
_cell_volume   2862.02766106
_cell_formula_units_Z   6
loop_
 _symmetry_equiv_pos_site_id
 _symmetry_equiv_pos_as_xyz
  1  'x, y, z'
loop_
 _atom_site_type_symbol
 _atom_site_label
 _atom_site_symmetry_multiplicity
 _atom_site_fract_x
 _atom_site_fract_y
 _atom_site_fract_z
 _atom_site_occupancy
  Mg  Mg0  1  0.98816598  0.67045409  0.28734138  1.0
  Mg  Mg1  1  0.66778119  0.32892944  0.71218120  1.0
  Mg  Mg2  1  0.70073250  0.71265660  0.38302096  1.0
  Mg  Mg3  1  0.95570368  0.28777441  0.61674954  1.0
  Mg  Mg4  1  0.31773809  0.61696590  0.32956742  1.0
  Mg  Mg5  1  0.33881018  0.38328686  0.67108377  1.0
  H  H6  1  0.14678389  0.09281118  0.52583071  1.0
  H  H7  1  0.98199603  0.99862241  0.46877216  1.0
  H  H8  1  0.78257657  0.88039553  0.39946027  1.0
  H  H9  1  0.67422701  0.00114959  0.52723593  1.0
  H  H10  1  0.87344438  0.11931917  0.59760633  1.0
  H  H11  1  0.50853049  0.90728578  0.47225019  1.0
  H  H12  1  0.62081752  0.47407153  0.56694006  1.0
  H  H13  1  0.51329517  0.53141675  0.53000006  1.0
  H  H14  1  0.38296279  0.60066588  0.48098978  1.0
  H  H15  1  0.14664747  0.47276722  0.47383610  1.0
  H  H16  1  0.27604016  0.40244759  0.52174156  1.0
  H  H17  1  0.03615885  0.52760422  0.43493540  1.0
  H  H18  1  0.05413299  0.43306015  0.90723933  1.0
  H  H19  1  0.98352487  0.47001335  0.00143357  1.0
  H  H20  1  0.90220121  0.51906010  0.11966801  1.0
  H  H21  1  0.67309400  0.52612453  0.99883716  1.0
  H  H22  1  0.75432596  0.47828985  0.88062261  1.0
  H  H23  1  0.60143255  0.56497686  0.09268732  1.0
  C  C24  1  0.30750444  0.22306249  0.59992200  1.0
  C  C25  1  0.41722205  0.16425586  0.58200060  1.0
  C  C26  1  0.30574868  0.09597376  0.54090093  1.0
  C  C27  1  0.26607045  0.96447871  0.47732109  1.0
  C  C28  1  0.05760077  0.95379381  0.45516403  1.0
  C  C29  1  0.94304293  0.88718693  0.41568980  1.0
  C  C30  1  0.02772696  0.82589529  0.39454698  1.0
  C  C31  1  0.38955318  0.03547650  0.51982408  1.0
  C  C32  1  0.59829132  0.04601592  0.54152230  1.0
  C  C33  1  0.71280464  0.11257819  0.58160138  1.0
  C  C34  1  0.62788347  0.17392797  0.60371247  1.0
  C  C35  1  0.23830001  0.83567665  0.41635994  1.0
  C  C36  1  0.34967295  0.90402289  0.45692999  1.0
  C  C37  1  0.34827030  0.77700130  0.39904501  1.0
  C  C38  1  0.70760788  0.40007304  0.62317259  1.0
  C  C39  1  0.83525428  0.41800007  0.58229089  1.0
  C  C40  1  0.76475292  0.45903357  0.55504608  1.0
  C  C41  1  0.78865541  0.52268376  0.48715798  1.0
  C  C42  1  0.60236371  0.54489994  0.49866546  1.0
  C  C43  1  0.52722611  0.58441000  0.47156803  1.0
  C  C44  1  0.63315591  0.60553838  0.43142199  1.0
  C  C45  1  0.86964810  0.48015715  0.51565124  1.0
  C  C46  1  0.05672365  0.45846618  0.50448037  1.0
  C  C47  1  0.13129284  0.41839355  0.53096192  1.0
  C  C48  1  0.02427932  0.39629761  0.57023600  1.0
  C  C49  1  0.82189489  0.58365267  0.41934735  1.0
  C  C50  1  0.89266940  0.54299579  0.44703023  1.0
  C  C51  1  0.94908289  0.60093886  0.37792408  1.0
  C  C52  1  0.08434625  0.37683981  0.77693985  1.0
  C  C53  1  0.25295832  0.41769463  0.83571661  1.0
  C  C54  1  0.20991853  0.44490844  0.90402171  1.0
  C  C55  1  0.30166605  0.51285953  0.03551323  1.0
  C  C56  1  0.10388917  0.50135590  0.04624692  1.0
  C  C57  1  0.05593602  0.52844170  0.11285442  1.0
  C  C58  1  0.20196963  0.56860349  0.17410934  1.0
  C  C59  1  0.35421492  0.48434536  0.96450304  1.0
  C  C60  1  0.55240781  0.49553011  0.95393946  1.0
  C  C61  1  0.60036226  0.46905473  0.88737299  1.0
  C  C62  1  0.45400378  0.42977076  0.82604392  1.0
  C  C63  1  0.40280363  0.58066072  0.16430435  1.0
  C  C64  1  0.44579209  0.55292684  0.09595144  1.0
  C  C65  1  0.57139991  0.62212807  0.22299683  1.0
  O  O66  1  0.90897357  0.76284585  0.35576238  1.0
  O  O67  1  0.12282651  0.21231732  0.57508045  1.0
  O  O68  1  0.40324733  0.28628725  0.64241672  1.0
  O  O69  1  0.53305138  0.78803592  0.42388967  1.0
  O  O70  1  0.25291109  0.71361995  0.35702496  1.0
  O  O71  1  0.74681041  0.23689287  0.64310962  1.0
  O  O72  1  0.55321652  0.64427810  0.40708426  1.0
  O  O73  1  0.54777839  0.42491075  0.63735358  1.0
  O  O74  1  0.76082177  0.35754354  0.64384427  1.0
  O  O75  1  0.10901978  0.57606898  0.36408941  1.0
  O  O76  1  0.89575592  0.64296200  0.35656543  1.0
  O  O77  1  0.10380874  0.35686611  0.59376524  1.0
  O  O78  1  0.14617793  0.59296952  0.23714885  1.0
  O  O79  1  0.91033463  0.36275264  0.78765258  1.0
  O  O80  1  0.11694605  0.35609862  0.71372104  1.0
  O  O81  1  0.74518742  0.63602257  0.21200304  1.0
  O  O82  1  0.53925654  0.64345340  0.28635604  1.0
  O  O83  1  0.50995825  0.40620216  0.76309589  1.0
