# generated using pymatgen
data_Zn2H24C27N2O9
_symmetry_space_group_name_H-M   'P 1'
_cell_length_a   9.72546362
_cell_length_b   10.95948265
_cell_length_c   11.10065274
_cell_angle_alpha   91.00079973
_cell_angle_beta   90.28037424
_cell_angle_gamma   90.71388315
_symmetry_Int_Tables_number   1
_chemical_formula_structural   Zn2H24C27N2O9
_chemical_formula_sum   'Zn2 H24 C27 N2 O9'
_cell_volume   1182.88695268
_cell_formula_units_Z   1
loop_
 _symmetry_equiv_pos_site_id
 _symmetry_equiv_pos_as_xyz
  1  'x, y, z'
loop_
 _atom_site_type_symbol
 _atom_site_label
 _atom_site_symmetry_multiplicity
 _atom_site_fract_x
 _atom_site_fract_y
 _atom_site_fract_z
 _atom_site_occupancy
  Zn  Zn0  1  0.63732021  0.50311818  0.49519391  1.0
  Zn  Zn1  1  0.35500011  0.49781800  0.49420630  1.0
  H  H2  1  0.46999124  0.89604633  0.69231261  1.0
  H  H3  1  0.12140803  0.34130849  0.38343268  1.0
  H  H4  1  0.31770920  0.89856908  0.60563238  1.0
  H  H5  1  0.86124704  0.34339622  0.38515416  1.0
  H  H6  1  0.87510215  0.77661225  0.57996850  1.0
  H  H7  1  0.87155944  0.68748279  0.71297816  1.0
  H  H8  1  0.13616176  0.77281628  0.58147578  1.0
  H  H9  1  0.13356003  0.68299084  0.71410215  1.0
  H  H10  1  0.32726115  0.11268903  0.61735408  1.0
  H  H11  1  0.48886208  0.10858038  0.69025603  1.0
  H  H12  1  0.70008508  0.90508124  0.58700544  1.0
  H  H13  1  0.70929515  0.89202040  0.42882745  1.0
  H  H14  1  0.70543947  0.11698845  0.57031492  1.0
  H  H15  1  0.49375405  0.89728667  0.30559898  1.0
  H  H16  1  0.33054536  0.88158655  0.37315750  1.0
  H  H17  1  0.30839081  0.09294206  0.40062002  1.0
  H  H18  1  0.57083858  0.10069638  0.24435514  1.0
  H  H19  1  0.70188512  0.10467806  0.41285152  1.0
  H  H20  1  0.28514583  0.43202454  0.88007183  1.0
  H  H21  1  0.28518213  0.42753941  0.10392094  1.0
  H  H22  1  0.77171086  0.65952702  0.11640072  1.0
  H  H23  1  0.82932664  0.50574049  0.11065249  1.0
  H  H24  1  0.77019713  0.66527970  0.89079179  1.0
  H  H25  1  0.83047221  0.51178281  0.88342377  1.0
  C  C26  1  0.49420149  0.49956665  0.73094336  1.0
  C  C27  1  0.60999276  0.52538905  0.05960781  1.0
  C  C28  1  0.75761280  0.57046268  0.07061764  1.0
  C  C29  1  0.50056310  0.74160899  0.49865869  1.0
  C  C30  1  0.75781675  0.57351009  0.92817366  1.0
  C  C31  1  0.07069103  0.58238753  0.54866856  1.0
  C  C32  1  0.06538770  0.41206344  0.43202090  1.0
  C  C33  1  0.92185258  0.41349031  0.43257567  1.0
  C  C34  1  0.92737045  0.58419413  0.54861598  1.0
  C  C35  1  0.92120155  0.69900438  0.62540158  1.0
  C  C36  1  0.08475658  0.69648257  0.62610100  1.0
  C  C37  1  0.50098402  0.12062388  0.49649002  1.0
  C  C38  1  0.49348747  0.49404536  0.25911793  1.0
  C  C39  1  0.49609248  0.26016885  0.49501384  1.0
  C  C40  1  0.42448464  0.93223296  0.60956800  1.0
  C  C41  1  0.43052312  0.07371312  0.61147285  1.0
  C  C42  1  0.65040478  0.93325333  0.50296195  1.0
  C  C43  1  0.43177427  0.92591873  0.38393270  1.0
  C  C44  1  0.50287933  0.88154138  0.49931449  1.0
  C  C45  1  0.46073950  0.11777834  0.26862334  1.0
  C  C46  1  0.64932720  0.07383773  0.49442382  1.0
  C  C47  1  0.41618928  0.06709689  0.38778165  1.0
  C  C48  1  0.61036248  0.52723358  0.93391726  1.0
  C  C49  1  0.49468578  0.49547414  0.86516285  1.0
  C  C50  1  0.37723176  0.45946162  0.93057433  1.0
  C  C51  1  0.37697865  0.45732344  0.05622252  1.0
  C  C52  1  0.49406174  0.49168082  0.12490559  1.0
  N  N53  1  0.14316704  0.49787273  0.49153966  1.0
  N  N54  1  0.84946487  0.50093017  0.49208393  1.0
  O  O55  1  0.61134753  0.50205276  0.67968606  1.0
  O  O56  1  0.37765120  0.50085027  0.67775602  1.0
  O  O57  1  0.61629257  0.68880601  0.50159407  1.0
  O  O58  1  0.38347784  0.68835099  0.49466837  1.0
  O  O59  1  0.61061430  0.50289692  0.31118333  1.0
  O  O60  1  0.37740295  0.48903637  0.31179164  1.0
  O  O61  1  0.61078041  0.31709194  0.48995239  1.0
  O  O62  1  0.37810122  0.30858098  0.49842317  1.0
  O  O63  1  0.38595998  0.17105331  0.19893562  1.0
