# generated using pymatgen
data_Zn4H9C21N3O13
_symmetry_space_group_name_H-M   'P 1'
_cell_length_a   18.20498305
_cell_length_b   18.22854843
_cell_length_c   18.38596762
_cell_angle_alpha   60.63590868
_cell_angle_beta   60.42295381
_cell_angle_gamma   60.26521905
_symmetry_Int_Tables_number   1
_chemical_formula_structural   Zn4H9C21N3O13
_chemical_formula_sum   'Zn8 H18 C42 N6 O26'
_cell_volume   4357.29488180
_cell_formula_units_Z   2
loop_
 _symmetry_equiv_pos_site_id
 _symmetry_equiv_pos_as_xyz
  1  'x, y, z'
loop_
 _atom_site_type_symbol
 _atom_site_label
 _atom_site_symmetry_multiplicity
 _atom_site_fract_x
 _atom_site_fract_y
 _atom_site_fract_z
 _atom_site_occupancy
  Zn  Zn0  1  0.84984544  0.05341000  0.06144940  1.0
  Zn  Zn1  1  0.02893386  0.05168626  0.06428519  1.0
  Zn  Zn2  1  0.02581385  0.05068642  0.89230626  1.0
  Zn  Zn3  1  0.02781235  0.87681246  0.06367497  1.0
  Zn  Zn4  1  0.61378263  0.46512133  0.47650824  1.0
  Zn  Zn5  1  0.44002115  0.46298796  0.47646231  1.0
  Zn  Zn6  1  0.43900518  0.63993356  0.47742613  1.0
  Zn  Zn7  1  0.44147179  0.46288356  0.65082862  1.0
  H  H8  1  0.90133100  0.21164922  0.21743478  1.0
  H  H9  1  0.80421663  0.30946066  0.31557241  1.0
  H  H10  1  0.57404961  0.29275870  0.32027074  1.0
  H  H11  1  0.90589796  0.20832321  0.69882563  1.0
  H  H12  1  0.80991726  0.30641276  0.59942225  1.0
  H  H13  1  0.57808090  0.30167509  0.83516256  1.0
  H  H14  1  0.90156662  0.68871062  0.22206650  1.0
  H  H15  1  0.80380563  0.59074325  0.32112246  1.0
  H  H16  1  0.57415326  0.83161220  0.31449152  1.0
  H  H17  1  0.18592119  0.20125551  0.70469034  1.0
  H  H18  1  0.28434399  0.29845468  0.60372724  1.0
  H  H19  1  0.28189354  0.30140223  0.83766418  1.0
  H  H20  1  0.18667893  0.68836735  0.21820135  1.0
  H  H21  1  0.28327319  0.58962685  0.31686762  1.0
  H  H22  1  0.27452922  0.82966725  0.31768585  1.0
  H  H23  1  0.28590533  0.82601877  0.60623114  1.0
  H  H24  1  0.18731921  0.92379412  0.70439220  1.0
  H  H25  1  0.18967629  0.68290246  0.92873610  1.0
  C  C26  1  0.84322339  0.14694665  0.15851255  1.0
  C  C27  1  0.78635052  0.20391045  0.21831412  1.0
  C  C28  1  0.82853683  0.23184613  0.24177544  1.0
  C  C29  1  0.77527342  0.28529019  0.29559597  1.0
  C  C30  1  0.68207066  0.30859028  0.32442243  1.0
  C  C31  1  0.64654123  0.27616791  0.29798118  1.0
  C  C32  1  0.62258412  0.36676984  0.38144798  1.0
  C  C33  1  0.84606244  0.14698058  0.87784906  1.0
  C  C34  1  0.79014331  0.20541451  0.81745927  1.0
  C  C35  1  0.83301949  0.23084619  0.72559974  1.0
  C  C36  1  0.78037086  0.28456093  0.67125720  1.0
  C  C37  1  0.68708341  0.31085216  0.71047817  1.0
  C  C38  1  0.65075842  0.28178031  0.80323738  1.0
  C  C39  1  0.62757050  0.36832057  0.65510464  1.0
  C  C40  1  0.84414843  0.86931769  0.15761788  1.0
  C  C41  1  0.78694338  0.80987631  0.21757823  1.0
  C  C42  1  0.82873372  0.71691705  0.24431957  1.0
  C  C43  1  0.77512185  0.66337490  0.29861231  1.0
  C  C44  1  0.68189494  0.70428300  0.32460921  1.0
  C  C45  1  0.64670271  0.79807381  0.29477910  1.0
  C  C46  1  0.62221854  0.64876395  0.38210223  1.0
  C  C47  1  0.12452089  0.14527840  0.88301115  1.0
  C  C48  1  0.18376716  0.20260674  0.82241711  1.0
  C  C49  1  0.20897193  0.22535166  0.73067428  1.0
  C  C50  1  0.26288907  0.27855854  0.67548449  1.0
  C  C51  1  0.28987741  0.30700633  0.71374905  1.0
  C  C52  1  0.26137035  0.28008256  0.80648789  1.0
  C  C53  1  0.34698442  0.36513815  0.65733004  1.0
  C  C54  1  0.12442356  0.86901332  0.15890800  1.0
  C  C55  1  0.18177505  0.80919047  0.21803665  1.0
  C  C56  1  0.20793430  0.71624112  0.24213118  1.0
  C  C57  1  0.26085058  0.66224154  0.29619716  1.0
  C  C58  1  0.28584816  0.70272475  0.32428202  1.0
  C  C59  1  0.25590928  0.79653600  0.29656508  1.0
  C  C60  1  0.34317153  0.64706862  0.38197713  1.0
  C  C61  1  0.34563782  0.64534849  0.66084227  1.0
  C  C62  1  0.28745859  0.70470023  0.71822296  1.0
  C  C63  1  0.26279574  0.79767013  0.67799381  1.0
  C  C64  1  0.20884227  0.85115079  0.73178137  1.0
  C  C65  1  0.18149896  0.81020957  0.82357113  1.0
  C  C66  1  0.21013553  0.71641948  0.85728913  1.0
  C  C67  1  0.12314545  0.86590200  0.88325426  1.0
  N  N68  1  0.69702653  0.22515592  0.24594312  1.0
  N  N69  1  0.70069199  0.23022755  0.85602126  1.0
  N  N70  1  0.69759032  0.85015471  0.24230140  1.0
  N  N71  1  0.20934645  0.22917393  0.86012064  1.0
  N  N72  1  0.20498885  0.84905949  0.24468481  1.0
  N  N73  1  0.26191487  0.66433776  0.80624855  1.0
  O  O74  1  0.98271048  0.00779804  0.02156388  1.0
  O  O75  1  0.92783128  0.12387189  0.13825136  1.0
  O  O76  1  0.80290997  0.12771967  0.13386467  1.0
  O  O77  1  0.53808031  0.38762524  0.40359477  1.0
  O  O78  1  0.66167451  0.39109937  0.40316557  1.0
  O  O79  1  0.93097438  0.12399859  0.83866133  1.0
  O  O80  1  0.80535727  0.12599734  0.96044956  1.0
  O  O81  1  0.54329724  0.38923861  0.69567581  1.0
  O  O82  1  0.66648059  0.39161958  0.57140514  1.0
  O  O83  1  0.92880207  0.82844762  0.13907449  1.0
  O  O84  1  0.80433049  0.95270743  0.13116645  1.0
  O  O85  1  0.53774746  0.68967040  0.40365995  1.0
  O  O86  1  0.66146764  0.56424257  0.40464930  1.0
  O  O87  1  0.10103495  0.12310747  0.84359812  1.0
  O  O88  1  0.10335619  0.12435185  0.96574896  1.0
  O  O89  1  0.37175156  0.38531673  0.69706938  1.0
  O  O90  1  0.36593854  0.38985450  0.57384435  1.0
  O  O91  1  0.10361707  0.82829743  0.13540373  1.0
  O  O92  1  0.10223282  0.95271745  0.13793075  1.0
  O  O93  1  0.36419935  0.68827785  0.40448059  1.0
  O  O94  1  0.36633549  0.56254520  0.40368263  1.0
  O  O95  1  0.36690871  0.68622224  0.57744345  1.0
  O  O96  1  0.36808282  0.56152562  0.69940227  1.0
  O  O97  1  0.10203026  0.82505229  0.96643488  1.0
  O  O98  1  0.09945134  0.95026932  0.84509489  1.0
  O  O99  1  0.48249288  0.50850749  0.52043867  1.0
