# generated using pymatgen
data_AlH3C12(S2O5)3
_symmetry_space_group_name_H-M   'P 1'
_cell_length_a   4.39633170
_cell_length_b   19.90492154
_cell_length_c   19.90510008
_cell_angle_alpha   120.00129892
_cell_angle_beta   90.00112523
_cell_angle_gamma   89.99944430
_symmetry_Int_Tables_number   1
_chemical_formula_structural   AlH3C12(S2O5)3
_chemical_formula_sum   'Al2 H6 C24 S12 O30'
_cell_volume   1508.48235580
_cell_formula_units_Z   2
loop_
 _symmetry_equiv_pos_site_id
 _symmetry_equiv_pos_as_xyz
  1  'x, y, z'
loop_
 _atom_site_type_symbol
 _atom_site_label
 _atom_site_symmetry_multiplicity
 _atom_site_fract_x
 _atom_site_fract_y
 _atom_site_fract_z
 _atom_site_occupancy
  Al  Al0  1  0.97088935  0.50000258  0.00000028  1.0
  Al  Al1  1  0.97031125  0.83332804  0.66666727  1.0
  H  H2  1  0.02968039  0.80013361  0.26666203  1.0
  H  H3  1  0.02904850  0.53322408  0.40003856  1.0
  H  H4  1  0.02947366  0.46652674  0.69988636  1.0
  H  H5  1  0.02904458  0.86681668  0.96677974  1.0
  H  H6  1  0.02943453  0.23335149  0.03345562  1.0
  H  H7  1  0.02923992  0.09996384  0.63317525  1.0
  C  C8  1  0.47961574  0.38534712  0.93467747  1.0
  C  C9  1  0.47961789  0.54933370  0.11465676  1.0
  C  C10  1  0.47962387  0.56531881  0.95066633  1.0
  C  C11  1  0.47904083  0.78397557  0.55200518  1.0
  C  C12  1  0.47903258  0.76801946  0.71602346  1.0
  C  C13  1  0.47904752  0.94799432  0.73197345  1.0
  C  C14  1  0.51934277  0.67833211  0.24854444  1.0
  C  C15  1  0.51910292  0.65497996  0.41812929  1.0
  C  C16  1  0.51910128  0.59846639  0.20054230  1.0
  C  C17  1  0.51866202  0.73484774  0.46611344  1.0
  C  C18  1  0.54597450  0.63435699  0.33853501  1.0
  C  C19  1  0.54597261  0.69896578  0.32814114  1.0
  C  C20  1  0.51933748  0.57020942  0.82167301  1.0
  C  C21  1  0.51907724  0.76314736  0.84502190  1.0
  C  C22  1  0.51909241  0.60207638  0.90153669  1.0
  C  C23  1  0.51866950  0.73125822  0.76515706  1.0
  C  C24  1  0.54595187  0.70417853  0.86564551  1.0
  C  C25  1  0.54596201  0.62917222  0.80103444  1.0
  C  C26  1  0.51927653  0.25145967  0.92978047  1.0
  C  C27  1  0.51916930  0.08186723  0.73683745  1.0
  C  C28  1  0.51909891  0.29946274  0.89791951  1.0
  C  C29  1  0.51868046  0.03388647  0.76872394  1.0
  C  C30  1  0.54600619  0.16146307  0.79581234  1.0
  C  C31  1  0.54592287  0.17185951  0.87081613  1.0
  S  S32  1  0.54452127  0.54876626  0.25108269  1.0
  S  S33  1  0.54425274  0.78457011  0.41558650  1.0
  S  S34  1  0.54448177  0.70232119  0.95123834  1.0
  S  S35  1  0.54427493  0.63101174  0.71543812  1.0
  S  S36  1  0.54458498  0.24891755  0.79767762  1.0
  S  S37  1  0.54416188  0.08442086  0.86897347  1.0
  S  S38  1  0.46354343  0.74843552  0.21974841  1.0
  S  S39  1  0.46309314  0.58486820  0.44690940  1.0
  S  S40  1  0.46343311  0.47130900  0.75156377  1.0
  S  S41  1  0.46308151  0.86204155  0.91513552  1.0
  S  S42  1  0.46339054  0.28024988  0.02867782  1.0
  S  S43  1  0.46324390  0.05308328  0.63794334  1.0
  O  O44  1  0.69771435  0.57449443  0.99657594  1.0
  O  O45  1  0.69773728  0.42208135  0.92550474  1.0
  O  O46  1  0.69773547  0.50342688  0.07792130  1.0
  O  O47  1  0.22639044  0.53243235  0.94397490  1.0
  O  O48  1  0.22643049  0.55602531  0.08845990  1.0
  O  O49  1  0.22643737  0.41154535  0.96756586  1.0
  O  O50  1  0.69703957  0.91124028  0.74115873  1.0
  O  O51  1  0.69703229  0.82991431  0.58876421  1.0
  O  O52  1  0.69705340  0.75884010  0.67008520  1.0
  O  O53  1  0.22578094  0.92180825  0.69911935  1.0
  O  O54  1  0.22578920  0.80087630  0.72269175  1.0
  O  O55  1  0.22576508  0.77730405  0.57818586  1.0
  O  O56  1  0.74367649  0.79125987  0.23001409  1.0
  O  O57  1  0.32370153  0.71399780  0.14492318  1.0
  O  O58  1  0.25348816  0.80681516  0.28625976  1.0
  O  O59  1  0.74311571  0.54198936  0.43661128  1.0
  O  O60  1  0.32337696  0.61934507  0.52175606  1.0
  O  O61  1  0.25288439  0.52654849  0.38041048  1.0
  O  O62  1  0.74348585  0.43872794  0.70869927  1.0
  O  O63  1  0.32363944  0.43092011  0.78600661  1.0
  O  O64  1  0.25328240  0.47946135  0.69321352  1.0
  O  O65  1  0.74310707  0.89462111  0.95801228  1.0
  O  O66  1  0.32334352  0.90241013  0.88065640  1.0
  O  O67  1  0.25288860  0.85386465  0.97345587  1.0
  O  O68  1  0.74345980  0.26996749  0.06124946  1.0
  O  O69  1  0.32359914  0.35508616  0.06906859  1.0
  O  O70  1  0.25325508  0.21374652  0.02052639  1.0
  O  O71  1  0.74330526  0.06337702  0.60537349  1.0
  O  O72  1  0.32350210  0.97823879  0.59757179  1.0
  O  O73  1  0.25306985  0.11958589  0.64611648  1.0
