# generated using pymatgen
data_La2Cu3H30C24(NO4)6
_symmetry_space_group_name_H-M   'P 1'
_cell_length_a   13.45455352
_cell_length_b   13.45457198
_cell_length_c   14.95122757
_cell_angle_alpha   90.00026338
_cell_angle_beta   89.99988525
_cell_angle_gamma   119.99995418
_symmetry_Int_Tables_number   1
_chemical_formula_structural   La2Cu3H30C24(NO4)6
_chemical_formula_sum   'La4 Cu6 H60 C48 N12 O48'
_cell_volume   2343.94200090
_cell_formula_units_Z   2
loop_
 _symmetry_equiv_pos_site_id
 _symmetry_equiv_pos_as_xyz
  1  'x, y, z'
loop_
 _atom_site_type_symbol
 _atom_site_label
 _atom_site_symmetry_multiplicity
 _atom_site_fract_x
 _atom_site_fract_y
 _atom_site_fract_z
 _atom_site_occupancy
  La  La0  1  0.66666667  0.33333333  0.33081581  1.0
  La  La1  1  0.33333333  0.66666667  0.16918853  1.0
  La  La2  1  0.33333333  0.66666667  0.66918360  1.0
  La  La3  1  0.66666667  0.33333333  0.83081288  1.0
  Cu  Cu4  1  0.50000099  0.50000011  0.50000040  1.0
  Cu  Cu5  1  0.49999977  0.00000039  0.50000004  1.0
  Cu  Cu6  1  0.99999943  0.50000097  0.50000062  1.0
  Cu  Cu7  1  0.50000035  0.50000020  0.00000059  1.0
  Cu  Cu8  1  0.00000054  0.50000106  0.00000037  1.0
  Cu  Cu9  1  0.49999996  0.99999743  0.99999911  1.0
  H  H10  1  0.63747685  0.67765955  0.58052440  1.0
  H  H11  1  0.82961797  0.69457955  0.52729526  1.0
  H  H12  1  0.73988400  0.71395712  0.44980943  1.0
  H  H13  1  0.68502301  0.60696934  0.69928376  1.0
  H  H14  1  0.73837438  0.53946920  0.62966253  1.0
  H  H15  1  0.32233826  0.95981697  0.58052260  1.0
  H  H16  1  0.30542010  0.13503986  0.52729524  1.0
  H  H17  1  0.28604384  0.02592883  0.44980909  1.0
  H  H18  1  0.39302978  0.07805271  0.69928360  1.0
  H  H19  1  0.46053225  0.19890467  0.62966342  1.0
  H  H20  1  0.04018249  0.36252328  0.58052295  1.0
  H  H21  1  0.86495873  0.17038142  0.52729347  1.0
  H  H22  1  0.97407466  0.26011683  0.44980895  1.0
  H  H23  1  0.92194761  0.31497671  0.69928361  1.0
  H  H24  1  0.80109576  0.26162692  0.62966257  1.0
  H  H25  1  0.67765712  0.63747627  0.91948113  1.0
  H  H26  1  0.69457510  0.82961812  0.97271186  1.0
  H  H27  1  0.71395671  0.73988004  0.05019410  1.0
  H  H28  1  0.60697771  0.68502969  0.80071841  1.0
  H  H29  1  0.53947091  0.73837776  0.87033694  1.0
  H  H30  1  0.95982032  0.32234427  0.91947956  1.0
  H  H31  1  0.13504325  0.30542514  0.97270994  1.0
  H  H32  1  0.02592462  0.28604490  0.05019244  1.0
  H  H33  1  0.07805435  0.39302333  0.80071761  1.0
  H  H34  1  0.19890840  0.46053034  0.87033667  1.0
  H  H35  1  0.36252374  0.04017827  0.91948085  1.0
  H  H36  1  0.17038194  0.86495709  0.97271040  1.0
  H  H37  1  0.26012018  0.97407319  0.05019432  1.0
  H  H38  1  0.31496589  0.92194597  0.80071782  1.0
  H  H39  1  0.26161867  0.80109142  0.87033465  1.0
  H  H40  1  0.36252374  0.32234037  0.41947634  1.0
  H  H41  1  0.17038188  0.30542038  0.47270548  1.0
  H  H42  1  0.26011702  0.28604366  0.55019197  1.0
  H  H43  1  0.31497801  0.39303144  0.30071698  1.0
  H  H44  1  0.26162590  0.46053159  0.37033754  1.0
  H  H45  1  0.67766201  0.04018381  0.41947814  1.0
  H  H46  1  0.69457900  0.86496006  0.47270550  1.0
  H  H47  1  0.71395643  0.97407194  0.55019165  1.0
  H  H48  1  0.60697241  0.92194892  0.30071581  1.0
  H  H49  1  0.53946845  0.80109696  0.37033666  1.0
  H  H50  1  0.95981630  0.63747751  0.41947779  1.0
  H  H51  1  0.13504037  0.82961850  0.47270727  1.0
  H  H52  1  0.02592562  0.73988395  0.55019246  1.0
  H  H53  1  0.07805180  0.68502235  0.30071713  1.0
  H  H54  1  0.19890440  0.73837214  0.37033817  1.0
  H  H55  1  0.32234347  0.36252366  0.08051961  1.0
  H  H56  1  0.30542475  0.17038181  0.02728821  1.0
  H  H57  1  0.28604388  0.26011988  0.94980531  1.0
  H  H58  1  0.39302171  0.31496938  0.19928233  1.0
  H  H59  1  0.46052850  0.26162130  0.12966313  1.0
  H  H60  1  0.04017922  0.67765652  0.08052051  1.0
  H  H61  1  0.86495574  0.69457307  0.02729013  1.0
  H  H62  1  0.97407768  0.71395844  0.94980496  1.0
  H  H63  1  0.92194592  0.60697745  0.19928246  1.0
  H  H64  1  0.80109113  0.53947044  0.12966407  1.0
  H  H65  1  0.63747705  0.95981908  0.08051722  1.0
  H  H66  1  0.82961896  0.13504197  0.02728967  1.0
  H  H67  1  0.73988221  0.02592587  0.94980307  1.0
  H  H68  1  0.68503076  0.07805053  0.19928024  1.0
  H  H69  1  0.73837766  0.19890592  0.12966342  1.0
  C  C70  1  0.73498097  0.55455707  0.43555275  1.0
  C  C71  1  0.74468943  0.65186150  0.49471464  1.0
  C  C72  1  0.66531087  0.55371913  0.63888395  1.0
  C  C73  1  0.55981863  0.43724396  0.65733780  1.0
  C  C74  1  0.44544359  0.18042408  0.43555291  1.0
  C  C75  1  0.34813995  0.09282902  0.49471585  1.0
  C  C76  1  0.44628180  0.11159098  0.63888523  1.0
  C  C77  1  0.56275595  0.12257284  0.65734116  1.0
  C  C78  1  0.81957984  0.26502238  0.43554873  1.0
  C  C79  1  0.90717272  0.25531176  0.49471501  1.0
  C  C80  1  0.88840856  0.33468990  0.63888530  1.0
  C  C81  1  0.87742474  0.44018250  0.65734087  1.0
  C  C82  1  0.55455994  0.73497878  0.06445660  1.0
  C  C83  1  0.65186091  0.74468854  0.00528882  1.0
  C  C84  1  0.55372299  0.66531479  0.86111546  1.0
  C  C85  1  0.43724903  0.55981960  0.84265934  1.0
  C  C86  1  0.18041873  0.44544067  0.06445567  1.0
  C  C87  1  0.09282918  0.34814139  0.00528783  1.0
  C  C88  1  0.11159295  0.44627783  0.86111541  1.0
  C  C89  1  0.12257061  0.56275129  0.84265963  1.0
  C  C90  1  0.26501934  0.81957623  0.06445370  1.0
  C  C91  1  0.25531194  0.90717043  0.00528751  1.0
  C  C92  1  0.33468205  0.88840684  0.86111411  1.0
  C  C93  1  0.44017685  0.87742842  0.84265932  1.0
  C  C94  1  0.26502036  0.44544285  0.56444799  1.0
  C  C95  1  0.25531116  0.34813842  0.50528610  1.0
  C  C96  1  0.33469015  0.44628166  0.36111613  1.0
  C  C97  1  0.44018239  0.56275683  0.34266294  1.0
  C  C98  1  0.55455625  0.81957584  0.56444783  1.0
  C  C99  1  0.65186033  0.90717176  0.50528422  1.0
  C  C100  1  0.55371965  0.88841066  0.36111417  1.0
  C  C101  1  0.43724476  0.87742881  0.34265757  1.0
  C  C102  1  0.18041969  0.73497840  0.56445134  1.0
  C  C103  1  0.09282681  0.74468902  0.50528640  1.0
  C  C104  1  0.11159086  0.66530917  0.36111544  1.0
  C  C105  1  0.12257393  0.55981656  0.34265987  1.0
  C  C106  1  0.44544033  0.26502199  0.93554347  1.0
  C  C107  1  0.34813893  0.25531138  0.99471125  1.0
  C  C108  1  0.44627643  0.33468428  0.13888461  1.0
  C  C109  1  0.56275038  0.44017946  0.15734073  1.0
  C  C110  1  0.81958272  0.55456097  0.93554239  1.0
  C  C111  1  0.90717387  0.65186196  0.99471023  1.0
  C  C112  1  0.88840732  0.55372294  0.13888467  1.0
  C  C113  1  0.87742924  0.43724863  0.15734111  1.0
  C  C114  1  0.73498125  0.18042369  0.93554771  1.0
  C  C115  1  0.74468928  0.09282778  0.99471056  1.0
  C  C116  1  0.66531546  0.11159137  0.13888395  1.0
  C  C117  1  0.55981905  0.12256807  0.15734008  1.0
  N  N118  1  0.65102532  0.61155874  0.56017348  1.0
  N  N119  1  0.38844199  0.03946671  0.56017253  1.0
  N  N120  1  0.96053249  0.34897564  0.56017266  1.0
  N  N121  1  0.61155717  0.65102733  0.93982865  1.0
  N  N122  1  0.03947136  0.38844423  0.93982728  1.0
  N  N123  1  0.34897205  0.96052767  0.93982819  1.0
  N  N124  1  0.34897570  0.38844204  0.43982726  1.0
  N  N125  1  0.61155871  0.96053492  0.43982687  1.0
  N  N126  1  0.03946587  0.65102428  0.43982741  1.0
  N  N127  1  0.38844342  0.34897260  0.06017142  1.0
  N  N128  1  0.96052892  0.61155656  0.06017145  1.0
  N  N129  1  0.65102799  0.03946967  0.06016988  1.0
  O  O130  1  0.64325250  0.45706658  0.44287377  1.0
  O  O131  1  0.81471524  0.57382314  0.38130500  1.0
  O  O132  1  0.47540054  0.39845136  0.60300514  1.0
  O  O133  1  0.56073794  0.38245357  0.72563308  1.0
  O  O134  1  0.54293425  0.18618620  0.44287330  1.0
  O  O135  1  0.42617597  0.24089163  0.38130533  1.0
  O  O136  1  0.60154829  0.07694707  0.60300971  1.0
  O  O137  1  0.61754817  0.17828273  0.72563662  1.0
  O  O138  1  0.81382618  0.35675596  0.44286405  1.0
  O  O139  1  0.75910656  0.18528405  0.38130558  1.0
  O  O140  1  0.92305046  0.52460044  0.60300967  1.0
  O  O141  1  0.82171251  0.43926353  0.72563631  1.0
  O  O142  1  0.45707418  0.64323920  0.05714941  1.0
  O  O143  1  0.57382202  0.81471884  0.11869444  1.0
  O  O144  1  0.39845404  0.47540081  0.89698852  1.0
  O  O145  1  0.38245827  0.56074029  0.77436132  1.0
  O  O146  1  0.18616672  0.54292686  0.05714811  1.0
  O  O147  1  0.24089361  0.42617632  0.11869527  1.0
  O  O148  1  0.07694820  0.60154733  0.89698907  1.0
  O  O149  1  0.17828194  0.61754167  0.77436162  1.0
  O  O150  1  0.35675313  0.81382012  0.05713915  1.0
  O  O151  1  0.18528127  0.75910610  0.11869601  1.0
  O  O152  1  0.52459800  0.92305160  0.89698866  1.0
  O  O153  1  0.43925518  0.82171767  0.77436114  1.0
  O  O154  1  0.35674809  0.54293334  0.55712563  1.0
  O  O155  1  0.18528578  0.42617765  0.61869507  1.0
  O  O156  1  0.52459974  0.60154943  0.39699494  1.0
  O  O157  1  0.43926233  0.61754720  0.27436766  1.0
  O  O158  1  0.45706560  0.81381373  0.55712677  1.0
  O  O159  1  0.57382387  0.75910829  0.61869474  1.0
  O  O160  1  0.39845284  0.92305543  0.39698970  1.0
  O  O161  1  0.38245211  0.82171805  0.27436211  1.0
  O  O162  1  0.18617335  0.64324482  0.55713536  1.0
  O  O163  1  0.24089403  0.81471588  0.61869449  1.0
  O  O164  1  0.07694747  0.47539862  0.39699107  1.0
  O  O165  1  0.17828574  0.56073468  0.27436443  1.0
  O  O166  1  0.54292567  0.35676072  0.94285200  1.0
  O  O167  1  0.42617826  0.18528194  0.88130563  1.0
  O  O168  1  0.60154538  0.52459825  0.10301222  1.0
  O  O169  1  0.61754072  0.43925792  0.22563875  1.0
  O  O170  1  0.81383430  0.45707392  0.94285196  1.0
  O  O171  1  0.75910506  0.57382274  0.88130480  1.0
  O  O172  1  0.92305282  0.39845345  0.10301167  1.0
  O  O173  1  0.82171865  0.38245825  0.22563979  1.0
  O  O174  1  0.64324864  0.18618066  0.94286426  1.0
  O  O175  1  0.81471709  0.24089382  0.88130406  1.0
  O  O176  1  0.47540075  0.07694316  0.10301074  1.0
  O  O177  1  0.56073892  0.17827968  0.22563759  1.0
