# generated using pymatgen
data_Zn6H27C70I9(O4F)6
_symmetry_space_group_name_H-M   'P 1'
_cell_length_a   18.33707760
_cell_length_b   18.56940305
_cell_length_c   18.58604737
_cell_angle_alpha   109.20757072
_cell_angle_beta   108.50615891
_cell_angle_gamma   108.72971285
_symmetry_Int_Tables_number   1
_chemical_formula_structural   Zn6H27C70I9(O4F)6
_chemical_formula_sum   'Zn6 H27 C70 I9 O24 F6'
_cell_volume   4986.63620966
_cell_formula_units_Z   1
loop_
 _symmetry_equiv_pos_site_id
 _symmetry_equiv_pos_as_xyz
  1  'x, y, z'
loop_
 _atom_site_type_symbol
 _atom_site_label
 _atom_site_symmetry_multiplicity
 _atom_site_fract_x
 _atom_site_fract_y
 _atom_site_fract_z
 _atom_site_occupancy
  Zn  Zn0  1  0.93538411  0.43471450  0.01453025  1.0
  Zn  Zn1  1  0.04864621  0.56292505  0.00513095  1.0
  Zn  Zn2  1  0.51531915  0.44352660  0.43113956  1.0
  Zn  Zn3  1  0.51630220  0.56821778  0.55865785  1.0
  Zn  Zn4  1  0.93924809  0.01299108  0.44516646  1.0
  Zn  Zn5  1  0.07338868  0.00610772  0.55200872  1.0
  H  H6  1  0.79524731  0.60086206  0.68765100  1.0
  H  H7  1  0.83652243  0.62086227  0.91395804  1.0
  H  H8  1  0.75377047  0.64471941  0.80719431  1.0
  H  H9  1  0.96396611  0.23931464  0.93685345  1.0
  H  H10  1  0.93858842  0.98911797  0.79317127  1.0
  H  H11  1  0.95979096  0.02866061  0.68494033  1.0
  H  H12  1  0.12998383  0.63416597  0.26049829  1.0
  H  H13  1  0.34965123  0.46272552  0.24608441  1.0
  H  H14  1  0.07103384  0.71627261  0.25255425  1.0
  H  H15  1  0.64488561  0.68978017  0.09127237  1.0
  H  H16  1  0.78184233  0.80347952  0.22415583  1.0
  H  H17  1  0.63996134  0.37839437  0.61875354  1.0
  H  H18  1  0.07340754  0.84270574  0.35477440  1.0
  H  H19  1  0.28858105  0.43459011  0.46042879  1.0
  H  H20  1  0.17204777  0.46394880  0.47996480  1.0
  H  H21  1  0.07708674  0.24039146  0.51347533  1.0
  H  H22  1  0.27028863  0.11796700  0.48532404  1.0
  H  H23  1  0.64090917  0.71494415  0.43406930  1.0
  H  H24  1  0.76405773  0.54725660  0.51571466  1.0
  H  H25  1  0.91392157  0.57517505  0.60581831  1.0
  H  H26  1  0.03513239  0.72677031  0.69142182  1.0
  H  H27  1  0.76805063  0.83923574  0.45612729  1.0
  H  H28  1  0.74493075  0.52563379  0.88492727  1.0
  H  H29  1  0.66208582  0.56953558  0.80295682  1.0
  H  H30  1  0.89839297  0.61349461  0.81037502  1.0
  H  H31  1  0.88602167  0.51504027  0.73870113  1.0
  H  H32  1  0.75984460  0.48929707  0.62593135  1.0
  C  C33  1  0.98649875  0.36625383  0.90113963  1.0
  C  C34  1  0.69445390  0.51572168  0.70224126  1.0
  C  C35  1  0.72058671  0.57786567  0.79510085  1.0
  C  C36  1  0.77645153  0.53912223  0.68913176  1.0
  C  C37  1  0.96276130  0.19393793  0.88135793  1.0
  C  C38  1  0.95060586  0.11338469  0.87149966  1.0
  C  C39  1  0.94810772  0.05242259  0.79988535  1.0
  C  C40  1  0.95980854  0.07483047  0.73925466  1.0
  C  C41  1  0.97396516  0.15749770  0.74730481  1.0
  C  C42  1  0.97385795  0.21841464  0.81904709  1.0
  C  C43  1  0.98914680  0.30291542  0.82823929  1.0
  C  C44  1  0.89196150  0.50959458  0.88340481  1.0
  C  C45  1  0.00751597  0.32567559  0.76882808  1.0
  C  C46  1  0.00429790  0.26317409  0.69766939  1.0
  C  C47  1  0.98813130  0.18134487  0.68565878  1.0
  C  C48  1  0.19053102  0.64919467  0.31229404  1.0
  C  C49  1  0.21917714  0.70900368  0.39535472  1.0
  C  C50  1  0.29987681  0.73466772  0.46380268  1.0
  C  C51  1  0.34741857  0.69269365  0.44619127  1.0
  C  C52  1  0.31526334  0.62067050  0.36444475  1.0
  C  C53  1  0.23877683  0.60573966  0.29469799  1.0
  C  C54  1  0.21192496  0.54773562  0.20739170  1.0
  C  C55  1  0.94504858  0.58346656  0.10974925  1.0
  C  C56  1  0.25509473  0.50066440  0.19049074  1.0
  C  C57  1  0.32163684  0.50597664  0.25901447  1.0
  C  C58  1  0.35179133  0.56334396  0.34480842  1.0
  C  C59  1  0.77482914  0.59785289  0.07232875  1.0
  C  C60  1  0.70045203  0.60715284  0.05129544  1.0
  C  C61  1  0.70348983  0.68214338  0.10760775  1.0
  C  C62  1  0.77987899  0.74549024  0.18184961  1.0
  C  C63  1  0.85783684  0.73822752  0.20416124  1.0
  C  C64  1  0.85554084  0.66107220  0.14766731  1.0
  C  C65  1  0.93375282  0.65365334  0.16660375  1.0
  C  C66  1  0.13609671  0.53813036  0.13492361  1.0
  C  C67  1  0.01064222  0.72008015  0.23964765  1.0
  C  C68  1  0.01266081  0.79268796  0.29662314  1.0
  C  C69  1  0.93872163  0.80365924  0.28009854  1.0
  C  C70  1  0.39142870  0.36641332  0.46346739  1.0
  C  C71  1  0.62614421  0.51989501  0.63319068  1.0
  C  C72  1  0.64345059  0.59234106  0.47564378  1.0
  C  C73  1  0.41223465  0.54986240  0.40928574  1.0
  C  C74  1  0.13429485  0.12380813  0.50304063  1.0
  C  C75  1  0.98992326  0.12098105  0.60990140  1.0
  C  C76  1  0.93042099  0.88874679  0.53066130  1.0
  C  C77  1  0.73492223  0.41188244  0.74749834  1.0
  C  C78  1  0.95238539  0.88540642  0.34739397  1.0
  C  C79  1  0.24286224  0.39122887  0.47157217  1.0
  C  C80  1  0.17851939  0.40853279  0.48290048  1.0
  C  C81  1  0.12077762  0.35329422  0.49909060  1.0
  C  C82  1  0.12429729  0.28157493  0.50201341  1.0
  C  C83  1  0.18923615  0.26173319  0.48906089  1.0
  C  C84  1  0.25141866  0.31894326  0.47551407  1.0
  C  C85  1  0.31915099  0.30137515  0.46487536  1.0
  C  C86  1  0.32145673  0.22797257  0.46594587  1.0
  C  C87  1  0.26327528  0.17291762  0.48172692  1.0
  C  C88  1  0.66129399  0.42151788  0.68620114  1.0
  C  C89  1  0.19756162  0.18850523  0.49234906  1.0
  C  C90  1  0.82045228  0.61062463  0.54559073  1.0
  C  C91  1  0.90301857  0.62647816  0.59631123  1.0
  C  C92  1  0.97267827  0.71174690  0.64227902  1.0
  C  C93  1  0.96155162  0.77778275  0.62961381  1.0
  C  C94  1  0.88104292  0.76027646  0.56417986  1.0
  C  C95  1  0.80730437  0.67672093  0.53064779  1.0
  C  C96  1  0.72092085  0.66375066  0.48658292  1.0
  C  C97  1  0.70700784  0.72431203  0.46513809  1.0
  C  C98  1  0.77837931  0.79621328  0.48141214  1.0
  C  C99  1  0.78034173  0.56003423  0.85881229  1.0
  C  C100  1  0.86424486  0.81578769  0.52990682  1.0
  C  C101  1  0.85054278  0.54566044  0.76290990  1.0
  C  C102  1  0.81531365  0.50392614  0.81255071  1.0
  I  I103  1  0.68609169  0.33462665  0.80568984  1.0
  I  I104  1  0.04090174  0.44649447  0.77175977  1.0
  I  I105  1  0.93656934  0.08021972  0.96597871  1.0
  I  I106  1  0.21903629  0.41461813  0.06330916  1.0
  I  I107  1  0.77317853  0.33187610  0.66403281  1.0
  I  I108  1  0.34793837  0.83593056  0.58613954  1.0
  I  I109  1  0.58715519  0.51317372  0.93500455  1.0
  I  I110  1  0.53280976  0.37846953  0.68334815  1.0
  I  I111  1  0.05943025  0.90370018  0.73074834  1.0
  O  O112  1  0.93134589  0.33734915  0.92682868  1.0
  O  O113  1  0.42360972  0.44459019  0.51966266  1.0
  O  O114  1  0.60055883  0.46881930  0.55486932  1.0
  O  O115  1  0.60201148  0.57719272  0.65873003  1.0
  O  O116  1  0.61503608  0.51278170  0.42224195  1.0
  O  O117  1  0.61102911  0.61911458  0.52291906  1.0
  O  O118  1  0.43996330  0.49802781  0.38062518  1.0
  O  O119  1  0.42911561  0.58749782  0.48877306  1.0
  O  O120  1  0.05397184  0.10277255  0.46392605  1.0
  O  O121  1  0.16577422  0.09226808  0.54969801  1.0
  O  O122  1  0.93236325  0.09865409  0.53457295  1.0
  O  O123  1  0.03887878  0.44579824  0.93335142  1.0
  O  O124  1  0.04814108  0.09740173  0.62684592  1.0
  O  O125  1  0.90251515  0.93017850  0.49656179  1.0
  O  O126  1  0.01118496  0.90568598  0.56182842  1.0
  O  O127  1  0.89698633  0.91467186  0.33284944  1.0
  O  O128  1  0.02160113  0.92433016  0.41912339  1.0
  O  O129  1  0.87625592  0.46156389  0.91713385  1.0
  O  O130  1  0.96949846  0.56776265  0.90864582  1.0
  O  O131  1  0.90670792  0.50499870  0.09462823  1.0
  O  O132  1  0.99972630  0.61170582  0.08466471  1.0
  O  O133  1  0.06101075  0.48009011  0.11130676  1.0
  O  O134  1  0.15426690  0.59015383  0.10429907  1.0
  O  O135  1  0.41763010  0.34105733  0.40795086  1.0
  F  F136  1  0.02077624  0.28540771  0.63967204  1.0
  F  F137  1  0.17079356  0.74778293  0.41214945  1.0
  F  F138  1  0.42960847  0.72670943  0.50894648  1.0
  F  F139  1  0.77179672  0.52597164  0.01780639  1.0
  F  F140  1  0.38390867  0.20852905  0.45543075  1.0
  F  F141  1  0.05837915  0.37214341  0.51170257  1.0
