# generated using pymatgen
data_Zn4H15C15N3O13
_symmetry_space_group_name_H-M   'P 1'
_cell_length_a   15.92183635
_cell_length_b   16.40428520
_cell_length_c   16.42252050
_cell_angle_alpha   62.63883948
_cell_angle_beta   61.92351894
_cell_angle_gamma   62.05668875
_symmetry_Int_Tables_number   1
_chemical_formula_structural   Zn4H15C15N3O13
_chemical_formula_sum   'Zn8 H30 C30 N6 O26'
_cell_volume   3182.21244376
_cell_formula_units_Z   2
loop_
 _symmetry_equiv_pos_site_id
 _symmetry_equiv_pos_as_xyz
  1  'x, y, z'
loop_
 _atom_site_type_symbol
 _atom_site_label
 _atom_site_symmetry_multiplicity
 _atom_site_fract_x
 _atom_site_fract_y
 _atom_site_fract_z
 _atom_site_occupancy
  Zn  Zn0  1  0.03641834  0.01991457  0.04734438  1.0
  Zn  Zn1  1  0.83655220  0.02513998  0.05221296  1.0
  Zn  Zn2  1  0.03036574  0.83003726  0.04234395  1.0
  Zn  Zn3  1  0.02488350  0.02925281  0.85633426  1.0
  Zn  Zn4  1  0.42647840  0.42257011  0.44691639  1.0
  Zn  Zn5  1  0.62851733  0.42124176  0.45038682  1.0
  Zn  Zn6  1  0.43251837  0.42586523  0.63857708  1.0
  Zn  Zn7  1  0.43519781  0.61199047  0.45229384  1.0
  H  H8  1  0.80842902  0.29645406  0.11061667  1.0
  H  H9  1  0.82581295  0.25994023  0.26681765  1.0
  H  H10  1  0.85361942  0.13405639  0.28829902  1.0
  H  H11  1  0.67128060  0.15445817  0.36436323  1.0
  H  H12  1  0.64807521  0.21547128  0.21199290  1.0
  H  H13  1  0.08837065  0.79172071  0.32447710  1.0
  H  H14  1  0.24816945  0.81186654  0.28760747  1.0
  H  H15  1  0.27099709  0.84031221  0.16165449  1.0
  H  H16  1  0.35275593  0.66589254  0.17518785  1.0
  H  H17  1  0.19617404  0.63813753  0.23886729  1.0
  H  H18  1  0.31248098  0.09460189  0.82526129  1.0
  H  H19  1  0.25419300  0.25924193  0.83582441  1.0
  H  H20  1  0.12815776  0.26901608  0.86058081  1.0
  H  H21  1  0.15486798  0.33193020  0.68381126  1.0
  H  H22  1  0.23512686  0.17405345  0.66867710  1.0
  H  H23  1  0.71881665  0.79567755  0.11148269  1.0
  H  H24  1  0.58774937  0.80775766  0.26957378  1.0
  H  H25  1  0.66650095  0.83829548  0.29294995  1.0
  H  H26  1  0.75112280  0.66396640  0.36290854  1.0
  H  H27  1  0.85535290  0.63802202  0.20814870  1.0
  H  H28  1  0.73351145  0.30235374  0.82483904  1.0
  H  H29  1  0.58627072  0.27499429  0.83922728  1.0
  H  H30  1  0.65229896  0.14771970  0.87076983  1.0
  H  H31  1  0.73149623  0.15832990  0.69655577  1.0
  H  H32  1  0.85307018  0.22415322  0.66678990  1.0
  H  H33  1  0.30329827  0.80198609  0.76105868  1.0
  H  H34  1  0.29329279  0.81232875  0.61038240  1.0
  H  H35  1  0.15974089  0.84760393  0.66449405  1.0
  H  H36  1  0.16781360  0.67542274  0.74071760  1.0
  H  H37  1  0.23191649  0.64074250  0.86424766  1.0
  C  C38  1  0.84189321  0.15033914  0.12647925  1.0
  C  C39  1  0.78673559  0.23343356  0.16839371  1.0
  C  C40  1  0.80346001  0.20747169  0.26468522  1.0
  C  C41  1  0.69000781  0.22125555  0.31396721  1.0
  C  C42  1  0.62655660  0.29955284  0.36402823  1.0
  C  C43  1  0.10350612  0.82727741  0.17881359  1.0
  C  C44  1  0.14878156  0.77254903  0.25966378  1.0
  C  C45  1  0.24722197  0.79047799  0.23410700  1.0
  C  C46  1  0.30024519  0.68145749  0.24402243  1.0
  C  C47  1  0.35436956  0.61963135  0.31917134  1.0
  C  C48  1  0.16661958  0.09658573  0.85681898  1.0
  C  C49  1  0.24628479  0.14549226  0.80218666  1.0
  C  C50  1  0.20646642  0.24752654  0.81412252  1.0
  C  C51  1  0.22372896  0.28886717  0.70408081  1.0
  C  C52  1  0.29864476  0.34473864  0.64204610  1.0
  C  C53  1  0.82067238  0.82889537  0.12846851  1.0
  C  C54  1  0.74729525  0.77425304  0.17053191  1.0
  C  C55  1  0.66430845  0.78850628  0.26744338  1.0
  C  C56  1  0.71235309  0.67931918  0.31413806  1.0
  C  C57  1  0.64426731  0.61639320  0.36853790  1.0
  C  C58  1  0.82235110  0.15558025  0.85593348  1.0
  C  C59  1  0.75124335  0.23986958  0.80349169  1.0
  C  C60  1  0.65807838  0.21881744  0.82002409  1.0
  C  C61  1  0.70213265  0.22775489  0.71119369  1.0
  C  C62  1  0.63610320  0.30203562  0.64838760  1.0
  C  C63  1  0.14994396  0.83114071  0.83998480  1.0
  C  C64  1  0.24247413  0.77977836  0.77100802  1.0
  C  C65  1  0.23097399  0.79548321  0.67589270  1.0
  C  C66  1  0.24018606  0.68703573  0.71623982  1.0
  C  C67  1  0.31697454  0.62349361  0.65139017  1.0
  N  N68  1  0.67723642  0.25548677  0.21783118  1.0
  N  N69  1  0.20163238  0.66733127  0.27853589  1.0
  N  N70  1  0.27063949  0.18867152  0.69594580  1.0
  N  N71  1  0.78043921  0.66830225  0.21664554  1.0
  N  N72  1  0.78073275  0.26202715  0.69784243  1.0
  N  N73  1  0.27025003  0.67390862  0.79555438  1.0
  O  O74  1  0.98290318  0.97205029  0.99766597  1.0
  O  O75  1  0.79316720  0.09911985  0.14016700  1.0
  O  O76  1  0.93555801  0.13788492  0.08056024  1.0
  O  O77  1  0.67231842  0.34455422  0.36582569  1.0
  O  O78  1  0.53225268  0.31386271  0.39846889  1.0
  O  O79  1  0.10406483  0.78010228  0.13464336  1.0
  O  O80  1  0.06765166  0.91896313  0.16263161  1.0
  O  O81  1  0.37164851  0.66421107  0.35307228  1.0
  O  O82  1  0.37699984  0.52852919  0.34130649  1.0
  O  O83  1  0.11643167  0.10318843  0.81100124  1.0
  O  O84  1  0.15553340  0.05362354  0.94702315  1.0
  O  O85  1  0.33868039  0.35540237  0.68623328  1.0
  O  O86  1  0.31573688  0.37413324  0.55095694  1.0
  O  O87  1  0.91397636  0.78083636  0.11349587  1.0
  O  O88  1  0.77994257  0.92067449  0.10995234  1.0
  O  O89  1  0.54986696  0.66022440  0.39438292  1.0
  O  O90  1  0.68836703  0.52549703  0.38380096  1.0
  O  O91  1  0.91238671  0.11894443  0.80554543  1.0
  O  O92  1  0.78448261  0.12989559  0.94791425  1.0
  O  O93  1  0.54251288  0.33542311  0.69200064  1.0
  O  O94  1  0.68125086  0.32397626  0.55740708  1.0
  O  O95  1  0.12270553  0.78175453  0.92924306  1.0
  O  O96  1  0.11042933  0.92121486  0.80154027  1.0
  O  O97  1  0.33654389  0.66545175  0.56019381  1.0
  O  O98  1  0.35286543  0.53406832  0.69408099  1.0
  O  O99  1  0.48075456  0.47032170  0.49664865  1.0
