# generated using pymatgen
data_ZnH4C16Cl5O4
_symmetry_space_group_name_H-M   'P 1'
_cell_length_a   7.45231619
_cell_length_b   17.70806616
_cell_length_c   34.66640097
_cell_angle_alpha   90.08113009
_cell_angle_beta   90.05450604
_cell_angle_gamma   89.86636413
_symmetry_Int_Tables_number   1
_chemical_formula_structural   ZnH4C16Cl5O4
_chemical_formula_sum   'Zn4 H16 C64 Cl20 O16'
_cell_volume   4574.77093369
_cell_formula_units_Z   4
loop_
 _symmetry_equiv_pos_site_id
 _symmetry_equiv_pos_as_xyz
  1  'x, y, z'
loop_
 _atom_site_type_symbol
 _atom_site_label
 _atom_site_symmetry_multiplicity
 _atom_site_fract_x
 _atom_site_fract_y
 _atom_site_fract_z
 _atom_site_occupancy
  Zn  Zn0  1  0.34645238  0.00019544  0.49986020  1.0
  Zn  Zn1  1  0.71035024  0.00992516  0.50000618  1.0
  Zn  Zn2  1  0.74405512  0.99933416  0.99995737  1.0
  Zn  Zn3  1  0.38011230  0.00971687  0.99977723  1.0
  H  H4  1  0.75048997  0.98529204  0.25443931  1.0
  H  H5  1  0.33936096  0.98563770  0.24539403  1.0
  H  H6  1  0.75092608  0.98634185  0.74539368  1.0
  H  H7  1  0.33989527  0.98482372  0.75437672  1.0
  H  H8  1  0.35517070  0.77859480  0.49991593  1.0
  H  H9  1  0.32958939  0.63881902  0.49996460  1.0
  H  H10  1  0.90882910  0.62428409  0.50002367  1.0
  H  H11  1  0.29961229  0.38906819  0.50000781  1.0
  H  H12  1  0.85681067  0.23678876  0.50002954  1.0
  H  H13  1  0.87902357  0.37673276  0.50005822  1.0
  H  H14  1  0.73618453  0.77783850  0.99943343  1.0
  H  H15  1  0.76238177  0.63812299  0.00022842  1.0
  H  H16  1  0.18330716  0.62433765  0.00205869  1.0
  H  H17  1  0.79185132  0.38773391  0.00151666  1.0
  H  H18  1  0.23371750  0.23713094  0.00073076  1.0
  H  H19  1  0.21237153  0.37711269  0.00138712  1.0
  C  C20  1  0.63241647  0.86553626  0.49996330  1.0
  C  C21  1  0.45275200  0.99905809  0.42737082  1.0
  C  C22  1  0.57615489  0.14889876  0.49995739  1.0
  C  C23  1  0.45223518  0.99935272  0.57244888  1.0
  C  C24  1  0.45875263  0.86519030  0.00000504  1.0
  C  C25  1  0.63757214  0.99874060  0.07246486  1.0
  C  C26  1  0.51392157  0.14841081  0.00019317  1.0
  C  C27  1  0.63753241  0.99866730  0.92735709  1.0
  C  C28  1  0.64043168  0.99333763  0.11577083  1.0
  C  C29  1  0.58069907  0.92731570  0.13378565  1.0
  C  C30  1  0.57213729  0.92328438  0.17424551  1.0
  C  C31  1  0.62576983  0.98517297  0.19702510  1.0
  C  C32  1  0.68871718  0.05060878  0.17843422  1.0
  C  C33  1  0.69441401  0.05523445  0.13803847  1.0
  C  C34  1  0.62081497  0.98341471  0.23965017  1.0
  C  C35  1  0.46904200  0.98351458  0.26018260  1.0
  C  C36  1  0.40126109  0.05084637  0.32147859  1.0
  C  C37  1  0.46420308  0.98527669  0.30280908  1.0
  C  C38  1  0.51813487  0.92333481  0.32551541  1.0
  C  C39  1  0.50979822  0.92743076  0.36597864  1.0
  C  C40  1  0.44983401  0.99355585  0.38407060  1.0
  C  C41  1  0.39564958  0.05551475  0.36188006  1.0
  C  C42  1  0.64076254  0.99328601  0.88405529  1.0
  C  C43  1  0.58115667  0.92728160  0.86587832  1.0
  C  C44  1  0.57277459  0.92334653  0.82540775  1.0
  C  C45  1  0.62643366  0.98532379  0.80278813  1.0
  C  C46  1  0.68929353  0.05071804  0.82155153  1.0
  C  C47  1  0.69487221  0.05523981  0.86195497  1.0
  C  C48  1  0.62138111  0.98378665  0.76015853  1.0
  C  C49  1  0.46953082  0.98336603  0.73959657  1.0
  C  C50  1  0.39984854  0.05070535  0.67844542  1.0
  C  C51  1  0.46429909  0.98531891  0.69697725  1.0
  C  C52  1  0.51918274  0.92361344  0.67415632  1.0
  C  C53  1  0.51037514  0.92775231  0.63370108  1.0
  C  C54  1  0.44919235  0.99374287  0.61573730  1.0
  C  C55  1  0.39392849  0.05546881  0.63805255  1.0
  C  C56  1  0.64095874  0.78125790  0.49997022  1.0
  C  C57  1  0.47479511  0.74350413  0.49994922  1.0
  C  C58  1  0.46086486  0.66575177  0.49996809  1.0
  C  C59  1  0.61835207  0.62131002  0.50000034  1.0
  C  C60  1  0.78608230  0.65772857  0.50000194  1.0
  C  C61  1  0.79766740  0.73638119  0.49999112  1.0
  C  C62  1  0.60852867  0.54165858  0.50001963  1.0
  C  C63  1  0.59874637  0.47287398  0.50002822  1.0
  C  C64  1  0.59025687  0.39317952  0.50002716  1.0
  C  C65  1  0.42326468  0.35621734  0.50001918  1.0
  C  C66  1  0.41340913  0.27759829  0.50000779  1.0
  C  C67  1  0.57101710  0.23313511  0.49999473  1.0
  C  C68  1  0.73634897  0.27134335  0.50001563  1.0
  C  C69  1  0.74845000  0.34921633  0.50003128  1.0
  C  C70  1  0.45048037  0.78094446  0.00035436  1.0
  C  C71  1  0.61669446  0.74294903  0.00002119  1.0
  C  C72  1  0.63096409  0.66518410  0.00042998  1.0
  C  C73  1  0.47373585  0.62092974  0.00112353  1.0
  C  C74  1  0.30590950  0.65760231  0.00146802  1.0
  C  C75  1  0.29396850  0.73626828  0.00111728  1.0
  C  C76  1  0.48378461  0.54124954  0.00142164  1.0
  C  C77  1  0.49316978  0.47243632  0.00156067  1.0
  C  C78  1  0.50124417  0.39271519  0.00143816  1.0
  C  C79  1  0.66801684  0.35523904  0.00134286  1.0
  C  C80  1  0.67741390  0.27658911  0.00092711  1.0
  C  C81  1  0.51949928  0.23260436  0.00065312  1.0
  C  C82  1  0.35440374  0.27129854  0.00087802  1.0
  C  C83  1  0.34277962  0.34921790  0.00124694  1.0
  Cl  Cl84  1  0.76201566  0.13674502  0.11547068  1.0
  Cl  Cl85  1  0.75484024  0.12627410  0.20616992  1.0
  Cl  Cl86  1  0.52049621  0.85105638  0.10585674  1.0
  Cl  Cl87  1  0.49942645  0.84149023  0.19579019  1.0
  Cl  Cl88  1  0.59116595  0.84144597  0.30384576  1.0
  Cl  Cl89  1  0.57070254  0.85116902  0.39380750  1.0
  Cl  Cl90  1  0.33482453  0.12656627  0.29383691  1.0
  Cl  Cl91  1  0.32801881  0.13716585  0.38454219  1.0
  Cl  Cl92  1  0.76229419  0.13670031  0.88473160  1.0
  Cl  Cl93  1  0.75540658  0.12645767  0.79400610  1.0
  Cl  Cl94  1  0.52064354  0.85098964  0.89361969  1.0
  Cl  Cl95  1  0.50001143  0.84161161  0.80365810  1.0
  Cl  Cl96  1  0.59392525  0.84190478  0.69564943  1.0
  Cl  Cl97  1  0.57221311  0.85169088  0.60573477  1.0
  Cl  Cl98  1  0.33195220  0.12608143  0.70624816  1.0
  Cl  Cl99  1  0.32465325  0.13695763  0.61555924  1.0
  Cl  Cl100  1  0.01097349  0.77404714  0.50000820  1.0
  Cl  Cl101  1  0.19981728  0.23984670  0.50001734  1.0
  Cl  Cl102  1  0.08054554  0.77422541  0.00185453  1.0
  Cl  Cl103  1  0.89081181  0.23824388  0.00077089  1.0
  O  O104  1  0.47660036  0.89483375  0.49990183  1.0
  O  O105  1  0.77858479  0.90444926  0.50003347  1.0
  O  O106  1  0.60443133  0.00819342  0.44282242  1.0
  O  O107  1  0.30118493  0.99399418  0.44478175  1.0
  O  O108  1  0.73423519  0.11834528  0.50000918  1.0
  O  O109  1  0.43077863  0.11196866  0.49987028  1.0
  O  O110  1  0.30081965  0.99420023  0.55491115  1.0
  O  O111  1  0.60398816  0.00859927  0.55712297  1.0
  O  O112  1  0.61449376  0.89425121  0.99988818  1.0
  O  O113  1  0.31245333  0.90429273  0.99985646  1.0
  O  O114  1  0.48587265  0.00799237  0.05700747  1.0
  O  O115  1  0.78919614  0.99344193  0.05505953  1.0
  O  O116  1  0.35579795  0.11822648  0.00002504  1.0
  O  O117  1  0.65921840  0.11113046  0.00000684  1.0
  O  O118  1  0.78900513  0.99333586  0.94486823  1.0
  O  O119  1  0.48568237  0.00798065  0.94269530  1.0
