# generated using pymatgen
data_Hg3H42C50N6(Cl3O4)2
_symmetry_space_group_name_H-M   'P 1'
_cell_length_a   4.94905638
_cell_length_b   25.33157867
_cell_length_c   30.15346687
_cell_angle_alpha   106.61213353
_cell_angle_beta   90.00001866
_cell_angle_gamma   89.99999155
_symmetry_Int_Tables_number   1
_chemical_formula_structural   Hg3H42C50N6(Cl3O4)2
_chemical_formula_sum   'Hg6 H84 C100 N12 Cl12 O16'
_cell_volume   3622.48169601
_cell_formula_units_Z   2
loop_
 _symmetry_equiv_pos_site_id
 _symmetry_equiv_pos_as_xyz
  1  'x, y, z'
loop_
 _atom_site_type_symbol
 _atom_site_label
 _atom_site_symmetry_multiplicity
 _atom_site_fract_x
 _atom_site_fract_y
 _atom_site_fract_z
 _atom_site_occupancy
  Hg  Hg0  1  0.60434909  0.25000011  0.25000013  1.0
  Hg  Hg1  1  0.39565305  0.74999990  0.74999968  1.0
  Hg  Hg2  1  0.17299247  0.23983538  0.60613093  1.0
  Hg  Hg3  1  0.17299275  0.26016506  0.89386890  1.0
  Hg  Hg4  1  0.82700562  0.76016463  0.39386888  1.0
  Hg  Hg5  1  0.82700535  0.73983536  0.10613134  1.0
  H  H6  1  0.46666445  0.06721448  0.37274112  1.0
  H  H7  1  0.46666406  0.43278575  0.12725880  1.0
  H  H8  1  0.53333567  0.93278594  0.62725913  1.0
  H  H9  1  0.53333807  0.56721467  0.87274111  1.0
  H  H10  1  0.23282140  0.98618945  0.23149367  1.0
  H  H11  1  0.23281960  0.51380973  0.26850632  1.0
  H  H12  1  0.76717871  0.01381015  0.76850671  1.0
  H  H13  1  0.76717850  0.48618945  0.73149362  1.0
  H  H14  1  0.83326933  0.94584398  0.34532816  1.0
  H  H15  1  0.83326928  0.55415643  0.15467183  1.0
  H  H16  1  0.16673483  0.05415562  0.65467222  1.0
  H  H17  1  0.16673487  0.44584399  0.84532841  1.0
  H  H18  1  0.26055055  0.01798539  0.49737955  1.0
  H  H19  1  0.26054988  0.48201401  0.00262049  1.0
  H  H20  1  0.73944956  0.98201421  0.50262049  1.0
  H  H21  1  0.73944821  0.51798600  0.99737932  1.0
  H  H22  1  0.03806368  0.07337840  0.50064872  1.0
  H  H23  1  0.03806404  0.42662121  0.99935157  1.0
  H  H24  1  0.96193644  0.92662119  0.49935166  1.0
  H  H25  1  0.96193608  0.57337880  0.00064891  1.0
  H  H26  1  0.45910751  0.14711432  0.46656305  1.0
  H  H27  1  0.45910700  0.35288507  0.03343667  1.0
  H  H28  1  0.54089260  0.85288527  0.53343699  1.0
  H  H29  1  0.54089109  0.64711452  0.96656271  1.0
  H  H30  1  0.80736180  0.21228592  0.51209844  1.0
  H  H31  1  0.80736225  0.28771368  0.98790156  1.0
  H  H32  1  0.19263831  0.78771367  0.48790161  1.0
  H  H33  1  0.19263787  0.71228715  0.01209845  1.0
  H  H34  1  0.85269178  0.12780238  0.61077845  1.0
  H  H35  1  0.85268995  0.37219805  0.88922175  1.0
  H  H36  1  0.14731035  0.87219804  0.38922180  1.0
  H  H37  1  0.14730814  0.62780237  0.11077816  1.0
  H  H38  1  0.49523575  0.06036870  0.57059667  1.0
  H  H39  1  0.49523596  0.43963091  0.92940331  1.0
  H  H40  1  0.50476437  0.93963131  0.42940380  1.0
  H  H41  1  0.50476415  0.56036910  0.07059617  1.0
  H  H42  1  0.45051173  0.06747936  0.22538137  1.0
  H  H43  1  0.45051164  0.43252045  0.27461878  1.0
  H  H44  1  0.54948839  0.93252065  0.77461877  1.0
  H  H45  1  0.54948848  0.56747956  0.72538137  1.0
  H  H46  1  0.69906216  0.01601070  0.22490653  1.0
  H  H47  1  0.69906203  0.48398911  0.27509330  1.0
  H  H48  1  0.30093594  0.98398890  0.77509351  1.0
  H  H49  1  0.30093809  0.51601049  0.72490641  1.0
  H  H50  1  0.90499439  0.12555937  0.31772829  1.0
  H  H51  1  0.90499416  0.37444085  0.18227199  1.0
  H  H52  1  0.09500774  0.87443982  0.68227166  1.0
  H  H53  1  0.09500595  0.62555957  0.81772826  1.0
  H  H54  1  0.26941058  0.19301738  0.31455833  1.0
  H  H55  1  0.26941041  0.30698285  0.18544158  1.0
  H  H56  1  0.73059358  0.80698139  0.68544151  1.0
  H  H57  1  0.73059375  0.69301799  0.81455810  1.0
  H  H58  1  0.21613565  0.15524647  0.17201288  1.0
  H  H59  1  0.21613371  0.34475376  0.32798702  1.0
  H  H60  1  0.78386447  0.84475354  0.82798726  1.0
  H  H61  1  0.78386640  0.65524625  0.67201279  1.0
  H  H62  1  0.85113753  0.08593852  0.16873804  1.0
  H  H63  1  0.85113757  0.41406169  0.33126190  1.0
  H  H64  1  0.14886057  0.91406190  0.83126221  1.0
  H  H65  1  0.14886053  0.58593790  0.66873781  1.0
  H  H66  1  0.54544674  0.91841176  0.29452063  1.0
  H  H67  1  0.54544678  0.58158824  0.20547957  1.0
  H  H68  1  0.45455135  0.08158784  0.70547941  1.0
  H  H69  1  0.45455333  0.41841136  0.79452047  1.0
  H  H70  1  0.79280097  0.86542547  0.28215307  1.0
  H  H71  1  0.79280100  0.63457452  0.21784715  1.0
  H  H72  1  0.20719510  0.13457412  0.71784664  1.0
  H  H73  1  0.20719710  0.36542549  0.78215333  1.0
  H  H74  1  0.63524759  0.89397581  0.17399569  1.0
  H  H75  1  0.63524381  0.60602377  0.32600475  1.0
  H  H76  1  0.36475253  0.10602378  0.82600468  1.0
  H  H77  1  0.36475227  0.39397624  0.67399539  1.0
  H  H78  1  0.30603126  0.83781865  0.11647277  1.0
  H  H79  1  0.30602957  0.66218093  0.38352732  1.0
  H  H80  1  0.69396684  0.16218136  0.88352704  1.0
  H  H81  1  0.69396650  0.33781866  0.61647272  1.0
  H  H82  1  0.00589942  0.76285249  0.21135526  1.0
  H  H83  1  0.00589951  0.73714793  0.28864502  1.0
  H  H84  1  0.99410070  0.23714752  0.78864488  1.0
  H  H85  1  0.99410061  0.26285249  0.71135522  1.0
  H  H86  1  0.32053722  0.81620321  0.27339744  1.0
  H  H87  1  0.32053924  0.68379720  0.22660286  1.0
  H  H88  1  0.67946088  0.18379721  0.72660247  1.0
  H  H89  1  0.67945885  0.31620281  0.77339729  1.0
  C  C90  1  0.14284717  0.00742123  0.36339968  1.0
  C  C91  1  0.14284879  0.49257900  0.13660022  1.0
  C  C92  1  0.85715294  0.99257837  0.63660036  1.0
  C  C93  1  0.85715335  0.50742142  0.86339969  1.0
  C  C94  1  0.33869660  0.03779424  0.34841326  1.0
  C  C95  1  0.33869423  0.46220598  0.15158666  1.0
  C  C96  1  0.66130351  0.96220659  0.65158675  1.0
  C  C97  1  0.66130387  0.53779402  0.84841316  1.0
  C  C98  1  0.37209687  0.03019038  0.30078366  1.0
  C  C99  1  0.37209660  0.46980943  0.19921616  1.0
  C  C100  1  0.62790527  0.96980963  0.69921682  1.0
  C  C101  1  0.62790352  0.53019058  0.80078365  1.0
  C  C102  1  0.21019086  0.99294572  0.26860660  1.0
  C  C103  1  0.21018898  0.50705429  0.23139293  1.0
  C  C104  1  0.78981330  0.00705429  0.73139321  1.0
  C  C105  1  0.78980911  0.49294614  0.76860698  1.0
  C  C106  1  0.01371707  0.96254648  0.28456603  1.0
  C  C107  1  0.01371716  0.53745352  0.21543415  1.0
  C  C108  1  0.98627901  0.03745394  0.71543421  1.0
  C  C109  1  0.98628295  0.46254649  0.78456599  1.0
  C  C110  1  0.98122074  0.96884995  0.33177160  1.0
  C  C111  1  0.98122074  0.53115045  0.16822840  1.0
  C  C112  1  0.01877937  0.03115047  0.66822798  1.0
  C  C113  1  0.01878139  0.46884997  0.83177218  1.0
  C  C114  1  0.09140509  0.01529339  0.41342573  1.0
  C  C115  1  0.09140459  0.48470725  0.08657394  1.0
  C  C116  1  0.90859502  0.98470662  0.58657408  1.0
  C  C117  1  0.90859553  0.51529358  0.91342607  1.0
  C  C118  1  0.24236322  0.05771378  0.48985640  1.0
  C  C119  1  0.24236260  0.44228603  0.01014340  1.0
  C  C120  1  0.75763689  0.94228623  0.51014374  1.0
  C  C121  1  0.75763752  0.55771398  0.98985641  1.0
  C  C122  1  0.45371665  0.09762522  0.51466361  1.0
  C  C123  1  0.45371701  0.40237439  0.98533637  1.0
  C  C124  1  0.54628144  0.90237438  0.48533677  1.0
  C  C125  1  0.54628109  0.59762603  0.01466354  1.0
  C  C126  1  0.54167884  0.14113236  0.49824263  1.0
  C  C127  1  0.54167625  0.35886703  0.00175743  1.0
  C  C128  1  0.45832127  0.85886764  0.50175785  1.0
  C  C129  1  0.45832185  0.64113298  0.99824239  1.0
  C  C130  1  0.73530162  0.17738929  0.52325557  1.0
  C  C131  1  0.73530404  0.32261031  0.97674409  1.0
  C  C132  1  0.26469849  0.82261030  0.47674447  1.0
  C  C133  1  0.26469809  0.67738970  0.02325572  1.0
  C  C134  1  0.75856068  0.13046488  0.57876924  1.0
  C  C135  1  0.75855891  0.36953473  0.92123076  1.0
  C  C136  1  0.24144146  0.86953513  0.42123091  1.0
  C  C137  1  0.24143919  0.63046528  0.07876938  1.0
  C  C138  1  0.56393973  0.09273735  0.55601426  1.0
  C  C139  1  0.56393798  0.40726266  0.94398615  1.0
  C  C140  1  0.43606039  0.90726265  0.44398621  1.0
  C  C141  1  0.43606214  0.59273776  0.05601409  1.0
  C  C142  1  0.63118255  0.05816243  0.24325880  1.0
  C  C143  1  0.63118040  0.44183697  0.25674126  1.0
  C  C144  1  0.36881958  0.94183717  0.75674091  1.0
  C  C145  1  0.36881971  0.55816304  0.74325888  1.0
  C  C146  1  0.85139017  0.09924270  0.24339585  1.0
  C  C147  1  0.85138805  0.40075711  0.25660399  1.0
  C  C148  1  0.14861196  0.90075649  0.75660377  1.0
  C  C149  1  0.14861004  0.59924290  0.74339582  1.0
  C  C150  1  0.97037046  0.13019588  0.28465072  1.0
  C  C151  1  0.97037030  0.36980393  0.21534912  1.0
  C  C152  1  0.02963168  0.86980331  0.71534922  1.0
  C  C153  1  0.02962982  0.63019608  0.78465036  1.0
  C  C154  1  0.17233144  0.16780220  0.28308601  1.0
  C  C155  1  0.17233334  0.33219761  0.21691379  1.0
  C  C156  1  0.82767069  0.83219698  0.71691360  1.0
  C  C157  1  0.82766880  0.66780281  0.78308612  1.0
  C  C158  1  0.14372996  0.14651126  0.20338330  1.0
  C  C159  1  0.14372795  0.35348897  0.29661660  1.0
  C  C160  1  0.85627218  0.85348875  0.79661651  1.0
  C  C161  1  0.85627216  0.64651104  0.70338321  1.0
  C  C162  1  0.94098094  0.10789373  0.20192701  1.0
  C  C163  1  0.94098093  0.39210649  0.29807293  1.0
  C  C164  1  0.05901917  0.89210628  0.79807313  1.0
  C  C165  1  0.05901918  0.60789352  0.70192688  1.0
  C  C166  1  0.67689198  0.89318556  0.26699214  1.0
  C  C167  1  0.67689206  0.60681444  0.23300807  1.0
  C  C168  1  0.32310813  0.10681445  0.73300800  1.0
  C  C169  1  0.32310604  0.39318557  0.76699207  1.0
  C  C170  1  0.50011887  0.86039879  0.22874905  1.0
  C  C171  1  0.50012101  0.63960080  0.27125105  1.0
  C  C172  1  0.49987721  0.13960081  0.77125033  1.0
  C  C173  1  0.49987708  0.36039921  0.72874909  1.0
  C  C174  1  0.49656865  0.86606455  0.18403218  1.0
  C  C175  1  0.49656280  0.63393463  0.31596749  1.0
  C  C176  1  0.50343349  0.13393464  0.81596743  1.0
  C  C177  1  0.50343327  0.36606538  0.68403232  1.0
  C  C178  1  0.31408333  0.83468532  0.15182309  1.0
  C  C179  1  0.31407955  0.66531427  0.34817700  1.0
  C  C180  1  0.68591678  0.16531469  0.84817705  1.0
  C  C181  1  0.68591854  0.33468574  0.65182314  1.0
  C  C182  1  0.14840131  0.79281243  0.20501747  1.0
  C  C183  1  0.14840346  0.70718757  0.29498305  1.0
  C  C184  1  0.85160082  0.20718634  0.79498238  1.0
  C  C185  1  0.85159868  0.29281326  0.70501729  1.0
  C  C186  1  0.32193543  0.82259018  0.23910441  1.0
  C  C187  1  0.32193348  0.67740982  0.26089612  1.0
  C  C188  1  0.67806469  0.17740982  0.76089673  1.0
  C  C189  1  0.67806461  0.32259019  0.73910402  1.0
  N  N190  1  0.84327983  0.17176437  0.56259850  1.0
  N  N191  1  0.84327812  0.32823565  0.93740160  1.0
  N  N192  1  0.15672029  0.82823523  0.43740155  1.0
  N  N193  1  0.15672200  0.67176519  0.06259808  1.0
  N  N194  1  0.25828718  0.17570762  0.24329054  1.0
  N  N195  1  0.25828714  0.32429219  0.25670927  1.0
  N  N196  1  0.74171293  0.82429197  0.75670950  1.0
  N  N197  1  0.74171298  0.67570782  0.74329054  1.0
  N  N198  1  0.14285880  0.79890386  0.16219973  1.0
  N  N199  1  0.14285699  0.70109656  0.33780023  1.0
  N  N200  1  0.85714334  0.20109574  0.83779998  1.0
  N  N201  1  0.85714312  0.29890428  0.66220012  1.0
  Cl  Cl202  1  0.68811448  0.23113465  0.16908756  1.0
  Cl  Cl203  1  0.68811260  0.26886557  0.33091270  1.0
  Cl  Cl204  1  0.31188160  0.76886494  0.83091215  1.0
  Cl  Cl205  1  0.31188751  0.73113403  0.66908701  1.0
  Cl  Cl206  1  0.31436495  0.18924311  0.65927229  1.0
  Cl  Cl207  1  0.31436306  0.31075773  0.84072798  1.0
  Cl  Cl208  1  0.68563517  0.81075731  0.34072762  1.0
  Cl  Cl209  1  0.68563705  0.68924269  0.15927227  1.0
  Cl  Cl210  1  0.24668927  0.29050383  0.55168472  1.0
  Cl  Cl211  1  0.24668970  0.20949579  0.94831525  1.0
  Cl  Cl212  1  0.75330882  0.70949577  0.44831500  1.0
  Cl  Cl213  1  0.75330840  0.79050463  0.05168532  1.0
  O  O214  1  0.90749364  0.99316922  0.42878054  1.0
  O  O215  1  0.90749347  0.50683077  0.07121935  1.0
  O  O216  1  0.09250647  0.00683120  0.57121970  1.0
  O  O217  1  0.09250664  0.49316924  0.92878079  1.0
  O  O218  1  0.27204560  0.04995158  0.44068265  1.0
  O  O219  1  0.27204507  0.45004865  0.05931726  1.0
  O  O220  1  0.72795451  0.95004843  0.55931749  1.0
  O  O221  1  0.72795504  0.54995219  0.94068275  1.0
  O  O222  1  0.57024371  0.06182422  0.29022952  1.0
  O  O223  1  0.57024349  0.43817559  0.20977030  1.0
  O  O224  1  0.42975641  0.93817579  0.70977029  1.0
  O  O225  1  0.42975461  0.56182442  0.79022951  1.0
  O  O226  1  0.85781533  0.92791485  0.25103334  1.0
  O  O227  1  0.85781547  0.57208515  0.24896689  1.0
  O  O228  1  0.14218276  0.07208516  0.74896681  1.0
  O  O229  1  0.14218263  0.42791486  0.75103359  1.0
