# generated using pymatgen
data_Cu4SiH8(C7N2)4
_symmetry_space_group_name_H-M   'P 1'
_cell_length_a   27.53775171
_cell_length_b   27.69213262
_cell_length_c   28.84409152
_cell_angle_alpha   89.92474855
_cell_angle_beta   89.99639153
_cell_angle_gamma   89.92163423
_symmetry_Int_Tables_number   1
_chemical_formula_structural   Cu4SiH8(C7N2)4
_chemical_formula_sum   'Cu12 Si3 H24 C84 N24'
_cell_volume   21995.86096939
_cell_formula_units_Z   3
loop_
 _symmetry_equiv_pos_site_id
 _symmetry_equiv_pos_as_xyz
  1  'x, y, z'
loop_
 _atom_site_type_symbol
 _atom_site_label
 _atom_site_symmetry_multiplicity
 _atom_site_fract_x
 _atom_site_fract_y
 _atom_site_fract_z
 _atom_site_occupancy
  Cu  Cu0  1  0.76344004  0.76303940  0.83894147  1.0
  Cu  Cu1  1  0.84794236  0.76544899  0.76382002  1.0
  Cu  Cu2  1  0.76605825  0.84698590  0.76398979  1.0
  Cu  Cu3  1  0.76305865  0.23707848  0.16092957  1.0
  Cu  Cu4  1  0.84730810  0.23455824  0.23620542  1.0
  Cu  Cu5  1  0.76554167  0.15319942  0.23629505  1.0
  Cu  Cu6  1  0.23637274  0.76321120  0.16087331  1.0
  Cu  Cu7  1  0.15187523  0.76564161  0.23597501  1.0
  Cu  Cu8  1  0.23415605  0.84663839  0.23618855  1.0
  Cu  Cu9  1  0.23654720  0.23691690  0.83837106  1.0
  Cu  Cu10  1  0.15194564  0.23466936  0.76348963  1.0
  Cu  Cu11  1  0.23422078  0.15317192  0.76356248  1.0
  Si  Si12  1  0.00027885  0.00000221  0.50005250  1.0
  Si  Si13  1  0.00026249  0.49989051  0.00021017  1.0
  Si  Si14  1  0.50007894  0.00000527  0.00023605  1.0
  H  H15  1  0.79809480  0.67524889  0.90149578  1.0
  H  H16  1  0.91584753  0.68109049  0.80175995  1.0
  H  H17  1  0.68149297  0.91485891  0.80193555  1.0
  H  H18  1  0.67523604  0.79761976  0.90164114  1.0
  H  H19  1  0.91285242  0.80080250  0.67928715  1.0
  H  H20  1  0.80146265  0.91172777  0.67956145  1.0
  H  H21  1  0.79795179  0.32480881  0.09823642  1.0
  H  H22  1  0.91530578  0.31870596  0.19837628  1.0
  H  H23  1  0.68107606  0.08557175  0.19846823  1.0
  H  H24  1  0.67491717  0.20244351  0.09835314  1.0
  H  H25  1  0.91233119  0.19928031  0.32070277  1.0
  H  H26  1  0.80114231  0.08846737  0.32085592  1.0
  H  H27  1  0.20172727  0.67560816  0.09831671  1.0
  H  H28  1  0.08400215  0.68142044  0.19807158  1.0
  H  H29  1  0.31900482  0.91417971  0.19857127  1.0
  H  H30  1  0.32466384  0.79773729  0.09826134  1.0
  H  H31  1  0.08700469  0.80103147  0.32053500  1.0
  H  H32  1  0.19898607  0.91104729  0.32078758  1.0
  H  H33  1  0.20198057  0.32441298  0.90108303  1.0
  H  H34  1  0.08395378  0.31898979  0.80166135  1.0
  H  H35  1  0.31900572  0.08535405  0.80158887  1.0
  H  H36  1  0.32471741  0.20244115  0.90119123  1.0
  H  H37  1  0.08715713  0.19924442  0.67902924  1.0
  H  H38  1  0.19884815  0.08862843  0.67931475  1.0
  C  C39  1  0.82247597  0.68299824  0.87290984  1.0
  C  C40  1  0.86783878  0.66191391  0.86246017  1.0
  C  C41  1  0.88286659  0.68598426  0.82178333  1.0
  C  C42  1  0.68632000  0.88202770  0.82197824  1.0
  C  C43  1  0.66213987  0.86715871  0.86269157  1.0
  C  C44  1  0.68311228  0.82190231  0.87308439  1.0
  C  C45  1  0.88157858  0.82370284  0.68569342  1.0
  C  C46  1  0.86769829  0.86681001  0.66313786  1.0
  C  C47  1  0.82446254  0.88057176  0.68585145  1.0
  C  C48  1  0.82221742  0.31697717  0.12690562  1.0
  C  C49  1  0.86754701  0.33794159  0.13747466  1.0
  C  C50  1  0.88241415  0.31387407  0.17823237  1.0
  C  C51  1  0.68592026  0.11831042  0.17831362  1.0
  C  C52  1  0.66178432  0.13308734  0.13752524  1.0
  C  C53  1  0.68277774  0.17824396  0.12699284  1.0
  C  C54  1  0.88107737  0.17640962  0.31440758  1.0
  C  C55  1  0.86732896  0.13334881  0.33706627  1.0
  C  C56  1  0.82406161  0.11960015  0.31446849  1.0
  C  C57  1  0.17732158  0.68338238  0.12687040  1.0
  C  C58  1  0.13201822  0.66229509  0.13736581  1.0
  C  C59  1  0.11694384  0.68635041  0.17800226  1.0
  C  C60  1  0.31402582  0.88155747  0.17835731  1.0
  C  C61  1  0.33809108  0.86686813  0.13753543  1.0
  C  C62  1  0.31691238  0.82184193  0.12694027  1.0
  C  C63  1  0.11841786  0.82370957  0.31424453  1.0
  C  C64  1  0.13249339  0.86655524  0.33697950  1.0
  C  C65  1  0.17583296  0.88011507  0.31437106  1.0
  C  C66  1  0.17750877  0.31677917  0.87256144  1.0
  C  C67  1  0.13211259  0.33789362  0.86226506  1.0
  C  C68  1  0.11698745  0.31399214  0.82158807  1.0
  C  C69  1  0.31405048  0.11814131  0.82158704  1.0
  C  C70  1  0.33809094  0.13298657  0.86235420  1.0
  C  C71  1  0.31698599  0.17818247  0.87264543  1.0
  C  C72  1  0.11850130  0.17642120  0.68542929  1.0
  C  C73  1  0.13248823  0.13340039  0.66288814  1.0
  C  C74  1  0.17577031  0.11971378  0.68558756  1.0
  C  C75  1  0.89288601  0.62681265  0.88798642  1.0
  C  C76  1  0.91506922  0.59733853  0.91174520  1.0
  C  C77  1  0.93995794  0.56604039  0.93862609  1.0
  C  C78  1  0.96290285  0.53802877  0.96359931  1.0
  C  C79  1  0.89265720  0.37298212  0.11199592  1.0
  C  C80  1  0.91487271  0.40242989  0.08829262  1.0
  C  C81  1  0.93984025  0.43374310  0.06155274  1.0
  C  C82  1  0.96288741  0.46179186  0.03676734  1.0
  C  C83  1  0.10710245  0.62714703  0.11195318  1.0
  C  C84  1  0.08506594  0.59757650  0.08830449  1.0
  C  C85  1  0.06034276  0.56613363  0.06157259  1.0
  C  C86  1  0.03756115  0.53796965  0.03676187  1.0
  C  C87  1  0.10714318  0.37292880  0.88786895  1.0
  C  C88  1  0.08504699  0.40238350  0.91166171  1.0
  C  C89  1  0.06030697  0.43371320  0.93857550  1.0
  C  C90  1  0.03754107  0.46178024  0.96357500  1.0
  C  C91  1  0.62706271  0.89226722  0.88828131  1.0
  C  C92  1  0.59765282  0.91455646  0.91205664  1.0
  C  C93  1  0.56641909  0.93964059  0.93887507  1.0
  C  C94  1  0.53846285  0.96281863  0.96371068  1.0
  C  C95  1  0.37315572  0.10789470  0.88804669  1.0
  C  C96  1  0.40255750  0.08557879  0.91187456  1.0
  C  C97  1  0.43379621  0.06047670  0.93874238  1.0
  C  C98  1  0.46175218  0.03729045  0.96361956  1.0
  C  C99  1  0.62673560  0.10795512  0.11201135  1.0
  C  C100  1  0.59734815  0.08557739  0.08834932  1.0
  C  C101  1  0.56615094  0.06043697  0.06162407  1.0
  C  C102  1  0.53823518  0.03724246  0.03683193  1.0
  C  C103  1  0.37321358  0.89196283  0.11201119  1.0
  C  C104  1  0.40265427  0.91428421  0.08830035  1.0
  C  C105  1  0.43391409  0.93941230  0.06155643  1.0
  C  C106  1  0.46187401  0.96263709  0.03677581  1.0
  C  C107  1  0.89211230  0.89127660  0.62763371  1.0
  C  C108  1  0.91425069  0.91357673  0.59752650  1.0
  C  C109  1  0.93939735  0.93895159  0.56563564  1.0
  C  C110  1  0.96275809  0.96257319  0.53713033  1.0
  C  C111  1  0.10815689  0.89098968  0.37253819  1.0
  C  C112  1  0.08611937  0.91331282  0.40267901  1.0
  C  C113  1  0.06106542  0.93873808  0.43458528  1.0
  C  C114  1  0.03777669  0.96242174  0.46308883  1.0
  C  C115  1  0.10815308  0.10891862  0.62740481  1.0
  C  C116  1  0.08615331  0.08653995  0.59732268  1.0
  C  C117  1  0.06112294  0.06110358  0.56545949  1.0
  C  C118  1  0.03784066  0.03744374  0.53698543  1.0
  C  C119  1  0.89186554  0.10890324  0.37256062  1.0
  C  C120  1  0.91405832  0.08658756  0.40265985  1.0
  C  C121  1  0.93926802  0.06119173  0.43454650  1.0
  C  C122  1  0.96269400  0.03754527  0.46303135  1.0
  N  N123  1  0.84918322  0.71873698  0.80944761  1.0
  N  N124  1  0.81178762  0.71689768  0.84111839  1.0
  N  N125  1  0.71706788  0.81114350  0.84124721  1.0
  N  N126  1  0.71905366  0.84837759  0.80958609  1.0
  N  N127  1  0.81387854  0.84830898  0.71918421  1.0
  N  N128  1  0.84925287  0.81308751  0.71908277  1.0
  N  N129  1  0.84868265  0.28122051  0.19049329  1.0
  N  N130  1  0.81140101  0.28313419  0.15869267  1.0
  N  N131  1  0.71671472  0.18902646  0.15881035  1.0
  N  N132  1  0.71865028  0.15190720  0.19060752  1.0
  N  N133  1  0.81334438  0.15181939  0.28110892  1.0
  N  N134  1  0.84865961  0.18700725  0.28107183  1.0
  N  N135  1  0.15054344  0.71910378  0.19026720  1.0
  N  N136  1  0.18793640  0.71727092  0.15858607  1.0
  N  N137  1  0.28293875  0.81105340  0.15875279  1.0
  N  N138  1  0.28116429  0.84803666  0.19060733  1.0
  N  N139  1  0.18629020  0.84798969  0.28093553  1.0
  N  N140  1  0.15072801  0.81305130  0.28085231  1.0
  N  N141  1  0.15064201  0.28128903  0.80911483  1.0
  N  N142  1  0.18812535  0.28301176  0.84069426  1.0
  N  N143  1  0.28308779  0.18892237  0.84072157  1.0
  N  N144  1  0.28127656  0.15173881  0.80909027  1.0
  N  N145  1  0.18628305  0.15193279  0.71889520  1.0
  N  N146  1  0.15081120  0.18706177  0.71880331  1.0
