# generated using pymatgen
data_BaH16C14SO10
_symmetry_space_group_name_H-M   'P 1'
_cell_length_a   6.20111856
_cell_length_b   12.86181311
_cell_length_c   13.78629757
_cell_angle_alpha   76.32122563
_cell_angle_beta   87.18147501
_cell_angle_gamma   82.30604744
_symmetry_Int_Tables_number   1
_chemical_formula_structural   BaH16C14SO10
_chemical_formula_sum   'Ba2 H32 C28 S2 O20'
_cell_volume   1058.58192581
_cell_formula_units_Z   2
loop_
 _symmetry_equiv_pos_site_id
 _symmetry_equiv_pos_as_xyz
  1  'x, y, z'
loop_
 _atom_site_type_symbol
 _atom_site_label
 _atom_site_symmetry_multiplicity
 _atom_site_fract_x
 _atom_site_fract_y
 _atom_site_fract_z
 _atom_site_occupancy
  Ba  Ba0  1  0.74104063  0.47169352  0.63186381  1.0
  Ba  Ba1  1  0.25896123  0.52831015  0.36813348  1.0
  H  H2  1  0.95337586  0.13576157  0.20106644  1.0
  H  H3  1  0.04662470  0.86423324  0.79893494  1.0
  H  H4  1  0.97030570  0.94444339  0.29637033  1.0
  H  H5  1  0.02968449  0.05555472  0.70363207  1.0
  H  H6  1  0.32094125  0.00899781  0.41203900  1.0
  H  H7  1  0.67905764  0.99100504  0.58796290  1.0
  H  H8  1  0.30813029  0.20367452  0.32109449  1.0
  H  H9  1  0.69186099  0.79632601  0.67890665  1.0
  H  H10  1  0.20671399  0.40786832  0.12535931  1.0
  H  H11  1  0.79328783  0.59213537  0.87463653  1.0
  H  H12  1  0.04589707  0.43482996  0.95628902  1.0
  H  H13  1  0.95411198  0.56517768  0.04370580  1.0
  H  H14  1  0.65418858  0.30108844  0.84564431  1.0
  H  H15  1  0.34581712  0.69890474  0.15435437  1.0
  H  H16  1  0.81742045  0.27211699  0.01280634  1.0
  H  H17  1  0.18258026  0.72786975  0.98719818  1.0
  H  H18  1  0.69122921  0.21374564  0.64966332  1.0
  H  H19  1  0.30876828  0.78625638  0.35034096  1.0
  H  H20  1  0.93680779  0.21932549  0.63636539  1.0
  H  H21  1  0.06318673  0.78067500  0.36363567  1.0
  H  H22  1  0.15959618  0.32798870  0.54974318  1.0
  H  H23  1  0.84040158  0.67201176  0.45025780  1.0
  H  H24  1  0.23953078  0.39981316  0.61678061  1.0
  H  H25  1  0.76047787  0.60018885  0.38321613  1.0
  H  H26  1  0.93476903  0.72068331  0.57723514  1.0
  H  H27  1  0.06522726  0.27931637  0.42276532  1.0
  H  H28  1  0.02267872  0.66904035  0.68923311  1.0
  H  H29  1  0.97731740  0.33096013  0.31076718  1.0
  H  H30  1  0.75187921  0.37622966  0.43062587  1.0
  H  H31  1  0.24811599  0.62376762  0.56937512  1.0
  H  H32  1  0.56942623  0.31556215  0.49635291  1.0
  H  H33  1  0.43056526  0.68443754  0.50364984  1.0
  C  C34  1  0.81556795  0.10762437  0.24736051  1.0
  C  C35  1  0.18441902  0.89237306  0.75263486  1.0
  C  C36  1  0.82469166  0.00093345  0.30111785  1.0
  C  C37  1  0.17529859  0.99906393  0.69887890  1.0
  C  C38  1  0.64695526  0.96583956  0.36101412  1.0
  C  C39  1  0.35303783  0.03416013  0.63898786  1.0
  C  C40  1  0.45777945  0.03786062  0.36543774  1.0
  C  C41  1  0.54222267  0.96214291  0.63457119  1.0
  C  C42  1  0.44903170  0.14542349  0.31418881  1.0
  C  C43  1  0.55096908  0.85457848  0.68581758  1.0
  C  C44  1  0.62909490  0.17940784  0.25632204  1.0
  C  C45  1  0.37089967  0.82059263  0.74368120  1.0
  C  C46  1  0.51977873  0.33780366  0.07807544  1.0
  C  C47  1  0.48021951  0.66219440  0.92192458  1.0
  C  C48  1  0.30287154  0.38390660  0.06426164  1.0
  C  C49  1  0.69712902  0.61609549  0.93573529  1.0
  C  C50  1  0.21410532  0.39944289  0.97046367  1.0
  C  C51  1  0.78590195  0.60056557  0.02953175  1.0
  C  C52  1  0.33986146  0.37109212  0.89141123  1.0
  C  C53  1  0.66014793  0.62891392  0.10858392  1.0
  C  C54  1  0.55691489  0.32423564  0.90699802  1.0
  C  C55  1  0.44308695  0.67576077  0.09300298  1.0
  C  C56  1  0.64814048  0.30701298  0.00068048  1.0
  C  C57  1  0.35186035  0.69298026  0.99931759  1.0
  C  C58  1  0.65837713  0.85220090  0.42361204  1.0
  C  C59  1  0.34161954  0.14779715  0.57639021  1.0
  C  C60  1  0.23881760  0.39454131  0.78973822  1.0
  C  C61  1  0.76120203  0.60546221  0.21025720  1.0
  S  S62  1  0.62843605  0.31820966  0.19810761  1.0
  S  S63  1  0.37156111  0.68179326  0.80188924  1.0
  O  O64  1  0.81154155  0.23902613  0.67832907  1.0
  O  O65  1  0.18846223  0.76096937  0.32167860  1.0
  O  O66  1  0.48221776  0.81160973  0.44349145  1.0
  O  O67  1  0.51778072  0.18838749  0.55651165  1.0
  O  O68  1  0.15022652  0.40385762  0.55590737  1.0
  O  O69  1  0.84977604  0.59614283  0.44409131  1.0
  O  O70  1  0.84695615  0.80443500  0.45348628  1.0
  O  O71  1  0.15304515  0.19556383  0.54651350  1.0
  O  O72  1  0.03503372  0.41759432  0.78419883  1.0
  O  O73  1  0.96498447  0.58240041  0.21579412  1.0
  O  O74  1  0.98945925  0.65338933  0.62545581  1.0
  O  O75  1  0.01053704  0.34661035  0.37454465  1.0
  O  O76  1  0.37078656  0.39011458  0.71567306  1.0
  O  O77  1  0.62924057  0.60988404  0.28432320  1.0
  O  O78  1  0.61676425  0.38834849  0.47024535  1.0
  O  O79  1  0.38323715  0.61165029  0.52975879  1.0
  O  O80  1  0.47872404  0.37974410  0.25437081  1.0
  O  O81  1  0.52127242  0.62026205  0.74562538  1.0
  O  O82  1  0.85639037  0.33731028  0.18724118  1.0
  O  O83  1  0.14360461  0.66269510  0.81275376  1.0
