# generated using pymatgen
data_Zr3H2C48(O2F3)8
_symmetry_space_group_name_H-M   'P 1'
_cell_length_a   21.74866329
_cell_length_b   21.74846407
_cell_length_c   21.74829682
_cell_angle_alpha   60.00026905
_cell_angle_beta   59.99977681
_cell_angle_gamma   90.00077996
_symmetry_Int_Tables_number   1
_chemical_formula_structural   Zr3H2C48(O2F3)8
_chemical_formula_sum   'Zr6 H4 C96 O32 F48'
_cell_volume   7273.92401348
_cell_formula_units_Z   2
loop_
 _symmetry_equiv_pos_site_id
 _symmetry_equiv_pos_as_xyz
  1  'x, y, z'
loop_
 _atom_site_type_symbol
 _atom_site_label
 _atom_site_symmetry_multiplicity
 _atom_site_fract_x
 _atom_site_fract_y
 _atom_site_fract_z
 _atom_site_occupancy
  Zr  Zr0  1  0.08135895  0.91862057  0.99998657  1.0
  Zr  Zr1  1  0.91853180  0.08139806  0.00002064  1.0
  Zr  Zr2  1  0.08134415  0.08142000  0.83719914  1.0
  Zr  Zr3  1  0.91856454  0.91860379  0.16279940  1.0
  Zr  Zr4  1  0.08134955  0.08142580  0.99998758  1.0
  Zr  Zr5  1  0.91855217  0.91861861  0.99999991  1.0
  H  H6  1  0.19205318  0.06406558  0.87190593  1.0
  H  H7  1  0.93592049  0.06403182  0.12807963  1.0
  H  H8  1  0.93590837  0.06404288  0.87193943  1.0
  H  H9  1  0.93593242  0.80791052  0.12806634  1.0
  C  C10  1  0.20455452  0.99823355  0.00361797  1.0
  C  C11  1  0.00175049  0.20825579  0.99636488  1.0
  C  C12  1  0.79170949  0.99820103  0.00362019  1.0
  C  C13  1  0.00173786  0.79541029  0.99636412  1.0
  C  C14  1  0.20456086  0.99821194  0.79355383  1.0
  C  C15  1  0.00181698  0.79543138  0.20640574  1.0
  C  C16  1  0.79170855  0.99815754  0.20644829  1.0
  C  C17  1  0.00178326  0.20827134  0.79359013  1.0
  C  C18  1  0.20455389  0.20827226  0.79355520  1.0
  C  C19  1  0.00177939  0.99817902  0.79357956  1.0
  C  C20  1  0.79171947  0.79540288  0.20643142  1.0
  C  C21  1  0.00179674  0.99816936  0.20642260  1.0
  C  C22  1  0.27421747  0.99895289  0.00218314  1.0
  C  C23  1  0.30899089  0.94422246  0.00111031  1.0
  C  C24  1  0.37350456  0.94493029  0.00001916  1.0
  C  C25  1  0.40753142  0.00022776  0.99966032  1.0
  C  C26  1  0.37346085  0.05512488  0.00008209  1.0
  C  C27  1  0.30895996  0.05474388  0.00115162  1.0
  C  C28  1  0.47239925  0.00052927  0.99908236  1.0
  C  C29  1  0.52840710  0.00054832  0.99905434  1.0
  C  C30  1  0.59271058  0.00024921  0.99960428  1.0
  C  C31  1  0.62636366  0.94494017  0.99997616  1.0
  C  C32  1  0.68978316  0.94423208  0.00107647  1.0
  C  C33  1  0.72350647  0.99896446  0.00213248  1.0
  C  C34  1  0.68982356  0.05477654  0.00106306  1.0
  C  C35  1  0.62640522  0.05517588  0.99996276  1.0
  C  C36  1  0.00100927  0.72574450  0.99780911  1.0
  C  C37  1  0.05574579  0.69097445  0.99886431  1.0
  C  C38  1  0.05506099  0.62647598  0.99992511  1.0
  C  C39  1  0.99975957  0.59244731  0.00029268  1.0
  C  C40  1  0.94484817  0.62650317  0.99990285  1.0
  C  C41  1  0.94521926  0.69100059  0.99884665  1.0
  C  C42  1  0.99946251  0.52759536  0.00084128  1.0
  C  C43  1  0.99947592  0.47161669  0.00080780  1.0
  C  C44  1  0.99978379  0.40731902  0.00024918  1.0
  C  C45  1  0.05511124  0.37368342  0.99984042  1.0
  C  C46  1  0.05579403  0.31024115  0.99878565  1.0
  C  C47  1  0.00104031  0.27649905  0.99777209  1.0
  C  C48  1  0.94524047  0.31019061  0.99882684  1.0
  C  C49  1  0.94486556  0.37363270  0.99987887  1.0
  C  C50  1  0.00110558  0.99886571  0.27536580  1.0
  C  C51  1  0.05585558  0.05465875  0.25432854  1.0
  C  C52  1  0.05518505  0.05502508  0.31844928  1.0
  C  C53  1  0.99988486  0.00009393  0.40741347  1.0
  C  C54  1  0.94496874  0.94477842  0.42868285  1.0
  C  C55  1  0.94532909  0.94410238  0.36487247  1.0
  C  C56  1  0.99963384  0.00034506  0.47199267  1.0
  C  C57  1  0.99965873  0.00035939  0.52796427  1.0
  C  C58  1  0.99990421  0.00010742  0.59254811  1.0
  C  C59  1  0.05520781  0.05502152  0.57130136  1.0
  C  C60  1  0.05587045  0.05465008  0.63512516  1.0
  C  C61  1  0.00110068  0.99887480  0.72462841  1.0
  C  C62  1  0.94532626  0.94412154  0.74565116  1.0
  C  C63  1  0.94497367  0.94480393  0.68151652  1.0
  C  C64  1  0.72348396  0.72574535  0.27538447  1.0
  C  C65  1  0.68977370  0.69098062  0.25435565  1.0
  C  C66  1  0.62633322  0.62648113  0.31848619  1.0
  C  C67  1  0.59266273  0.59244221  0.40745554  1.0
  C  C68  1  0.62632005  0.62650210  0.42870837  1.0
  C  C69  1  0.68976315  0.69099964  0.36488866  1.0
  C  C70  1  0.52833517  0.52761569  0.47203483  1.0
  C  C71  1  0.47234697  0.47161273  0.52801383  1.0
  C  C72  1  0.40751985  0.40729177  0.59258387  1.0
  C  C73  1  0.37347557  0.37365048  0.57130761  1.0
  C  C74  1  0.30897669  0.31021131  0.63511435  1.0
  C  C75  1  0.27421787  0.27649511  0.72461747  1.0
  C  C76  1  0.30897407  0.31019641  0.74566162  1.0
  C  C77  1  0.37347453  0.37362932  0.68155003  1.0
  C  C78  1  0.27421727  0.99890428  0.72462366  1.0
  C  C79  1  0.30899562  0.05468924  0.63511390  1.0
  C  C80  1  0.37348694  0.05504096  0.57132140  1.0
  C  C81  1  0.40750318  0.00010337  0.59261736  1.0
  C  C82  1  0.37343660  0.94479474  0.68158733  1.0
  C  C83  1  0.30894747  0.94413716  0.74568608  1.0
  C  C84  1  0.47233473  0.00035065  0.52805195  1.0
  C  C85  1  0.52831768  0.00036317  0.47203348  1.0
  C  C86  1  0.59264813  0.00011579  0.40745335  1.0
  C  C87  1  0.62631570  0.05502889  0.31847828  1.0
  C  C88  1  0.68975692  0.05465004  0.25435701  1.0
  C  C89  1  0.72347664  0.99886810  0.27539271  1.0
  C  C90  1  0.68975455  0.94412029  0.36490206  1.0
  C  C91  1  0.62631484  0.94481192  0.42871295  1.0
  C  C92  1  0.00114170  0.72580073  0.27534514  1.0
  C  C93  1  0.05590928  0.69106625  0.25430373  1.0
  C  C94  1  0.05525635  0.62659547  0.31841856  1.0
  C  C95  1  0.99995583  0.59255029  0.40738347  1.0
  C  C96  1  0.94501374  0.62656817  0.42865987  1.0
  C  C97  1  0.94536340  0.69104559  0.36485402  1.0
  C  C98  1  0.99970254  0.52772097  0.47195401  1.0
  C  C99  1  0.99970030  0.47173311  0.52795879  1.0
  C  C100  1  0.99994767  0.40741135  0.59254267  1.0
  C  C101  1  0.05522208  0.37371415  0.57130366  1.0
  C  C102  1  0.05587834  0.31025415  0.63512929  1.0
  C  C103  1  0.00111740  0.27653738  0.72463188  1.0
  C  C104  1  0.94535911  0.31027945  0.74564923  1.0
  C  C105  1  0.94501907  0.37374438  0.68151416  1.0
  O  O106  1  0.17780626  0.94616251  0.00359307  1.0
  O  O107  1  0.94964045  0.18146015  0.99642418  1.0
  O  O108  1  0.81848648  0.05028838  0.00360786  1.0
  O  O109  1  0.05381634  0.82216874  0.99637553  1.0
  O  O110  1  0.17782216  0.05031012  0.76823048  1.0
  O  O111  1  0.94970895  0.82216354  0.23172882  1.0
  O  O112  1  0.81850020  0.94610284  0.23175696  1.0
  O  O113  1  0.05382774  0.18146980  0.76828115  1.0
  O  O114  1  0.17778705  0.18149980  0.87240373  1.0
  O  O115  1  0.94966457  0.94613142  0.87242424  1.0
  O  O116  1  0.81849174  0.82216165  0.12758707  1.0
  O  O117  1  0.05384297  0.05028187  0.12757593  1.0
  O  O118  1  0.05382827  0.05028577  0.76827257  1.0
  O  O119  1  0.81851596  0.82213690  0.23174806  1.0
  O  O120  1  0.94968598  0.94611538  0.23174277  1.0
  O  O121  1  0.17781777  0.18148248  0.76823769  1.0
  O  O122  1  0.17780530  0.94614984  0.87240824  1.0
  O  O123  1  0.94966133  0.18147249  0.87243444  1.0
  O  O124  1  0.81848837  0.05025421  0.12759990  1.0
  O  O125  1  0.05385643  0.82216537  0.12755484  1.0
  O  O126  1  0.94963531  0.82215153  0.99641198  1.0
  O  O127  1  0.17781857  0.05033963  0.00356480  1.0
  O  O128  1  0.05381209  0.18147257  0.99640061  1.0
  O  O129  1  0.81848320  0.94613087  0.00360164  1.0
  O  O130  1  0.95412604  0.86250407  0.09166924  1.0
  O  O131  1  0.95410490  0.04584763  0.90833696  1.0
  O  O132  1  0.95411284  0.04583922  0.09167748  1.0
  O  O133  1  0.13746111  0.04586043  0.90831408  1.0
  O  O134  1  0.03362675  0.10107427  0.93262953  1.0
  O  O135  1  0.03364951  0.96633585  0.06735204  1.0
  O  O136  1  0.89889054  0.96631810  0.06738287  1.0
  O  O137  1  0.03364098  0.96632854  0.93262112  1.0
  F  F138  1  0.28175576  0.88881747  0.00107359  1.0
  F  F139  1  0.28169458  0.11015479  0.00116860  1.0
  F  F140  1  0.40400184  0.10940878  0.99949921  1.0
  F  F141  1  0.40407999  0.89126013  0.99937185  1.0
  F  F142  1  0.59643471  0.89127008  0.99933319  1.0
  F  F143  1  0.59648312  0.10949103  0.99931892  1.0
  F  F144  1  0.71710798  0.11021979  0.00102069  1.0
  F  F145  1  0.71704925  0.88882693  0.00102960  1.0
  F  F146  1  0.11113861  0.71819771  0.99892548  1.0
  F  F147  1  0.88978849  0.71824402  0.99887744  1.0
  F  F148  1  0.89055119  0.59595023  0.00051553  1.0
  F  F149  1  0.10873624  0.59590684  0.00056157  1.0
  F  F150  1  0.10880644  0.40363924  0.00043704  1.0
  F  F151  1  0.89055233  0.40355519  0.00051469  1.0
  F  F152  1  0.88979300  0.28289891  0.99888615  1.0
  F  F153  1  0.11120507  0.28297616  0.99881371  1.0
  F  F154  1  0.11125099  0.11010553  0.17164982  1.0
  F  F155  1  0.88989641  0.88868967  0.39304177  1.0
  F  F156  1  0.89069627  0.89106861  0.51293136  1.0
  F  F157  1  0.10888401  0.10931870  0.29470198  1.0
  F  F158  1  0.10891962  0.10930748  0.48705840  1.0
  F  F159  1  0.89068301  0.89110921  0.70525881  1.0
  F  F160  1  0.88987243  0.88872577  0.82833080  1.0
  F  F161  1  0.11126933  0.11009199  0.60696827  1.0
  F  F162  1  0.71706407  0.71820486  0.17167374  1.0
  F  F163  1  0.71703519  0.71824872  0.39305009  1.0
  F  F164  1  0.59635739  0.59596781  0.51295270  1.0
  F  F165  1  0.59638793  0.59592395  0.29474535  1.0
  F  F166  1  0.40402871  0.40361683  0.48706002  1.0
  F  F167  1  0.40401947  0.40356843  0.70530647  1.0
  F  F168  1  0.28173665  0.28290650  0.82834261  1.0
  F  F169  1  0.28173633  0.28295022  0.60694234  1.0
  F  F170  1  0.28178134  0.11014319  0.60692989  1.0
  F  F171  1  0.28168844  0.88873558  0.82837126  1.0
  F  F172  1  0.40396660  0.89108700  0.70534667  1.0
  F  F173  1  0.40406363  0.10932768  0.48706482  1.0
  F  F174  1  0.59636330  0.10931470  0.29472400  1.0
  F  F175  1  0.59636520  0.89112374  0.51295666  1.0
  F  F176  1  0.71703652  0.88872484  0.39307043  1.0
  F  F177  1  0.71703843  0.11009112  0.17167229  1.0
  F  F178  1  0.11130470  0.71830618  0.17162276  1.0
  F  F179  1  0.88990801  0.71826143  0.39302696  1.0
  F  F180  1  0.89071875  0.59600044  0.51290948  1.0
  F  F181  1  0.10895547  0.59605202  0.29467274  1.0
  F  F182  1  0.10891856  0.40364888  0.48706372  1.0
  F  F183  1  0.89072881  0.40369531  0.70525953  1.0
  F  F184  1  0.88990757  0.28300179  0.82832652  1.0
  F  F185  1  0.11125538  0.28295123  0.60697612  1.0
