# generated using pymatgen
data_AlHC9N3O7
_symmetry_space_group_name_H-M   'P 1'
_cell_length_a   6.68397471
_cell_length_b   16.02138183
_cell_length_c   19.15140231
_cell_angle_alpha   74.83375367
_cell_angle_beta   80.01528654
_cell_angle_gamma   78.01759185
_symmetry_Int_Tables_number   1
_chemical_formula_structural   AlHC9N3O7
_chemical_formula_sum   'Al4 H4 C36 N12 O28'
_cell_volume   1920.83812171
_cell_formula_units_Z   4
loop_
 _symmetry_equiv_pos_site_id
 _symmetry_equiv_pos_as_xyz
  1  'x, y, z'
loop_
 _atom_site_type_symbol
 _atom_site_label
 _atom_site_symmetry_multiplicity
 _atom_site_fract_x
 _atom_site_fract_y
 _atom_site_fract_z
 _atom_site_occupancy
  Al  Al0  1  0.39986041  0.75136595  0.24793466  1.0
  Al  Al1  1  0.60637809  0.24926773  0.75167356  1.0
  Al  Al2  1  0.89937595  0.74834997  0.25187776  1.0
  Al  Al3  1  0.10716884  0.25121627  0.74818114  1.0
  H  H40  1  0.19871250  0.63362916  0.27217354  1.0
  H  H41  1  0.79750373  0.35666187  0.76276161  1.0
  H  H42  1  0.60494974  0.86611012  0.22800903  1.0
  H  H43  1  0.41632842  0.14369450  0.73728390  1.0
  C  C4  1  0.06187497  0.84376187  0.33391843  1.0
  C  C5  1  0.94367581  0.16206332  0.66147822  1.0
  C  C6  1  0.73763314  0.65590095  0.16595525  1.0
  C  C7  1  0.26774842  0.33827794  0.83843668  1.0
  C  C8  1  0.14814742  0.86072940  0.13751652  1.0
  C  C9  1  0.86579662  0.13054037  0.85694774  1.0
  C  C10  1  0.64749957  0.63908951  0.36240531  1.0
  C  C11  1  0.35266293  0.36997917  0.64299072  1.0
  C  C12  1  0.63275569  0.56868374  0.43144914  1.0
  C  C13  1  0.36058567  0.44276798  0.57480176  1.0
  C  C14  1  0.13297038  0.93134038  0.06853467  1.0
  C  C15  1  0.87828301  0.05774519  0.92515388  1.0
  C  C16  1  0.50231888  0.51014052  0.44631520  1.0
  C  C17  1  0.49571735  0.43753576  0.51415967  1.0
  C  C18  1  0.95950239  0.99015869  0.05358798  1.0
  C  C19  1  0.94840369  0.06281657  0.98576538  1.0
  C  C20  1  0.79337081  0.60902163  0.10871372  1.0
  C  C21  1  0.21189142  0.38762006  0.89367821  1.0
  C  C22  1  0.01299949  0.89032307  0.39136823  1.0
  C  C23  1  0.99227057  0.11249122  0.60637995  1.0
  C  C24  1  0.90356848  0.52416428  0.00452516  1.0
  C  C25  1  0.09992376  0.47464681  0.99633538  1.0
  C  C26  1  0.93388182  0.97513194  0.49561493  1.0
  C  C27  1  0.07165775  0.02508027  0.50391124  1.0
  C  C28  1  0.16243729  0.42830966  0.94121994  1.0
  C  C29  1  0.84126350  0.57000955  0.06001158  1.0
  C  C30  1  0.03163821  0.07159489  0.55894539  1.0
  C  C31  1  0.97331499  0.92922684  0.44015975  1.0
  C  C32  1  0.63849866  0.35891953  0.51018259  1.0
  C  C33  1  0.36896424  0.51045534  0.39565377  1.0
  C  C34  1  0.00982502  0.14124761  0.98971315  1.0
  C  C35  1  0.77622813  0.98985140  0.10432465  1.0
  C  C36  1  0.24367446  0.46941379  0.04505919  1.0
  C  C37  1  0.76062599  0.52896591  0.95558105  1.0
  C  C38  1  0.25886273  0.03055527  0.45536563  1.0
  C  C39  1  0.74705717  0.96998158  0.54442640  1.0
  N  N44  1  0.75576080  0.29562387  0.50328712  1.0
  N  N45  1  0.25790250  0.50559245  0.35654583  1.0
  N  N46  1  0.05774042  0.20442982  0.99660237  1.0
  N  N47  1  0.62174795  0.99469118  0.14356232  1.0
  N  N48  1  0.22289074  0.52591659  0.58014548  1.0
  N  N49  1  0.75175836  0.57061815  0.48837417  1.0
  N  N50  1  0.82817763  0.97470647  0.91983554  1.0
  N  N51  1  0.31072448  0.92914465  0.01179184  1.0
  N  N52  1  0.36441172  0.46395559  0.08413927  1.0
  N  N53  1  0.64234316  0.53347592  0.91586633  1.0
  N  N54  1  0.41316399  0.03616209  0.41641896  1.0
  N  N55  1  0.59375280  0.96522413  0.58409204  1.0
  O  O56  1  0.98073973  0.83393351  0.16553056  1.0
  O  O57  1  0.03457377  0.15669724  0.82996536  1.0
  O  O58  1  0.48274708  0.66475818  0.33333333  1.0
  O  O59  1  0.52079091  0.34377676  0.66992512  1.0
  O  O60  1  0.25171355  0.82738110  0.30939028  1.0
  O  O61  1  0.75408561  0.17960408  0.68608223  1.0
  O  O62  1  0.88605667  0.67119110  0.19164632  1.0
  O  O63  1  0.12008578  0.32077524  0.81379030  1.0
  O  O64  1  0.32072524  0.83838549  0.16133935  1.0
  O  O65  1  0.69065337  0.15670917  0.83531198  1.0
  O  O66  1  0.82071037  0.66245163  0.33944809  1.0
  O  O67  1  0.18213592  0.34380254  0.66460453  1.0
  O  O68  1  0.54580571  0.67671196  0.18542767  1.0
  O  O69  1  0.45957807  0.31712124  0.81865435  1.0
  O  O70  1  0.91041488  0.82432801  0.31312930  1.0
  O  O71  1  0.09467161  0.18340001  0.68118063  1.0
  O  O72  1  0.17256013  0.69755832  0.25816374  1.0
  O  O73  1  0.83208892  0.30220061  0.74661348  1.0
  O  O74  1  0.62877319  0.80217612  0.24177645  1.0
  O  O75  1  0.38058332  0.19827402  0.75324849  1.0
  O  O76  1  0.15066037  0.53361571  0.64245211  1.0
  O  O77  1  0.19475830  0.58241368  0.52291417  1.0
  O  O78  1  0.83495692  0.49963613  0.52453294  1.0
  O  O79  1  0.75185318  0.64417693  0.49703395  1.0
  O  O80  1  0.82592075  0.96688675  0.85753576  1.0
  O  O81  1  0.79879701  0.91830219  0.97706876  1.0
  O  O82  1  0.35830158  0.00009487  0.97513693  1.0
  O  O83  1  0.39367286  0.85543090  0.00374384  1.0
