# generated using pymatgen
data_Zn2H3C12S2NO9
_symmetry_space_group_name_H-M   'P 1'
_cell_length_a   19.60896007
_cell_length_b   19.62587408
_cell_length_c   33.35689875
_cell_angle_alpha   79.16314546
_cell_angle_beta   79.18354151
_cell_angle_gamma   63.84861367
_symmetry_Int_Tables_number   1
_chemical_formula_structural   Zn2H3C12S2NO9
_chemical_formula_sum   'Zn16 H24 C96 S16 N8 O72'
_cell_volume   11237.32315735
_cell_formula_units_Z   8
loop_
 _symmetry_equiv_pos_site_id
 _symmetry_equiv_pos_as_xyz
  1  'x, y, z'
loop_
 _atom_site_type_symbol
 _atom_site_label
 _atom_site_symmetry_multiplicity
 _atom_site_fract_x
 _atom_site_fract_y
 _atom_site_fract_z
 _atom_site_occupancy
  Zn  Zn0  1  0.59965215  0.94619315  0.52187776  1.0
  Zn  Zn1  1  0.51741305  0.01154268  0.43971014  1.0
  Zn  Zn2  1  0.43567394  0.94340341  0.51829030  1.0
  Zn  Zn3  1  0.44457038  0.09873232  0.52095866  1.0
  Zn  Zn4  1  0.64927986  0.30749735  0.72863844  1.0
  Zn  Zn5  1  0.80798221  0.31314476  0.73464652  1.0
  Zn  Zn6  1  0.73575959  0.22866634  0.81008714  1.0
  Zn  Zn7  1  0.80296362  0.15344331  0.72696284  1.0
  Zn  Zn8  1  0.23468837  0.73043780  0.31105006  1.0
  Zn  Zn9  1  0.30516979  0.64838803  0.22949801  1.0
  Zn  Zn10  1  0.15351441  0.80528321  0.22878099  1.0
  Zn  Zn11  1  0.31370375  0.80766379  0.23513713  1.0
  Zn  Zn12  1  0.94043361  0.43839913  0.01791801  1.0
  Zn  Zn13  1  0.94556378  0.59841037  0.02190939  1.0
  Zn  Zn14  1  0.09983401  0.44422338  0.02253574  1.0
  Zn  Zn15  1  0.01726094  0.51374665  0.94010314  1.0
  H  H16  1  0.74730842  0.04790216  0.65087076  1.0
  H  H17  1  0.54418215  0.26022051  0.64640507  1.0
  H  H18  1  0.69787096  0.00065244  0.60285223  1.0
  H  H19  1  0.39939243  0.90450969  0.30202977  1.0
  H  H20  1  0.30981792  0.78382703  0.40374348  1.0
  H  H21  1  0.44183763  0.95471436  0.35187064  1.0
  H  H22  1  0.76054820  0.53804425  0.65769142  1.0
  H  H23  1  0.29787539  0.51562293  0.39963509  1.0
  H  H24  1  0.02140117  0.79512356  0.39816213  1.0
  H  H25  1  0.03329779  0.04967629  0.65768219  1.0
  H  H26  1  0.95064786  0.44619309  0.84892890  1.0
  H  H27  1  0.83968357  0.35203897  0.95355628  1.0
  H  H28  1  0.89729441  0.40079329  0.80203931  1.0
  H  H29  1  0.23150684  0.45379816  0.85220287  1.0
  H  H30  1  0.85911863  0.83691344  0.95784695  1.0
  H  H31  1  0.20994727  0.50059370  0.09787874  1.0
  H  H32  1  0.99683245  0.70287259  0.10146052  1.0
  H  H33  1  0.25577882  0.55045661  0.14632357  1.0
  H  H34  1  0.71628841  0.70262424  0.09625875  1.0
  H  H35  1  0.99094105  0.21255840  0.09338792  1.0
  H  H36  1  0.47401780  0.19953340  0.57627771  1.0
  H  H37  1  0.37486032  0.84562916  0.47577082  1.0
  H  H38  1  0.76125668  0.28737274  0.88966827  1.0
  H  H39  1  0.05732526  0.77535858  0.17056721  1.0
  C  C40  1  0.68318636  0.93558592  0.43952154  1.0
  C  C41  1  0.42799691  0.92705882  0.43331039  1.0
  C  C42  1  0.55899861  0.82163299  0.56248881  1.0
  C  C43  1  0.31515807  0.06455807  0.56135639  1.0
  C  C44  1  0.56845883  0.07385717  0.56865299  1.0
  C  C45  1  0.44092153  0.17791011  0.43821869  1.0
  C  C46  1  0.68919385  0.43492362  0.68741493  1.0
  C  C47  1  0.81029623  0.32459373  0.82218457  1.0
  C  C48  1  0.56922947  0.30669401  0.81167899  1.0
  C  C49  1  0.81595098  0.06458476  0.80873670  1.0
  C  C50  1  0.67721872  0.18527354  0.68004986  1.0
  C  C51  1  0.93507353  0.18878130  0.69259684  1.0
  C  C52  1  0.30927288  0.56313384  0.31256543  1.0
  C  C53  1  0.18144143  0.68048058  0.18001772  1.0
  C  C54  1  0.06655567  0.81146417  0.31132331  1.0
  C  C55  1  0.19122167  0.93238270  0.19115784  1.0
  C  C56  1  0.32481161  0.81213530  0.32099483  1.0
  C  C57  1  0.43069721  0.68932590  0.18800412  1.0
  C  C58  1  0.81597921  0.56264102  0.06183246  1.0
  C  C59  1  0.07197807  0.57023665  0.06827165  1.0
  C  C60  1  0.06214967  0.31536806  0.06292366  1.0
  C  C61  1  0.18503947  0.43652260  0.93903172  1.0
  C  C62  1  0.92988891  0.42810680  0.93225295  1.0
  C  C63  1  0.93784079  0.68223380  0.93810918  1.0
  C  C64  1  0.59486596  0.10371846  0.59710474  1.0
  C  C65  1  0.64831691  0.15680539  0.65135254  1.0
  C  C66  1  0.55087846  0.17819616  0.60927055  1.0
  C  C67  1  0.69260437  0.08324742  0.63915834  1.0
  C  C68  1  0.57821521  0.20350490  0.63682319  1.0
  C  C69  1  0.66529488  0.05744330  0.61260826  1.0
  C  C70  1  0.40162132  0.89631434  0.40534605  1.0
  C  C71  1  0.35198563  0.84136819  0.35018356  1.0
  C  C72  1  0.36448265  0.84693869  0.42036381  1.0
  C  C73  1  0.38979465  0.88930231  0.33502402  1.0
  C  C74  1  0.33913157  0.82081898  0.39225908  1.0
  C  C75  1  0.41344790  0.91665980  0.36259585  1.0
  C  C76  1  0.54552670  0.69589327  0.59657842  1.0
  C  C77  1  0.70359341  0.55476904  0.64968632  1.0
  C  C78  1  0.58372166  0.74320696  0.58435141  1.0
  C  C79  1  0.66375333  0.50970267  0.66193267  1.0
  C  C80  1  0.65966059  0.62312437  0.62621358  1.0
  C  C81  1  0.58771783  0.62808729  0.62116490  1.0
  C  C82  1  0.42112863  0.26947599  0.36916100  1.0
  C  C83  1  0.32630166  0.47143945  0.37918254  1.0
  C  C84  1  0.41310635  0.25166906  0.41175754  1.0
  C  C85  1  0.33523710  0.48730324  0.33683595  1.0
  C  C86  1  0.35869495  0.39167522  0.39083344  1.0
  C  C87  1  0.39151137  0.34917175  0.35700040  1.0
  C  C88  1  0.77366188  0.92819037  0.37066339  1.0
  C  C89  1  0.97634690  0.82539256  0.37828722  1.0
  C  C90  1  0.75715675  0.91683149  0.41320422  1.0
  C  C91  1  0.99090758  0.83707890  0.33594679  1.0
  C  C92  1  0.89678194  0.85808968  0.39071191  1.0
  C  C93  1  0.85298747  0.89369197  0.35749564  1.0
  C  C94  1  0.19492659  0.16264792  0.60156479  1.0
  C  C95  1  0.05217448  0.09545475  0.65198264  1.0
  C  C96  1  0.23866861  0.09350022  0.58537914  1.0
  C  C97  1  0.01014515  0.16474273  0.66749321  1.0
  C  C98  1  0.12040840  0.09455076  0.62850068  1.0
  C  C99  1  0.12824796  0.16313876  0.62682901  1.0
  C  C100  1  0.83889679  0.35138898  0.85109724  1.0
  C  C101  1  0.89832889  0.40137147  0.90396849  1.0
  C  C102  1  0.82208996  0.33743152  0.89441396  1.0
  C  C103  1  0.91488440  0.41578025  0.86107705  1.0
  C  C104  1  0.85248207  0.36284333  0.92040648  1.0
  C  C105  1  0.88526312  0.39079788  0.83531224  1.0
  C  C106  1  0.47869787  0.32545140  0.88122479  1.0
  C  C107  1  0.27614913  0.42345579  0.87233023  1.0
  C  C108  1  0.49586505  0.33516808  0.83861638  1.0
  C  C109  1  0.26088605  0.41168599  0.91460101  1.0
  C  C110  1  0.35587328  0.39079711  0.86032694  1.0
  C  C111  1  0.39900922  0.35544511  0.89381189  1.0
  C  C112  1  0.88427675  0.91501423  0.82019096  1.0
  C  C113  1  0.87621315  0.82836911  0.92557902  1.0
  C  C114  1  0.84553650  0.98796550  0.83262832  1.0
  C  C115  1  0.91418682  0.75677552  0.91231213  1.0
  C  C116  1  0.86417035  0.88593331  0.89168172  1.0
  C  C117  1  0.89364287  0.85654969  0.85355807  1.0
  C  C118  1  0.15255072  0.65365359  0.15125680  1.0
  C  C119  1  0.10063371  0.59913626  0.09691017  1.0
  C  C120  1  0.07846553  0.69749096  0.13847980  1.0
  C  C121  1  0.17409914  0.55533502  0.10938818  1.0
  C  C122  1  0.05354375  0.66935214  0.11119164  1.0
  C  C123  1  0.19920987  0.58291348  0.13618687  1.0
  C  C124  1  0.54669479  0.59595989  0.14339893  1.0
  C  C125  1  0.69682875  0.65740346  0.10085772  1.0
  C  C126  1  0.50297838  0.66472199  0.15997854  1.0
  C  C127  1  0.73963303  0.58785654  0.08570117  1.0
  C  C128  1  0.62677761  0.65962142  0.12246718  1.0
  C  C129  1  0.61810406  0.59183138  0.12286642  1.0
  C  C130  1  0.21010459  0.05130010  0.14991452  1.0
  C  C131  1  0.04842369  0.19545548  0.10073026  1.0
  C  C132  1  0.17078157  0.00541520  0.16387874  1.0
  C  C133  1  0.08859551  0.24007744  0.08776678  1.0
  C  C134  1  0.09265892  0.12714532  0.12409643  1.0
  C  C135  1  0.16539586  0.12155629  0.12804357  1.0
  S  S136  1  0.67259745  0.70285745  0.60182017  1.0
  S  S137  1  0.57325782  0.54965903  0.64553707  1.0
  S  S138  1  0.36692033  0.33291427  0.43672759  1.0
  S  S139  1  0.38348130  0.40655166  0.31094306  1.0
  S  S140  1  0.83939702  0.86599797  0.43710593  1.0
  S  S141  1  0.90900866  0.88656904  0.31099260  1.0
  S  S142  1  0.19640970  0.03024203  0.60019022  1.0
  S  S143  1  0.05296172  0.22841418  0.65445970  1.0
  S  S144  1  0.41402387  0.38387944  0.81424998  1.0
  S  S145  1  0.34217434  0.36091681  0.93997031  1.0
  S  S146  1  0.82312127  0.98444258  0.88546727  1.0
  S  S147  1  0.93478435  0.75853679  0.85906449  1.0
  S  S148  1  0.54843238  0.72545204  0.14877112  1.0
  S  S149  1  0.69605733  0.52479717  0.09760440  1.0
  S  S150  1  0.07985679  0.04752739  0.14876798  1.0
  S  S151  1  0.17919620  0.20048017  0.10395559  1.0
  N  N152  1  0.47282986  0.70779057  0.58477122  1.0
  N  N153  1  0.45040441  0.21646900  0.33821530  1.0
  N  N154  1  0.71940156  0.97399617  0.34111673  1.0
  N  N155  1  0.20853687  0.23144824  0.59270187  1.0
  N  N156  1  0.53260002  0.29343067  0.91168759  1.0
  N  N157  1  0.91807418  0.89589033  0.77878306  1.0
  N  N158  1  0.52463225  0.53398029  0.14354377  1.0
  N  N159  1  0.28982486  0.03168214  0.15340177  1.0
  O  O160  1  0.50019628  0.99908577  0.50038977  1.0
  O  O161  1  0.68525886  0.93538443  0.47772446  1.0
  O  O162  1  0.45610662  0.97490850  0.41785682  1.0
  O  O163  1  0.48784049  0.86130093  0.56085998  1.0
  O  O164  1  0.62537847  0.94757129  0.42264947  1.0
  O  O165  1  0.61299848  0.84280248  0.54833679  1.0
  O  O166  1  0.42068058  0.90342766  0.47232869  1.0
  O  O167  1  0.33197463  0.00612525  0.54321355  1.0
  O  O168  1  0.50592193  0.12050761  0.55300284  1.0
  O  O169  1  0.35809549  0.09741318  0.56176470  1.0
  O  O170  1  0.60757305  0.00503956  0.56100808  1.0
  O  O171  1  0.49324536  0.12001931  0.42257117  1.0
  O  O172  1  0.41010355  0.18068706  0.47577183  1.0
  O  O173  1  0.74893624  0.25156814  0.75004313  1.0
  O  O174  1  0.64289420  0.40309246  0.69438521  1.0
  O  O175  1  0.82865831  0.33828919  0.78385649  1.0
  O  O176  1  0.62663775  0.25196479  0.82668697  1.0
  O  O177  1  0.75457494  0.40909949  0.70010771  1.0
  O  O178  1  0.56667880  0.33923648  0.77457170  1.0
  O  O179  1  0.76813587  0.28809958  0.83775297  1.0
  O  O180  1  0.79696131  0.12057331  0.82932878  1.0
  O  O181  1  0.74646250  0.14516928  0.68723280  1.0
  O  O182  1  0.80934574  0.06894277  0.77111889  1.0
  O  O183  1  0.63083691  0.24717512  0.69494872  1.0
  O  O184  1  0.90695721  0.25587266  0.70359055  1.0
  O  O185  1  0.90513544  0.14099149  0.70064534  1.0
  O  O186  1  0.25152069  0.74820979  0.25081977  1.0
  O  O187  1  0.27742117  0.62124541  0.33240950  1.0
  O  O188  1  0.24864161  0.63947298  0.18980348  1.0
  O  O189  1  0.06663000  0.83056819  0.27241685  1.0
  O  O190  1  0.32109888  0.56324065  0.27351556  1.0
  O  O191  1  0.12448370  0.77303330  0.33091621  1.0
  O  O192  1  0.13565648  0.74511509  0.19378602  1.0
  O  O193  1  0.14847319  0.89795302  0.19185483  1.0
  O  O194  1  0.34817052  0.82208831  0.28284966  1.0
  O  O195  1  0.24623742  0.91148028  0.21215462  1.0
  O  O196  1  0.28038903  0.77962586  0.33653274  1.0
  O  O197  1  0.40833570  0.63829959  0.20570715  1.0
  O  O198  1  0.39883189  0.76043304  0.19286372  1.0
  O  O199  1  0.00072723  0.49897045  0.00044779  1.0
  O  O200  1  0.84464260  0.49486533  0.05172429  1.0
  O  O201  1  0.00530575  0.61303510  0.05770110  1.0
  O  O202  1  0.10822300  0.34751714  0.05576114  1.0
  O  O203  1  0.84625607  0.61017758  0.05340840  1.0
  O  O204  1  0.99628724  0.34126162  0.05085040  1.0
  O  O205  1  0.11651985  0.50485916  0.05668439  1.0
  O  O206  1  0.18504632  0.41803839  0.97788502  1.0
  O  O207  1  0.97146297  0.46326385  0.91545807  1.0
  O  O208  1  0.12699626  0.47387569  0.91933452  1.0
  O  O209  1  0.91276406  0.41385478  0.97078657  1.0
  O  O210  1  0.92261227  0.68359800  0.97690674  1.0
  O  O211  1  0.97185626  0.62323194  0.91884215  1.0
  O  O212  1  0.48330936  0.22650465  0.59574952  1.0
  O  O213  1  0.35172139  0.82364068  0.46058032  1.0
  O  O214  1  0.77812054  0.30068428  0.91227618  1.0
  O  O215  1  0.03012772  0.76564522  0.15134850  1.0
  O  O216  1  0.43663090  0.67594852  0.60951801  1.0
  O  O217  1  0.45333539  0.74473741  0.55135304  1.0
  O  O218  1  0.47808551  0.23936435  0.30460935  1.0
  O  O219  1  0.44297490  0.15592068  0.34627200  1.0
  O  O220  1  0.73854221  0.95373064  0.30598006  1.0
  O  O221  1  0.66144541  0.02999774  0.35189552  1.0
  O  O222  1  0.17983625  0.27549260  0.61979788  1.0
  O  O223  1  0.24358147  0.24351183  0.55931214  1.0
  O  O224  1  0.50963867  0.26551660  0.94522771  1.0
  O  O225  1  0.59450250  0.29837702  0.90345712  1.0
  O  O226  1  0.92418202  0.83337578  0.77134854  1.0
  O  O227  1  0.94103546  0.93959284  0.75477769  1.0
  O  O228  1  0.57849609  0.46913737  0.14289355  1.0
  O  O229  1  0.45679164  0.54921310  0.14243512  1.0
  O  O230  1  0.30465678  0.08676126  0.15454236  1.0
  O  O231  1  0.33694481  0.96435154  0.15309190  1.0
