# generated using pymatgen
data_Zn2H34C41(NO3)4
_symmetry_space_group_name_H-M   'P 1'
_cell_length_a   14.69282463
_cell_length_b   16.08744879
_cell_length_c   16.08918569
_cell_angle_alpha   89.70909882
_cell_angle_beta   89.48455202
_cell_angle_gamma   89.33712582
_symmetry_Int_Tables_number   1
_chemical_formula_structural   Zn2H34C41(NO3)4
_chemical_formula_sum   'Zn2 H34 C41 N4 O12'
_cell_volume   3802.54642122
_cell_formula_units_Z   1
loop_
 _symmetry_equiv_pos_site_id
 _symmetry_equiv_pos_as_xyz
  1  'x, y, z'
loop_
 _atom_site_type_symbol
 _atom_site_label
 _atom_site_symmetry_multiplicity
 _atom_site_fract_x
 _atom_site_fract_y
 _atom_site_fract_z
 _atom_site_occupancy
  Zn  Zn0  1  0.59575439  0.49891517  0.49938894  1.0
  Zn  Zn1  1  0.40341757  0.50051579  0.50032551  1.0
  H  H2  1  0.50103490  0.05343318  0.36019639  1.0
  H  H3  1  0.63585769  0.94705257  0.42978624  1.0
  H  H4  1  0.36381694  0.95170028  0.43084142  1.0
  H  H5  1  0.36375132  0.05209477  0.57588197  1.0
  H  H6  1  0.63609060  0.04741008  0.57482269  1.0
  H  H7  1  0.64494955  0.53905916  0.92525886  1.0
  H  H8  1  0.64603926  0.53853604  0.07048470  1.0
  H  H9  1  0.38903354  0.59166971  0.07113686  1.0
  H  H10  1  0.38797122  0.59156902  0.93087799  1.0
  H  H11  1  0.46801820  0.37692253  0.07377466  1.0
  H  H12  1  0.37257296  0.44433745  0.07492920  1.0
  H  H13  1  0.46724525  0.37701902  0.92796242  1.0
  H  H14  1  0.62389217  0.43077241  0.07120735  1.0
  H  H15  1  0.62326354  0.43121840  0.92565556  1.0
  H  H16  1  0.37173186  0.44433323  0.92869959  1.0
  H  H17  1  0.92160804  0.52436107  0.36687276  1.0
  H  H18  1  0.08050126  0.52539498  0.36767730  1.0
  H  H19  1  0.07573067  0.60309945  0.58760431  1.0
  H  H20  1  0.07687312  0.63440517  0.48226246  1.0
  H  H21  1  0.91795120  0.63356415  0.48133312  1.0
  H  H22  1  0.91681696  0.60243242  0.58672521  1.0
  H  H23  1  0.08069787  0.37346187  0.54598169  1.0
  H  H24  1  0.07801433  0.44904945  0.62521537  1.0
  H  H25  1  0.92180152  0.37264368  0.54516517  1.0
  H  H26  1  0.08219760  0.41861663  0.39370610  1.0
  H  H27  1  0.92333901  0.41764456  0.39311424  1.0
  H  H28  1  0.91913650  0.44815779  0.62447357  1.0
  H  H29  1  0.43739572  0.92915790  0.83606226  1.0
  H  H30  1  0.55770854  0.92727310  0.83572773  1.0
  H  H31  1  0.49790139  0.01677447  0.87190221  1.0
  H  H32  1  0.55902051  0.04280637  0.72792657  1.0
  H  H33  1  0.43920606  0.04497466  0.72831822  1.0
  H  H34  1  0.43814134  0.89653253  0.67807595  1.0
  H  H35  1  0.55790674  0.89430773  0.67767309  1.0
  C  C36  1  0.49904103  0.50202275  0.33753998  1.0
  C  C37  1  0.50187978  0.33825185  0.50036555  1.0
  C  C38  1  0.49749285  0.50038974  0.66225573  1.0
  C  C39  1  0.49951683  0.66098635  0.50095038  1.0
  C  C40  1  0.57562195  0.97122743  0.46239972  1.0
  C  C41  1  0.50050649  0.02848087  0.42353648  1.0
  C  C42  1  0.50163361  0.24855044  0.50191605  1.0
  C  C43  1  0.49910396  0.75058212  0.50179347  1.0
  C  C44  1  0.57569753  0.02530968  0.54273015  1.0
  C  C45  1  0.50056737  0.08489728  0.50422082  1.0
  C  C46  1  0.49923465  0.97034024  0.58287278  1.0
  C  C47  1  0.49921947  0.91412027  0.50120034  1.0
  C  C48  1  0.42409316  0.02792534  0.54330120  1.0
  C  C49  1  0.42410956  0.97377522  0.46297837  1.0
  C  C50  1  0.50121706  0.17279390  0.50343218  1.0
  C  C51  1  0.49886741  0.82634358  0.50131739  1.0
  C  C52  1  0.60062654  0.49109002  0.04654771  1.0
  C  C53  1  0.45942606  0.58793253  0.04852330  1.0
  C  C54  1  0.45872816  0.58792666  0.95142374  1.0
  C  C55  1  0.49805267  0.50342598  0.75243653  1.0
  C  C56  1  0.50349849  0.50624320  0.08165067  1.0
  C  C57  1  0.60005016  0.49131932  0.95063405  1.0
  C  C58  1  0.50247624  0.50634907  0.91794450  1.0
  C  C59  1  0.44095450  0.43606638  0.95291531  1.0
  C  C60  1  0.44149864  0.43603333  0.04900563  1.0
  C  C61  1  0.50011098  0.50585905  0.82778651  1.0
  C  C62  1  0.50203019  0.50609683  0.17187328  1.0
  C  C63  1  0.50013084  0.50444537  0.24730187  1.0
  C  C64  1  0.05391635  0.47936255  0.41197948  1.0
  C  C65  1  0.05021340  0.58761303  0.52571908  1.0
  C  C66  1  0.94489948  0.58710635  0.52515213  1.0
  C  C67  1  0.08722527  0.50068251  0.50041972  1.0
  C  C68  1  0.94865475  0.47874130  0.41151199  1.0
  C  C69  1  0.91188501  0.49979372  0.49960329  1.0
  C  C70  1  0.94718199  0.43399897  0.56260240  1.0
  C  C71  1  0.05244299  0.43455242  0.56310185  1.0
  C  C72  1  0.81328256  0.49922074  0.49921044  1.0
  C  C73  1  0.18582871  0.50093046  0.50073485  1.0
  C  C74  1  0.49846246  0.93611359  0.66974007  1.0
  C  C75  1  0.49869955  0.00349564  0.73679471  1.0
  C  C76  1  0.49786762  0.96740785  0.82489350  1.0
  N  N77  1  0.73448842  0.49859224  0.49895279  1.0
  N  N78  1  0.26462994  0.50082062  0.50085663  1.0
  N  N79  1  0.50058579  0.66657458  0.08514491  1.0
  N  N80  1  0.49895267  0.66687372  0.91294523  1.0
  O  O81  1  0.57644012  0.49999116  0.37222575  1.0
  O  O82  1  0.42098630  0.50200470  0.37233063  1.0
  O  O83  1  0.57956112  0.37273521  0.49936842  1.0
  O  O84  1  0.42423397  0.37460342  0.50021184  1.0
  O  O85  1  0.57516200  0.49794482  0.62684345  1.0
  O  O86  1  0.41971421  0.50041044  0.62825554  1.0
  O  O87  1  0.57732832  0.62498869  0.50034876  1.0
  O  O88  1  0.42202200  0.62605426  0.50078297  1.0
  O  O89  1  0.58409583  0.67128194  0.09000619  1.0
  O  O90  1  0.44511003  0.72044985  0.10760128  1.0
  O  O91  1  0.44293679  0.72140477  0.89358524  1.0
  O  O92  1  0.58215468  0.67126787  0.90372925  1.0
