# generated using pymatgen
data_Zn4H14(C8O5)3
_symmetry_space_group_name_H-M   'P 1'
_cell_length_a   18.46936894
_cell_length_b   18.56286988
_cell_length_c   18.59278848
_cell_angle_alpha   60.19754752
_cell_angle_beta   60.31258806
_cell_angle_gamma   60.44727261
_symmetry_Int_Tables_number   1
_chemical_formula_structural   Zn4H14(C8O5)3
_chemical_formula_sum   'Zn8 H28 C48 O30'
_cell_volume   4539.91107663
_cell_formula_units_Z   2
loop_
 _symmetry_equiv_pos_site_id
 _symmetry_equiv_pos_as_xyz
  1  'x, y, z'
loop_
 _atom_site_type_symbol
 _atom_site_label
 _atom_site_symmetry_multiplicity
 _atom_site_fract_x
 _atom_site_fract_y
 _atom_site_fract_z
 _atom_site_occupancy
  Zn  Zn0  1  0.54462544  0.04386656  0.86772729  1.0
  Zn  Zn1  1  0.54120659  0.87262285  0.04153164  1.0
  Zn  Zn2  1  0.37117251  0.04394641  0.04135416  1.0
  Zn  Zn3  1  0.54375323  0.04413175  0.04137385  1.0
  Zn  Zn4  1  0.95831156  0.45571288  0.62965099  1.0
  Zn  Zn5  1  0.12783462  0.45818772  0.45550713  1.0
  Zn  Zn6  1  0.95549496  0.62856355  0.45789788  1.0
  Zn  Zn7  1  0.95385194  0.45527688  0.45896511  1.0
  H  H8  1  0.93018208  0.97433777  0.70413816  1.0
  H  H9  1  0.71915398  0.68683501  0.18445910  1.0
  H  H10  1  0.52944572  0.27997222  0.89552347  1.0
  H  H11  1  0.69596427  0.84366803  0.22032873  1.0
  H  H12  1  0.09355410  0.81164515  0.30710415  1.0
  H  H13  1  0.26386209  0.65677538  0.27120180  1.0
  H  H14  1  0.18787753  0.90589359  0.19628546  1.0
  H  H15  1  0.34298654  0.73893207  0.24000141  1.0
  H  H16  1  0.79001203  0.81284417  0.59769653  1.0
  H  H17  1  0.80423432  0.65118240  0.76516932  1.0
  H  H18  1  0.72500414  0.89707420  0.69866610  1.0
  H  H19  1  0.27059922  0.31435062  0.64708373  1.0
  H  H20  1  0.47098847  0.43331493  0.88901869  1.0
  H  H21  1  0.56722463  0.52805486  0.79524389  1.0
  H  H22  1  0.72152420  0.46870693  0.70886230  1.0
  H  H23  1  0.96885441  0.22134862  0.60674347  1.0
  H  H24  1  0.02659237  0.06889540  0.61095569  1.0
  H  H25  1  0.77688554  0.03255197  0.79287769  1.0
  H  H26  1  0.09991657  0.32130492  0.80828927  1.0
  H  H27  1  0.20665833  0.29527655  0.98487241  1.0
  H  H28  1  0.58441942  0.66220716  0.86905453  1.0
  H  H29  1  0.33276519  0.18227006  0.74100300  1.0
  H  H30  1  0.09230948  0.28708369  0.30356195  1.0
  H  H31  1  0.26161861  0.30363939  0.27984042  1.0
  H  H32  1  0.18601315  0.20916532  0.19607211  1.0
  H  H33  1  0.34594704  0.20308383  0.21480686  1.0
  H  H34  1  0.79201959  0.59312475  0.29768217  1.0
  H  H35  1  0.80707171  0.76244734  0.27399580  1.0
  C  C36  1  0.64081809  0.86215980  0.13061057  1.0
  C  C37  1  0.95864822  0.09551658  0.65006501  1.0
  C  C38  1  0.90392049  0.04179718  0.70305342  1.0
  C  C39  1  0.36504811  0.13280113  0.85929371  1.0
  C  C40  1  0.81834836  0.07426092  0.75286047  1.0
  C  C41  1  0.17104877  0.30235416  0.77361629  1.0
  C  C42  1  0.20053610  0.32728449  0.68530088  1.0
  C  C43  1  0.22783606  0.25074700  0.82769179  1.0
  C  C44  1  0.30779571  0.19101334  0.80399971  1.0
  C  C45  1  0.16318194  0.27562068  0.27824745  1.0
  C  C46  1  0.19216301  0.31072807  0.30332614  1.0
  C  C47  1  0.67997656  0.42708344  0.74901425  1.0
  C  C48  1  0.21895250  0.22452185  0.21940953  1.0
  C  C49  1  0.30803029  0.19320234  0.19241730  1.0
  C  C50  1  0.77977167  0.66386466  0.27256671  1.0
  C  C51  1  0.62180321  0.86569926  0.86252643  1.0
  C  C52  1  0.81431037  0.69316513  0.29801798  1.0
  C  C53  1  0.72887157  0.71919714  0.21309799  1.0
  C  C54  1  0.69165887  0.80738322  0.19184795  1.0
  C  C55  1  0.16453830  0.78020856  0.28025257  1.0
  C  C56  1  0.19452551  0.69245537  0.29854731  1.0
  C  C57  1  0.21959240  0.83579093  0.22594488  1.0
  C  C58  1  0.71649457  0.33853528  0.75019268  1.0
  C  C59  1  0.30714772  0.80726923  0.21026790  1.0
  C  C60  1  0.77551340  0.77800392  0.66841970  1.0
  C  C61  1  0.81158992  0.68964311  0.69618352  1.0
  C  C62  1  0.72219919  0.83068100  0.72548385  1.0
  C  C63  1  0.36162309  0.14145493  0.13241561  1.0
  C  C64  1  0.66804496  0.80680220  0.80932093  1.0
  C  C65  1  0.13348720  0.36156378  0.36417016  1.0
  C  C66  1  0.86439006  0.63762339  0.63633597  1.0
  C  C67  1  0.14057038  0.37452926  0.63343075  1.0
  C  C68  1  0.86467878  0.63493594  0.35970020  1.0
  C  C69  1  0.66085783  0.28375062  0.80444538  1.0
  C  C70  1  0.13643635  0.63792784  0.35708968  1.0
  C  C71  1  0.86120124  0.36093303  0.64110814  1.0
  C  C72  1  0.36142346  0.86536250  0.15007708  1.0
  C  C73  1  0.63749543  0.14001916  0.86101902  1.0
  C  C74  1  0.57186141  0.32074441  0.85423990  1.0
  C  C75  1  0.53927625  0.40629526  0.85086161  1.0
  C  C76  1  0.59398283  0.46004351  0.79768867  1.0
  C  C77  1  0.18781532  0.26295705  0.91538994  1.0
  C  C78  1  0.65244260  0.71996347  0.85641140  1.0
  C  C79  1  0.80361641  0.30384262  0.69867338  1.0
  C  C80  1  0.83778902  0.21716707  0.69860598  1.0
  C  C81  1  0.78216941  0.16239224  0.75275956  1.0
  C  C82  1  0.69513115  0.19700287  0.80454734  1.0
  C  C83  1  0.92645986  0.18057181  0.64795221  1.0
  O  O84  1  0.50044442  0.00204567  0.99663359  1.0
  O  O85  1  0.88646424  0.67458098  0.38212809  1.0
  O  O86  1  0.17588951  0.55502316  0.37354022  1.0
  O  O87  1  0.61080241  0.94470230  0.11790398  1.0
  O  O88  1  0.88002109  0.38420237  0.55856942  1.0
  O  O89  1  0.05356754  0.67643956  0.38657958  1.0
  O  O90  1  0.88621735  0.38098418  0.67956506  1.0
  O  O91  1  0.05772159  0.39080148  0.67454124  1.0
  O  O92  1  0.88223641  0.55197870  0.38522750  1.0
  O  O93  1  0.17343809  0.38307037  0.38654786  1.0
  O  O94  1  0.88345485  0.67819396  0.55354987  1.0
  O  O95  1  0.62479382  0.94386680  0.82348752  1.0
  O  O96  1  0.44803893  0.10937066  0.81818738  1.0
  O  O97  1  0.58283643  0.83139252  0.94401135  1.0
  O  O98  1  0.32169721  0.12629002  0.10402608  1.0
  O  O99  1  0.44480324  0.82663477  0.13293816  1.0
  O  O100  1  0.61721026  0.11649575  0.94386902  1.0
  O  O101  1  0.32221672  0.94775066  0.11972220  1.0
  O  O102  1  0.61394775  0.12012045  0.82114481  1.0
  O  O103  1  0.11815118  0.25160434  0.96918715  1.0
  O  O104  1  0.23532187  0.29272521  0.92510044  1.0
  O  O105  1  0.68960210  0.65642280  0.90691201  1.0
  O  O106  1  0.44512511  0.11594050  0.11409147  1.0
  O  O107  1  0.59083019  0.72073956  0.83586195  1.0
  O  O108  1  0.63054339  0.82461590  0.09586279  1.0
  O  O109  1  0.32655809  0.10982438  0.94216170  1.0
  O  O110  1  0.99825771  0.49933911  0.50056227  1.0
  O  O111  1  0.05015940  0.37963260  0.38905378  1.0
  O  O112  1  0.88577083  0.55436086  0.67500609  1.0
  O  O113  1  0.17868208  0.39452631  0.55008585  1.0
