# generated using pymatgen
data_CoH11C19(NO3)2
_symmetry_space_group_name_H-M   'P 1'
_cell_length_a   10.93309951
_cell_length_b   16.48942256
_cell_length_c   16.48833464
_cell_angle_alpha   120.00571104
_cell_angle_beta   90.00000529
_cell_angle_gamma   89.99994264
_symmetry_Int_Tables_number   1
_chemical_formula_structural   CoH11C19(NO3)2
_chemical_formula_sum   'Co3 H33 C57 N6 O18'
_cell_volume   2574.13415762
_cell_formula_units_Z   3
loop_
 _symmetry_equiv_pos_site_id
 _symmetry_equiv_pos_as_xyz
  1  'x, y, z'
loop_
 _atom_site_type_symbol
 _atom_site_label
 _atom_site_symmetry_multiplicity
 _atom_site_fract_x
 _atom_site_fract_y
 _atom_site_fract_z
 _atom_site_occupancy
  Co  Co0  1  0.99999905  0.32245614  0.00002143  1.0
  Co  Co1  1  0.99999953  0.67746876  0.67738488  1.0
  Co  Co2  1  0.99999986  0.00009859  0.32255353  1.0
  H  H3  1  0.00000211  0.71327368  0.21157453  1.0
  H  H4  1  0.00000061  0.49819154  0.28678093  1.0
  H  H5  1  0.00000112  0.78848181  0.50187019  1.0
  H  H6  1  0.99999873  0.21137283  0.71304605  1.0
  H  H7  1  0.99999921  0.50168878  0.78821441  1.0
  H  H8  1  0.99999767  0.28649851  0.49794889  1.0
  H  H9  1  0.99999906  0.99987145  0.84877235  1.0
  H  H10  1  0.00000004  0.84865765  0.00004125  1.0
  H  H11  1  0.99999965  0.15117377  0.15131286  1.0
  H  H12  1  0.40847045  0.40216776  0.15206957  1.0
  H  H13  1  0.59149037  0.74960996  0.59757513  1.0
  H  H14  1  0.40868473  0.84848595  0.25072771  1.0
  H  H15  1  0.59152833  0.40216845  0.15206992  1.0
  H  H16  1  0.40850932  0.74961066  0.59757609  1.0
  H  H17  1  0.59131547  0.84848595  0.25072771  1.0
  H  H18  1  0.40842819  0.15225227  0.40241493  1.0
  H  H19  1  0.59136800  0.25035478  0.84829985  1.0
  H  H20  1  0.40859038  0.59761356  0.74928948  1.0
  H  H21  1  0.59157114  0.15225227  0.40241493  1.0
  H  H22  1  0.40863116  0.25035478  0.84829985  1.0
  H  H23  1  0.59140862  0.59761356  0.74928948  1.0
  H  H24  1  0.18256837  0.39714067  0.14490619  1.0
  H  H25  1  0.81738331  0.74758177  0.60267104  1.0
  H  H26  1  0.18279087  0.85542861  0.25272004  1.0
  H  H27  1  0.81743042  0.39714067  0.14490619  1.0
  H  H28  1  0.18261638  0.74758177  0.60267104  1.0
  H  H29  1  0.81720931  0.85542790  0.25271968  1.0
  H  H30  1  0.18252612  0.14503635  0.39725556  1.0
  H  H31  1  0.81726368  0.25244073  0.85529585  1.0
  H  H32  1  0.18269926  0.60262332  0.74726591  1.0
  H  H33  1  0.81747415  0.14503634  0.39725616  1.0
  H  H34  1  0.18273547  0.25244073  0.85529585  1.0
  H  H35  1  0.81729972  0.60262262  0.74726556  1.0
  C  C36  1  0.99999941  0.08541366  0.00002958  1.0
  C  C37  1  0.99999952  0.91438150  0.91451697  1.0
  C  C38  1  0.99999987  0.99991099  0.08551789  1.0
  C  C39  1  0.00000320  0.59868504  0.23862981  1.0
  C  C40  1  0.00000407  0.63986639  0.40134090  1.0
  C  C41  1  0.00000389  0.76143941  0.36022615  1.0
  C  C42  1  0.99999410  0.23848192  0.59851143  1.0
  C  C43  1  0.99999302  0.36004938  0.76123544  1.0
  C  C44  1  0.99999477  0.40114665  0.63959181  1.0
  C  C45  1  0.00000397  0.69415704  0.26588908  1.0
  C  C46  1  0.00000325  0.57162923  0.30589212  1.0
  C  C47  1  0.00000394  0.73418206  0.42841640  1.0
  C  C48  1  0.99999315  0.26571165  0.69396138  1.0
  C  C49  1  0.99999474  0.42822923  0.73393024  1.0
  C  C50  1  0.99999399  0.30568958  0.57140668  1.0
  C  C51  1  0.99999907  0.99988637  0.91492072  1.0
  C  C52  1  0.99999994  0.91478563  0.00001795  1.0
  C  C53  1  0.99999974  0.08503049  0.08514636  1.0
  C  C54  1  0.36440339  0.36756901  0.08376154  1.0
  C  C55  1  0.63557307  0.71591846  0.63217306  1.0
  C  C56  1  0.36451326  0.91674734  0.28434801  1.0
  C  C57  1  0.63559547  0.36756901  0.08376154  1.0
  C  C58  1  0.36442672  0.71591846  0.63217306  1.0
  C  C59  1  0.63548674  0.91674663  0.28434765  1.0
  C  C60  1  0.36438314  0.08393202  0.36781933  1.0
  C  C61  1  0.63551189  0.28402030  0.91657512  1.0
  C  C62  1  0.36446651  0.63225736  0.71566433  1.0
  C  C63  1  0.63561730  0.08393202  0.36781933  1.0
  C  C64  1  0.36448810  0.28402030  0.91657512  1.0
  C  C65  1  0.63553328  0.63225736  0.71566433  1.0
  C  C66  1  0.99999973  0.17634812  0.99999266  1.0
  C  C67  1  0.99999960  0.82342917  0.82356711  1.0
  C  C68  1  0.00000076  0.99988737  0.17643813  1.0
  C  C69  1  0.23764520  0.36520467  0.08144282  1.0
  C  C70  1  0.76232395  0.71603354  0.63458326  1.0
  C  C71  1  0.23776604  0.91894008  0.28419944  1.0
  C  C72  1  0.76235368  0.36520467  0.08144282  1.0
  C  C73  1  0.23767584  0.71603354  0.63458326  1.0
  C  C74  1  0.76223396  0.91893938  0.28419909  1.0
  C  C75  1  0.23762495  0.08158404  0.36537727  1.0
  C  C76  1  0.76226368  0.28393504  0.91879608  1.0
  C  C77  1  0.23771654  0.63462593  0.71578965  1.0
  C  C78  1  0.76237367  0.08158334  0.36537692  1.0
  C  C79  1  0.23773539  0.28393575  0.91879583  1.0
  C  C80  1  0.76228233  0.63462593  0.71578965  1.0
  C  C81  1  0.43237959  0.32624567  0.00018838  1.0
  C  C82  1  0.56761803  0.67363597  0.67345698  1.0
  C  C83  1  0.43237953  0.00036989  0.32656019  1.0
  C  C84  1  0.56761938  0.32624567  0.00018838  1.0
  C  C85  1  0.43238099  0.67363597  0.67345698  1.0
  C  C86  1  0.56762023  0.00036989  0.32656019  1.0
  C  C87  1  0.99999693  0.53153020  0.13443122  1.0
  C  C88  1  0.99999687  0.60286118  0.46847851  1.0
  C  C89  1  0.99999280  0.86570157  0.39754497  1.0
  C  C90  1  0.00001798  0.13436031  0.53135405  1.0
  C  C91  1  0.00000117  0.39723757  0.86549371  1.0
  C  C92  1  0.00000377  0.46810044  0.60230229  1.0
  N  N93  1  0.17494482  0.32411727  0.00009473  1.0
  N  N94  1  0.82505006  0.67581332  0.67568297  1.0
  N  N95  1  0.17495025  0.00022218  0.32428633  1.0
  N  N96  1  0.82505507  0.32411727  0.00009473  1.0
  N  N97  1  0.17494987  0.67581332  0.67568297  1.0
  N  N98  1  0.82504860  0.00022149  0.32428598  1.0
  O  O99  1  0.00000159  0.44213503  0.11143148  1.0
  O  O100  1  0.00000222  0.66931206  0.55785306  1.0
  O  O101  1  0.00000369  0.88893363  0.33132597  1.0
  O  O102  1  0.99999152  0.11149559  0.44201037  1.0
  O  O103  1  0.99999674  0.33094542  0.88864604  1.0
  O  O104  1  0.99999820  0.55754921  0.66856360  1.0
  O  O105  1  0.99999972  0.17926885  0.92350428  1.0
  O  O106  1  0.99999972  0.74398173  0.82055841  1.0
  O  O107  1  0.00000065  0.07638497  0.25588046  1.0
  O  O108  1  0.00000087  0.92342126  0.17939345  1.0
  O  O109  1  0.00000008  0.25580909  0.07646168  1.0
  O  O110  1  0.00000024  0.82050324  0.74414797  1.0
  O  O111  1  0.99998589  0.56605578  0.08385218  1.0
  O  O112  1  0.99998601  0.51775497  0.43396532  1.0
  O  O113  1  0.99996896  0.91597384  0.48270447  1.0
  O  O114  1  0.00006654  0.08368871  0.56576762  1.0
  O  O115  1  0.00001294  0.48237838  0.91590988  1.0
  O  O116  1  0.00001570  0.43323509  0.51714731  1.0
