# generated using pymatgen
data_Zr3H23C45Br5O16
_symmetry_space_group_name_H-M   'P 1'
_cell_length_a   19.02636239
_cell_length_b   19.15702022
_cell_length_c   19.15705396
_cell_angle_alpha   90.44990941
_cell_angle_beta   119.67261704
_cell_angle_gamma   119.67342520
_symmetry_Int_Tables_number   1
_chemical_formula_structural   Zr3H23C45Br5O16
_chemical_formula_sum   'Zr6 H46 C90 Br10 O32'
_cell_volume   4966.63817027
_cell_formula_units_Z   2
loop_
 _symmetry_equiv_pos_site_id
 _symmetry_equiv_pos_as_xyz
  1  'x, y, z'
loop_
 _atom_site_type_symbol
 _atom_site_label
 _atom_site_symmetry_multiplicity
 _atom_site_fract_x
 _atom_site_fract_y
 _atom_site_fract_z
 _atom_site_occupancy
  Zr  Zr0  1  0.49844758  0.90665106  0.90669978  1.0
  Zr  Zr1  1  0.50219068  0.09330549  0.09335929  1.0
  Zr  Zr2  1  0.68556110  0.09063987  0.09062597  1.0
  Zr  Zr3  1  0.31508986  0.90941915  0.90936947  1.0
  Zr  Zr4  1  0.50029396  0.90818718  0.09179754  1.0
  Zr  Zr5  1  0.50031671  0.09181440  0.90818446  1.0
  H  H6  1  0.64468836  0.92573124  0.07033006  1.0
  H  H7  1  0.35588735  0.92969220  0.07424150  1.0
  H  H8  1  0.64672494  0.21725805  0.07247894  1.0
  H  H9  1  0.35392344  0.92754031  0.78274469  1.0
  H  H10  1  0.50043959  0.45471000  0.11383155  1.0
  H  H11  1  0.50132223  0.54597965  0.88677439  1.0
  H  H12  1  0.49597481  0.68105110  0.10303078  1.0
  H  H13  1  0.49949071  0.55493037  0.11148672  1.0
  H  H14  1  0.49654568  0.31490791  0.89309215  1.0
  H  H15  1  0.49892079  0.44396400  0.88746779  1.0
  H  H16  1  0.49847726  0.11298523  0.45353935  1.0
  H  H17  1  0.49935578  0.88591965  0.54481770  1.0
  H  H18  1  0.50368892  0.10681739  0.68490940  1.0
  H  H19  1  0.50098008  0.11232994  0.55568430  1.0
  H  H20  1  0.50419606  0.89683608  0.31876384  1.0
  H  H21  1  0.50035741  0.88828583  0.44471102  1.0
  H  H22  1  0.84003585  0.45369572  0.88710721  1.0
  H  H23  1  0.16064278  0.54778385  0.11447523  1.0
  H  H24  1  0.07716084  0.67891414  0.89244898  1.0
  H  H25  1  0.94252477  0.55274828  0.88719340  1.0
  H  H26  1  0.92342761  0.31707365  0.10369672  1.0
  H  H27  1  0.05804880  0.44694590  0.11272880  1.0
  H  H28  1  0.83975413  0.88572719  0.45255463  1.0
  H  H29  1  0.16032277  0.11307720  0.54660131  1.0
  H  H30  1  0.07714579  0.89640216  0.68319509  1.0
  H  H31  1  0.94242910  0.88747071  0.55348969  1.0
  H  H32  1  0.92339388  0.10766939  0.32138514  1.0
  H  H33  1  0.05796818  0.11301979  0.44770489  1.0
  H  H34  1  0.29008362  0.11429717  0.11158608  1.0
  H  H35  1  0.24174523  0.17630651  0.17647421  1.0
  H  H36  1  0.07088955  0.89176135  0.88819954  1.0
  H  H37  1  0.71048422  0.88844574  0.88571445  1.0
  H  H38  1  0.75883239  0.82353844  0.82370022  1.0
  H  H39  1  0.92969119  0.11178246  0.10828711  1.0
  H  H40  1  0.06988259  0.45512618  0.45416657  1.0
  H  H41  1  0.93055724  0.54587403  0.54493774  1.0
  H  H42  1  0.28685658  0.68120441  0.68516006  1.0
  H  H43  1  0.16773035  0.55517658  0.55606449  1.0
  H  H44  1  0.71357638  0.31475167  0.31873205  1.0
  H  H45  1  0.83258677  0.44381275  0.44476529  1.0
  H  H46  1  0.17372650  0.19772469  0.26304066  1.0
  H  H47  1  0.06723682  0.19686502  0.19736044  1.0
  H  H48  1  0.17375043  0.26321832  0.19839100  1.0
  H  H49  1  0.82677089  0.73696301  0.80228296  1.0
  H  H50  1  0.93326373  0.80257868  0.80313366  1.0
  H  H51  1  0.82679959  0.80162437  0.73680576  1.0
  C  C52  1  0.49425916  0.76262161  0.99378413  1.0
  C  C53  1  0.50617414  0.00617117  0.23727897  1.0
  C  C54  1  0.49723491  0.23287565  0.00189495  1.0
  C  C55  1  0.50333019  0.99814682  0.76706976  1.0
  C  C56  1  0.73546816  0.00068987  0.99666650  1.0
  C  C57  1  0.25984470  0.76353204  0.76787650  1.0
  C  C58  1  0.26516305  0.00339528  0.99930763  1.0
  C  C59  1  0.74073453  0.23211229  0.23646713  1.0
  C  C60  1  0.73180316  0.99838402  0.23597483  1.0
  C  C61  1  0.73190341  0.23088346  0.99333654  1.0
  C  C62  1  0.26870705  0.00669910  0.76917876  1.0
  C  C63  1  0.26875595  0.76409501  0.00161185  1.0
  C  C64  1  0.49719839  0.31078781  0.00487770  1.0
  C  C65  1  0.49599537  0.68556758  0.99157980  1.0
  C  C66  1  0.49829777  0.35230809  0.06688871  1.0
  C  C67  1  0.49962136  0.42558620  0.06428661  1.0
  C  C68  1  0.49791712  0.64560428  0.93103660  1.0
  C  C69  1  0.49982612  0.57392729  0.93518600  1.0
  C  C70  1  0.49693862  0.65008675  0.05585298  1.0
  C  C71  1  0.49886086  0.57885589  0.06000186  1.0
  C  C72  1  0.49745220  0.34682631  0.94117394  1.0
  C  C73  1  0.49879161  0.41968857  0.93859214  1.0
  C  C74  1  0.49976999  0.46110241  0.00050173  1.0
  C  C75  1  0.49980384  0.53844649  0.99901222  1.0
  C  C76  1  0.50418982  0.00829291  0.31420249  1.0
  C  C77  1  0.50308486  0.99504883  0.68901057  1.0
  C  C78  1  0.50209555  0.06877556  0.35404396  1.0
  C  C79  1  0.50003002  0.06458973  0.42564734  1.0
  C  C80  1  0.50178924  0.93295282  0.64737771  1.0
  C  C81  1  0.50027481  0.93550392  0.57400931  1.0
  C  C82  1  0.50272190  0.05871606  0.65293782  1.0
  C  C83  1  0.50117555  0.06122594  0.57998596  1.0
  C  C84  1  0.50313781  0.94398346  0.34965435  1.0
  C  C85  1  0.50102988  0.93978389  0.42078700  1.0
  C  C86  1  0.50004525  0.00076869  0.46115660  1.0
  C  C87  1  0.50011196  0.99929318  0.53851745  1.0
  C  C88  1  0.80645327  0.31021869  0.99158954  1.0
  C  C89  1  0.19421480  0.68609454  0.00477987  1.0
  C  C90  1  0.78521870  0.35133951  0.93117385  1.0
  C  C91  1  0.86102266  0.42506770  0.93560048  1.0
  C  C92  1  0.21544364  0.64682653  0.06705065  1.0
  C  C93  1  0.13963485  0.57509171  0.06467197  1.0
  C  C94  1  0.09381233  0.64906265  0.94095763  1.0
  C  C95  1  0.01842799  0.57776558  0.93853632  1.0
  C  C96  1  0.90680123  0.34807292  0.05630828  1.0
  C  C97  1  0.98218154  0.42142065  0.06084656  1.0
  C  C98  1  0.96097124  0.46161165  0.99960057  1.0
  C  C99  1  0.03967139  0.53868634  0.00086162  1.0
  C  C100  1  0.80628068  0.99529104  0.31409521  1.0
  C  C101  1  0.19406700  0.00850627  0.68997133  1.0
  C  C102  1  0.78498524  0.93305462  0.35338572  1.0
  C  C103  1  0.86077618  0.93548703  0.42520653  1.0
  C  C104  1  0.21522569  0.06896554  0.64887201  1.0
  C  C105  1  0.13937462  0.06456827  0.57522538  1.0
  C  C106  1  0.09371641  0.94381730  0.65220597  1.0
  C  C107  1  0.01828631  0.93933093  0.57895212  1.0
  C  C108  1  0.90669678  0.05916535  0.35123134  1.0
  C  C109  1  0.98204514  0.06164724  0.42261147  1.0
  C  C110  1  0.96075443  0.99931446  0.46167328  1.0
  C  C111  1  0.03944330  0.00057876  0.53874105  1.0
  C  C112  1  0.21228707  0.06516403  0.06274211  1.0
  C  C113  1  0.13877729  0.06472155  0.06347535  1.0
  C  C114  1  0.16331675  0.12795677  0.12756813  1.0
  C  C115  1  0.08685108  0.93878259  0.93598447  1.0
  C  C116  1  0.01038692  0.93534047  0.93393510  1.0
  C  C117  1  0.90682260  0.87007445  0.86957207  1.0
  C  C118  1  0.78829452  0.93728850  0.93485261  1.0
  C  C119  1  0.86179664  0.93655497  0.93528285  1.0
  C  C120  1  0.83726038  0.87246486  0.87204593  1.0
  C  C121  1  0.91376067  0.06404291  0.06125298  1.0
  C  C122  1  0.99020872  0.06609419  0.06466895  1.0
  C  C123  1  0.09375612  0.13045533  0.12994585  1.0
  C  C124  1  0.18638980  0.00273967  0.99927860  1.0
  C  C125  1  0.03698140  0.99994113  0.99885384  1.0
  C  C126  1  0.81421832  0.00073119  0.99730627  1.0
  C  C127  1  0.96358781  0.00116918  0.00006100  1.0
  C  C128  1  0.82127233  0.31049897  0.31401833  1.0
  C  C129  1  0.17922271  0.68595395  0.68951030  1.0
  C  C130  1  0.92363983  0.35241831  0.35430813  1.0
  C  C131  1  0.99203024  0.42578096  0.42601511  1.0
  C  C132  1  0.07685829  0.64570302  0.64763943  1.0
  C  C133  1  0.00839817  0.57399229  0.57426022  1.0
  C  C134  1  0.20784550  0.65026513  0.65323307  1.0
  C  C135  1  0.13990833  0.57903103  0.58030363  1.0
  C  C136  1  0.79259824  0.34671384  0.34969306  1.0
  C  C137  1  0.86047157  0.41963366  0.42093694  1.0
  C  C138  1  0.96279170  0.46122527  0.46146420  1.0
  C  C139  1  0.03759460  0.53853122  0.53876588  1.0
  C  C140  1  0.12787643  0.20027983  0.20041705  1.0
  C  C141  1  0.87265771  0.79958190  0.79973835  1.0
  Br  Br142  1  0.49811081  0.31628520  0.15958507  1.0
  Br  Br143  1  0.49877962  0.68210544  0.83873043  1.0
  Br  Br144  1  0.50116233  0.16103497  0.31746178  1.0
  Br  Br145  1  0.50201402  0.84028047  0.68341484  1.0
  Br  Br146  1  0.65561876  0.31426706  0.83835257  1.0
  Br  Br147  1  0.34507988  0.68413340  0.16003175  1.0
  Br  Br148  1  0.65532267  0.84009530  0.31602495  1.0
  Br  Br149  1  0.34479828  0.16180015  0.68586909  1.0
  Br  Br150  1  0.98136292  0.31653548  0.31810591  1.0
  Br  Br151  1  0.01920780  0.68199405  0.68355901  1.0
  O  O152  1  0.49187004  0.79384513  0.93471122  1.0
  O  O153  1  0.50871594  0.06530552  0.20611469  1.0
  O  O154  1  0.49845756  0.20114199  0.06044760  1.0
  O  O155  1  0.50234256  0.93970724  0.79891800  1.0
  O  O156  1  0.76399274  0.06004740  0.05640547  1.0
  O  O157  1  0.23456188  0.79657190  0.80094999  1.0
  O  O158  1  0.23663626  0.94366486  0.93994296  1.0
  O  O159  1  0.76608402  0.19905532  0.20349494  1.0
  O  O160  1  0.64095044  0.94102331  0.20346925  1.0
  O  O161  1  0.64105902  0.19820282  0.93571281  1.0
  O  O162  1  0.35953578  0.06428486  0.80177470  1.0
  O  O163  1  0.35959432  0.79651970  0.05892959  1.0
  O  O164  1  0.76387722  0.20202271  0.05278729  1.0
  O  O165  1  0.23678085  0.94720781  0.79802001  1.0
  O  O166  1  0.23674615  0.79367814  0.94293237  1.0
  O  O167  1  0.76386303  0.05704139  0.20638877  1.0
  O  O168  1  0.64557866  0.94153875  0.93821404  1.0
  O  O169  1  0.65191549  0.20442992  0.20779567  1.0
  O  O170  1  0.35504576  0.06184190  0.05846171  1.0
  O  O171  1  0.34864850  0.79216635  0.79553152  1.0
  O  O172  1  0.50283794  0.05811996  0.79582744  1.0
  O  O173  1  0.49670440  0.79276246  0.05521208  1.0
  O  O174  1  0.50379005  0.94476118  0.20719446  1.0
  O  O175  1  0.49769703  0.20411388  0.94190534  1.0
  O  O176  1  0.39503408  0.94811728  0.84454407  1.0
  O  O177  1  0.60564385  0.15545858  0.05190012  1.0
  O  O178  1  0.39695187  0.94941098  0.05314664  1.0
  O  O179  1  0.60364827  0.94685085  0.05059654  1.0
  O  O180  1  0.57805940  0.03840153  0.11449175  1.0
  O  O181  1  0.42257974  0.88552692  0.96159518  1.0
  O  O182  1  0.42398383  0.03913459  0.96281946  1.0
  O  O183  1  0.57664046  0.03717745  0.96090376  1.0
