# generated using pymatgen
data_CoH5C5O4
_symmetry_space_group_name_H-M   'P 1'
_cell_length_a   6.55131019
_cell_length_b   15.28077143
_cell_length_c   15.28383713
_cell_angle_alpha   117.97733546
_cell_angle_beta   98.23642599
_cell_angle_gamma   98.21924425
_symmetry_Int_Tables_number   1
_chemical_formula_structural   CoH5C5O4
_chemical_formula_sum   'Co6 H30 C30 O24'
_cell_volume   1298.06377754
_cell_formula_units_Z   6
loop_
 _symmetry_equiv_pos_site_id
 _symmetry_equiv_pos_as_xyz
  1  'x, y, z'
loop_
 _atom_site_type_symbol
 _atom_site_label
 _atom_site_symmetry_multiplicity
 _atom_site_fract_x
 _atom_site_fract_y
 _atom_site_fract_z
 _atom_site_occupancy
  Co  Co0  1  0.96507901  0.27876439  0.60090796  1.0
  Co  Co1  1  0.68621547  0.32210600  0.72122529  1.0
  Co  Co2  1  0.36432965  0.39914034  0.67792234  1.0
  Co  Co3  1  0.03493462  0.72124528  0.39911718  1.0
  Co  Co4  1  0.31378700  0.67790593  0.27878382  1.0
  Co  Co5  1  0.63569516  0.60087406  0.32209747  1.0
  H  H6  1  0.31064309  0.43007114  0.45286943  1.0
  H  H7  1  0.88074649  0.02277514  0.56987274  1.0
  H  H8  1  0.85807395  0.54719964  0.97746549  1.0
  H  H9  1  0.68932955  0.56990030  0.54712289  1.0
  H  H10  1  0.11931161  0.97721535  0.43015165  1.0
  H  H11  1  0.14198775  0.45282324  0.02259400  1.0
  H  H12  1  0.62471891  0.14296527  0.30572566  1.0
  H  H13  1  0.48124722  0.16300117  0.85736406  1.0
  H  H14  1  0.31871464  0.69436052  0.83713946  1.0
  H  H15  1  0.37541035  0.85706984  0.69428117  1.0
  H  H16  1  0.51860213  0.83700529  0.14265649  1.0
  H  H17  1  0.68130496  0.30567126  0.16275058  1.0
  H  H18  1  0.60467259  0.06944690  0.36941877  1.0
  H  H19  1  0.53483316  0.30021122  0.93063550  1.0
  H  H20  1  0.23466220  0.63065238  0.69994759  1.0
  H  H21  1  0.39526277  0.93058222  0.63055217  1.0
  H  H22  1  0.46530478  0.69978642  0.06936981  1.0
  H  H23  1  0.76515104  0.36929697  0.29996992  1.0
  H  H24  1  0.85946523  0.12479975  0.36509684  1.0
  H  H25  1  0.73433299  0.24040714  0.87555532  1.0
  H  H26  1  0.49410293  0.63519891  0.75956230  1.0
  H  H27  1  0.14052342  0.87519111  0.63493059  1.0
  H  H28  1  0.26558323  0.75945924  0.12438510  1.0
  H  H29  1  0.50576122  0.36478880  0.24026971  1.0
  H  H30  1  0.58875560  0.23044448  0.48803201  1.0
  H  H31  1  0.35826625  0.25762874  0.76949253  1.0
  H  H32  1  0.10086119  0.51191771  0.74238000  1.0
  H  H33  1  0.41122618  0.76955044  0.51196031  1.0
  H  H34  1  0.64177039  0.74240486  0.23053872  1.0
  H  H35  1  0.89917369  0.48809587  0.25761996  1.0
  C  C36  1  0.06256133  0.42980511  0.53011529  1.0
  C  C37  1  0.63285043  0.10029397  0.57014919  1.0
  C  C38  1  0.53265724  0.46988405  0.89977280  1.0
  C  C39  1  0.93738481  0.57015009  0.46986405  1.0
  C  C40  1  0.36717677  0.89970850  0.42986298  1.0
  C  C41  1  0.46735397  0.53014226  0.10026303  1.0
  C  C42  1  0.88432697  0.47169815  0.55746858  1.0
  C  C43  1  0.41261660  0.08572376  0.52827196  1.0
  C  C44  1  0.32697229  0.44253986  0.91422981  1.0
  C  C45  1  0.11561375  0.52826176  0.44250618  1.0
  C  C46  1  0.58742443  0.91428465  0.47175242  1.0
  C  C47  1  0.67303424  0.55749294  0.08581212  1.0
  C  C48  1  0.75767578  0.44783716  0.61946601  1.0
  C  C49  1  0.30966045  0.17154289  0.55215035  1.0
  C  C50  1  0.13825899  0.38055419  0.82834881  1.0
  C  C51  1  0.24234528  0.55216022  0.38054310  1.0
  C  C52  1  0.69037110  0.82844117  0.44786106  1.0
  C  C53  1  0.86177577  0.61946793  0.17168473  1.0
  C  C54  1  0.17309363  0.46025114  0.47317823  1.0
  C  C55  1  0.71296171  0.01293954  0.53972306  1.0
  C  C56  1  0.70012762  0.52685470  0.98721954  1.0
  C  C57  1  0.82685247  0.53971061  0.52680112  1.0
  C  C58  1  0.28708317  0.98706863  0.46030590  1.0
  C  C59  1  0.29991560  0.47317087  0.01282163  1.0
  C  C60  1  0.69912447  0.13559677  0.37047180  1.0
  C  C61  1  0.56314878  0.23503458  0.86461752  1.0
  C  C62  1  0.32836294  0.62967015  0.76503278  1.0
  C  C63  1  0.30088768  0.86441301  0.62952587  1.0
  C  C64  1  0.43682157  0.76493208  0.13537327  1.0
  C  C65  1  0.67155610  0.37033599  0.23487175  1.0
  O  O66  1  0.13054262  0.36321968  0.55415014  1.0
  O  O67  1  0.76728531  0.19091144  0.63677637  1.0
  O  O68  1  0.57656738  0.44588681  0.80919715  1.0
  O  O69  1  0.86945494  0.63677024  0.44586432  1.0
  O  O70  1  0.23274301  0.80909687  0.36324115  1.0
  O  O71  1  0.42346544  0.55413573  0.19084174  1.0
  O  O72  1  0.84668844  0.40959401  0.67199422  1.0
  O  O73  1  0.43681785  0.26231559  0.59030986  1.0
  O  O74  1  0.17475493  0.32800585  0.73763754  1.0
  O  O75  1  0.15335903  0.59043253  0.32804008  1.0
  O  O76  1  0.56315742  0.73767296  0.40967254  1.0
  O  O77  1  0.82528719  0.67201429  0.26239219  1.0
  O  O78  1  0.57713871  0.46634504  0.62402191  1.0
  O  O79  1  0.11061770  0.15758356  0.53372755  1.0
  O  O80  1  0.95313779  0.37599318  0.84225496  1.0
  O  O81  1  0.42286204  0.53363202  0.37597728  1.0
  O  O82  1  0.88942182  0.84240978  0.46631515  1.0
  O  O83  1  0.04688512  0.62401855  0.15775797  1.0
  O  O84  1  0.72150693  0.22831179  0.46472567  1.0
  O  O85  1  0.49308212  0.23639993  0.77176518  1.0
  O  O86  1  0.25694740  0.53535319  0.76351643  1.0
  O  O87  1  0.27846448  0.77167355  0.53526436  1.0
  O  O88  1  0.50689816  0.76357796  0.22824546  1.0
  O  O89  1  0.74308799  0.46471140  0.23648200  1.0
