# generated using pymatgen
data_InH5C8O5
_symmetry_space_group_name_H-M   'P 1'
_cell_length_a   7.27286666
_cell_length_b   21.93320719
_cell_length_c   21.95207076
_cell_angle_alpha   60.47157184
_cell_angle_beta   89.99959415
_cell_angle_gamma   89.99957503
_symmetry_Int_Tables_number   1
_chemical_formula_structural   InH5C8O5
_chemical_formula_sum   'In6 H30 C48 O30'
_cell_volume   3046.89895596
_cell_formula_units_Z   6
loop_
 _symmetry_equiv_pos_site_id
 _symmetry_equiv_pos_as_xyz
  1  'x, y, z'
loop_
 _atom_site_type_symbol
 _atom_site_label
 _atom_site_symmetry_multiplicity
 _atom_site_fract_x
 _atom_site_fract_y
 _atom_site_fract_z
 _atom_site_occupancy
  In  In0  1  0.00038905  0.49981875  0.99940351  1.0
  In  In1  1  0.49960761  0.49981871  0.99940419  1.0
  In  In2  1  0.50020271  0.99990434  0.50123532  1.0
  In  In3  1  0.99979388  0.99990313  0.50123651  1.0
  In  In4  1  0.99986847  0.00162112  0.99804013  1.0
  In  In5  1  0.50013017  0.00162077  0.99804208  1.0
  H  H6  1  0.54520742  0.68030958  0.79316299  1.0
  H  H7  1  0.95487057  0.32058342  0.97040292  1.0
  H  H8  1  0.95473713  0.20871905  0.96447000  1.0
  H  H9  1  0.04504629  0.31971263  0.20576558  1.0
  H  H10  1  0.45500219  0.67763357  0.03049549  1.0
  H  H11  1  0.45479877  0.79018051  0.03474989  1.0
  H  H12  1  0.95493026  0.79439792  0.67955154  1.0
  H  H13  1  0.54505660  0.96960761  0.32153511  1.0
  H  H14  1  0.54503860  0.96550756  0.20917821  1.0
  H  H15  1  0.45493697  0.20685019  0.32032604  1.0
  H  H16  1  0.04517373  0.02878804  0.67980370  1.0
  H  H17  1  0.04525771  0.03598495  0.79087038  1.0
  H  H18  1  0.45495481  0.31971312  0.20576633  1.0
  H  H19  1  0.04498917  0.67763489  0.03049109  1.0
  H  H20  1  0.04519824  0.79018274  0.03474548  1.0
  H  H21  1  0.95479420  0.68030870  0.79316373  1.0
  H  H22  1  0.54512429  0.32058371  0.97040428  1.0
  H  H23  1  0.54526035  0.20871915  0.96447083  1.0
  H  H24  1  0.04506008  0.20684879  0.32032529  1.0
  H  H25  1  0.45482100  0.02878755  0.67980549  1.0
  H  H26  1  0.45474136  0.03598285  0.79087269  1.0
  H  H27  1  0.54507261  0.79439827  0.67955185  1.0
  H  H28  1  0.95493762  0.96960875  0.32153270  1.0
  H  H29  1  0.95495949  0.96550773  0.20917686  1.0
  H  H30  1  0.24999681  0.10038535  0.46317456  1.0
  H  H31  1  0.75000198  0.53500959  0.89973094  1.0
  H  H32  1  0.24999663  0.46484701  0.09931995  1.0
  H  H33  1  0.74999941  0.93864990  0.46095829  1.0
  H  H34  1  0.75000144  0.01007798  0.08055483  1.0
  H  H35  1  0.25000408  0.91922996  0.98934892  1.0
  C  C36  1  0.41682888  0.70538282  0.76747646  1.0
  C  C37  1  0.08294370  0.29559777  0.96887382  1.0
  C  C38  1  0.08290592  0.23396496  0.96542021  1.0
  C  C39  1  0.91674108  0.29493132  0.23176694  1.0
  C  C40  1  0.58303944  0.70286105  0.03158600  1.0
  C  C41  1  0.58322297  0.76509934  0.03388849  1.0
  C  C42  1  0.08304986  0.76851507  0.70475248  1.0
  C  C43  1  0.41671684  0.96828010  0.29664229  1.0
  C  C44  1  0.41667216  0.96615091  0.23438272  1.0
  C  C45  1  0.58327837  0.23246360  0.29515448  1.0
  C  C46  1  0.91708823  0.03070911  0.70452941  1.0
  C  C47  1  0.91707791  0.03485925  0.76573474  1.0
  C  C48  1  0.58325635  0.29493063  0.23176823  1.0
  C  C49  1  0.91695867  0.70286479  0.03158314  1.0
  C  C50  1  0.91676545  0.76510061  0.03388509  1.0
  C  C51  1  0.08317777  0.70538265  0.76747671  1.0
  C  C52  1  0.41704717  0.29559788  0.96887462  1.0
  C  C53  1  0.41709602  0.23396507  0.96542101  1.0
  C  C54  1  0.91672185  0.23246286  0.29515423  1.0
  C  C55  1  0.58291876  0.03070895  0.70452966  1.0
  C  C56  1  0.58290981  0.03485908  0.76573499  1.0
  C  C57  1  0.41694296  0.76851543  0.70475276  1.0
  C  C58  1  0.08326648  0.96828111  0.29664201  1.0
  C  C59  1  0.08332905  0.96615061  0.23438140  1.0
  C  C60  1  0.24999507  0.60824027  0.86941047  1.0
  C  C61  1  0.24999921  0.67373017  0.79961812  1.0
  C  C62  1  0.24999221  0.39137107  0.97743164  1.0
  C  C63  1  0.24999988  0.32647261  0.97103691  1.0
  C  C64  1  0.24999583  0.20266352  0.96406721  1.0
  C  C65  1  0.25001171  0.13413943  0.96467209  1.0
  C  C66  1  0.74999667  0.39168815  0.12946077  1.0
  C  C67  1  0.75000352  0.32635506  0.19947458  1.0
  C  C68  1  0.75000090  0.60721074  0.02289990  1.0
  C  C69  1  0.74999461  0.67194224  0.02958510  1.0
  C  C70  1  0.75000416  0.79709657  0.03419697  1.0
  C  C71  1  0.74998966  0.86669337  0.03149860  1.0
  C  C72  1  0.24999217  0.87099961  0.60840904  1.0
  C  C73  1  0.25000601  0.80077057  0.67348242  1.0
  C  C74  1  0.24998368  0.97598906  0.39290098  1.0
  C  C75  1  0.24999956  0.96994228  0.32785823  1.0
  C  C76  1  0.24999407  0.96573867  0.20246068  1.0
  C  C77  1  0.25000441  0.96825812  0.13294538  1.0
  C  C78  1  0.75001188  0.13130584  0.39339874  1.0
  C  C79  1  0.74999806  0.20058228  0.32707625  1.0
  C  C80  1  0.75002043  0.02046585  0.60989440  1.0
  C  C81  1  0.74999491  0.02809593  0.67395725  1.0
  C  C82  1  0.75000451  0.03642812  0.79690626  1.0
  C  C83  1  0.74999004  0.03583522  0.86537377  1.0
  O  O84  1  0.09364956  0.58319988  0.89659604  1.0
  O  O85  1  0.09333154  0.41605984  0.98007871  1.0
  O  O86  1  0.09372425  0.10741296  0.96550606  1.0
  O  O87  1  0.59359892  0.41658168  0.10239550  1.0
  O  O88  1  0.59326383  0.58277210  0.02002797  1.0
  O  O89  1  0.59341426  0.89375570  0.02989035  1.0
  O  O90  1  0.40639951  0.89805479  0.58372317  1.0
  O  O91  1  0.40669188  0.97869490  0.41758418  1.0
  O  O92  1  0.40662105  0.96977522  0.10607659  1.0
  O  O93  1  0.90662691  0.10457282  0.41861704  1.0
  O  O94  1  0.90638823  0.01726963  0.58541675  1.0
  O  O95  1  0.90625827  0.03495335  0.89210375  1.0
  O  O96  1  0.90640130  0.41658317  0.10239633  1.0
  O  O97  1  0.90672620  0.58277468  0.02002564  1.0
  O  O98  1  0.90659063  0.89375667  0.02988855  1.0
  O  O99  1  0.40634744  0.58320039  0.89659790  1.0
  O  O100  1  0.40666466  0.41605976  0.98007900  1.0
  O  O101  1  0.40626676  0.10741509  0.96550741  1.0
  O  O102  1  0.59336391  0.10457082  0.41861727  1.0
  O  O103  1  0.59361473  0.01727659  0.58540809  1.0
  O  O104  1  0.59375563  0.03495433  0.89210346  1.0
  O  O105  1  0.09361776  0.89805024  0.58372024  1.0
  O  O106  1  0.09330651  0.97869796  0.41757971  1.0
  O  O107  1  0.09336768  0.96977686  0.10607315  1.0
  O  O108  1  0.24999814  0.50014189  0.04995187  1.0
  O  O109  1  0.74999910  0.49990786  0.94916640  1.0
  O  O110  1  0.24999973  0.05117525  0.49900332  1.0
  O  O111  1  0.74999750  0.95135636  0.49762210  1.0
  O  O112  1  0.25000095  0.96947709  0.97230227  1.0
  O  O113  1  0.75000316  0.02750819  0.03029536  1.0
