# generated using pymatgen
data_Zn3H32C42SN4O15
_symmetry_space_group_name_H-M   'P 1'
_cell_length_a   21.28683427
_cell_length_b   21.30208141
_cell_length_c   24.19986762
_cell_angle_alpha   115.79346214
_cell_angle_beta   115.52729606
_cell_angle_gamma   90.21642709
_symmetry_Int_Tables_number   1
_chemical_formula_structural   Zn3H32C42SN4O15
_chemical_formula_sum   'Zn6 H64 C84 S2 N8 O30'
_cell_volume   8665.07012728
_cell_formula_units_Z   2
loop_
 _symmetry_equiv_pos_site_id
 _symmetry_equiv_pos_as_xyz
  1  'x, y, z'
loop_
 _atom_site_type_symbol
 _atom_site_label
 _atom_site_symmetry_multiplicity
 _atom_site_fract_x
 _atom_site_fract_y
 _atom_site_fract_z
 _atom_site_occupancy
  Zn  Zn0  1  0.00246640  0.57283219  0.50324836  1.0
  Zn  Zn1  1  0.43239736  0.99952583  0.49715575  1.0
  Zn  Zn2  1  0.99952201  0.44546622  0.50093712  1.0
  Zn  Zn3  1  0.55967490  0.00143447  0.49863884  1.0
  Zn  Zn4  1  0.53434748  0.53286555  0.56871188  1.0
  Zn  Zn5  1  0.46650858  0.46611458  0.42785482  1.0
  H  H6  1  0.17259744  0.52178871  0.71140915  1.0
  H  H7  1  0.49616101  0.83202023  0.28550352  1.0
  H  H8  1  0.85483375  0.28184435  0.28122346  1.0
  H  H9  1  0.72090117  0.14855246  0.71954321  1.0
  H  H10  1  0.78849803  0.22010259  0.15001185  1.0
  H  H11  1  0.78161697  0.21397528  0.85068864  1.0
  H  H12  1  0.88178893  0.40294454  0.15444499  1.0
  H  H13  1  0.59939551  0.11673980  0.84444778  1.0
  H  H14  1  0.94317127  0.46666372  0.28563410  1.0
  H  H15  1  0.53642593  0.05658941  0.71336750  1.0
  H  H16  1  0.70171744  0.40641814  0.46613902  1.0
  H  H17  1  0.59427032  0.30180235  0.53160190  1.0
  H  H18  1  0.84443861  0.47974172  0.57729658  1.0
  H  H19  1  0.52761246  0.15791725  0.42014965  1.0
  H  H20  1  0.79167654  0.59795696  0.63980472  1.0
  H  H21  1  0.40685671  0.20687233  0.35406084  1.0
  H  H22  1  0.81344644  0.65844816  0.56329006  1.0
  H  H23  1  0.34387646  0.17975012  0.42654842  1.0
  H  H24  1  0.67154354  0.58343391  0.45155920  1.0
  H  H25  1  0.41235905  0.32305918  0.53867064  1.0
  H  H26  1  0.24554006  0.58048196  0.84135972  1.0
  H  H27  1  0.42482769  0.74966025  0.15614112  1.0
  H  H28  1  0.72693749  0.46665113  0.39100894  1.0
  H  H29  1  0.53125621  0.27240937  0.60295115  1.0
  H  H30  1  0.30504015  0.44025101  0.55283118  1.0
  H  H31  1  0.55860287  0.69395004  0.44084634  1.0
  H  H32  1  0.17694778  0.41599599  0.43097963  1.0
  H  H33  1  0.58926647  0.82282018  0.56526415  1.0
  H  H34  1  0.25548218  0.50320667  0.40916201  1.0
  H  H35  1  0.50554328  0.74664394  0.59207390  1.0
  H  H36  1  0.21870794  0.62562734  0.49027601  1.0
  H  H37  1  0.38235969  0.78614726  0.51644819  1.0
  H  H38  1  0.34553741  0.64876220  0.61288061  1.0
  H  H39  1  0.35282598  0.65851880  0.39142692  1.0
  H  H40  1  0.32483649  0.64102974  0.79742116  1.0
  H  H41  1  0.31586123  0.54841019  0.77237706  1.0
  H  H42  1  0.40225073  0.60607628  0.81948105  1.0
  H  H43  1  0.36602063  0.53177195  0.69120880  1.0
  H  H44  1  0.37855480  0.62385778  0.71735693  1.0
  H  H45  1  0.24579146  0.61289447  0.66885980  1.0
  H  H46  1  0.23207335  0.52044910  0.64327104  1.0
  H  H47  1  0.35080169  0.67283331  0.20116003  1.0
  H  H48  1  0.44209800  0.67801786  0.22183370  1.0
  H  H49  1  0.38265318  0.59318031  0.17819288  1.0
  H  H50  1  0.46152209  0.63221571  0.30624792  1.0
  H  H51  1  0.37061088  0.62281382  0.28432988  1.0
  H  H52  1  0.38447345  0.75569174  0.33179581  1.0
  H  H53  1  0.47553665  0.76664345  0.35219667  1.0
  H  H54  1  0.03573634  0.79938507  0.97326916  1.0
  H  H55  1  0.96354315  0.76892731  0.88825815  1.0
  H  H56  1  0.96154828  0.73016520  0.93922169  1.0
  H  H57  1  0.99459446  0.64608030  0.85052427  1.0
  H  H58  1  0.06658885  0.67831767  0.93527520  1.0
  H  H59  1  0.13204004  0.76108365  0.92550267  1.0
  H  H60  1  0.05920106  0.75488251  0.85168080  1.0
  H  H61  1  0.13791137  0.88220253  0.01171415  1.0
  H  H62  1  0.17988128  0.97194157  0.07992556  1.0
  H  H63  1  0.19106283  0.93936827  0.00426340  1.0
  H  H64  1  0.30095097  0.94513662  0.10599511  1.0
  H  H65  1  0.26157228  0.85607015  0.03796819  1.0
  H  H66  1  0.20564421  0.83069814  0.09909750  1.0
  H  H67  1  0.22984094  0.92139922  0.16143506  1.0
  H  H68  1  0.95265926  0.70794544  0.78943249  1.0
  H  H69  1  0.36488173  0.06206880  0.24574532  1.0
  C  C70  1  0.12331122  0.53442372  0.51015142  1.0
  C  C71  1  0.47023734  0.87907038  0.49140085  1.0
  C  C72  1  0.09149665  0.58101375  0.71359112  1.0
  C  C73  1  0.42346334  0.90143761  0.28639241  1.0
  C  C74  1  0.29775185  0.75150853  0.06923553  1.0
  C  C75  1  0.21762132  0.67521474  0.93595290  1.0
  C  C76  1  0.21516106  0.46761640  0.47091739  1.0
  C  C77  1  0.53685192  0.78552218  0.52711376  1.0
  C  C78  1  0.28434158  0.48088116  0.53839512  1.0
  C  C79  1  0.52002052  0.71583763  0.45821426  1.0
  C  C80  1  0.32692435  0.53013280  0.52619108  1.0
  C  C81  1  0.47280765  0.67461397  0.47327652  1.0
  C  C82  1  0.25723724  0.51651544  0.45890117  1.0
  C  C83  1  0.48991650  0.74477304  0.54193379  1.0
  C  C84  1  0.23793187  0.58428178  0.50405996  1.0
  C  C85  1  0.42173986  0.76565425  0.49985390  1.0
  C  C86  1  0.30741327  0.59731037  0.57180473  1.0
  C  C87  1  0.40515001  0.69570889  0.43073632  1.0
  C  C88  1  0.26505761  0.54830431  0.58381621  1.0
  C  C89  1  0.45214315  0.73664396  0.41587785  1.0
  C  C90  1  0.19478786  0.53534817  0.51484355  1.0
  C  C91  1  0.46891146  0.80752875  0.48641238  1.0
  C  C92  1  0.05714194  0.54733831  0.63484070  1.0
  C  C93  1  0.46033578  0.93983575  0.36514132  1.0
  C  C94  1  0.85971595  0.30810658  0.25292817  1.0
  C  C95  1  0.69447585  0.14259151  0.74738295  1.0
  C  C96  1  0.82326191  0.27370976  0.18016179  1.0
  C  C97  1  0.72836192  0.17854867  0.82014508  1.0
  C  C98  1  0.83146226  0.30775877  0.14444338  1.0
  C  C99  1  0.69418944  0.16913673  0.85538529  1.0
  C  C100  1  0.87567180  0.37720046  0.18266906  1.0
  C  C101  1  0.62522952  0.12394527  0.81664593  1.0
  C  C102  1  0.91005158  0.41224884  0.25528818  1.0
  C  C103  1  0.59057574  0.09022367  0.74403508  1.0
  C  C104  1  0.90283865  0.37781350  0.29091812  1.0
  C  C105  1  0.62505582  0.09889748  0.70890870  1.0
  C  C106  1  0.72999708  0.20649961  0.93220936  1.0
  C  C107  1  0.79422175  0.27136123  0.06762381  1.0
  C  C108  1  0.80518547  0.50292228  0.54992362  1.0
  C  C109  1  0.50172127  0.19532173  0.44582699  1.0
  C  C110  1  0.72791353  0.46214490  0.48781310  1.0
  C  C111  1  0.53896374  0.27333397  0.50818996  1.0
  C  C112  1  0.69922179  0.52839920  0.52293697  1.0
  C  C113  1  0.47180621  0.29943003  0.47111655  1.0
  C  C114  1  0.88375514  0.53592208  0.50147789  1.0
  C  C115  1  0.46839291  0.11536963  0.49343775  1.0
  C  C116  1  0.77683544  0.56892947  0.58435724  1.0
  C  C117  1  0.43463656  0.22118759  0.40941676  1.0
  C  C118  1  0.78871093  0.60242785  0.54213116  1.0
  C  C119  1  0.39951235  0.20692327  0.44949081  1.0
  C  C120  1  0.71113860  0.56107285  0.47991290  1.0
  C  C121  1  0.43731461  0.28518553  0.51195413  1.0
  C  C122  1  0.73991775  0.49547863  0.44603636  1.0
  C  C123  1  0.50397581  0.25911500  0.54789151  1.0
  C  C124  1  0.81838370  0.53720558  0.50903101  1.0
  C  C125  1  0.46589576  0.17990922  0.48461300  1.0
  C  C126  1  0.47932374  0.36802423  0.47028884  1.0
  C  C127  1  0.63113383  0.51942622  0.52436564  1.0
  C  C128  1  0.39684615  0.52219285  0.52831425  1.0
  C  C129  1  0.47959436  0.60405372  0.46981993  1.0
  C  C130  1  0.94053754  0.41684533  0.36907825  1.0
  C  C131  1  0.58640139  0.06230732  0.63078359  1.0
  C  C132  1  0.15500385  0.56185842  0.74483086  1.0
  C  C133  1  0.44724511  0.84241818  0.25365394  1.0
  C  C134  1  0.19530804  0.59420258  0.81692643  1.0
  C  C135  1  0.40718223  0.79632944  0.18212752  1.0
  C  C136  1  0.17193841  0.64490218  0.85991960  1.0
  C  C137  1  0.34118743  0.80674476  0.14299688  1.0
  C  C138  1  0.10761986  0.66555266  0.83060003  1.0
  C  C139  1  0.31671708  0.86788578  0.17339016  1.0
  C  C140  1  0.06831389  0.63254623  0.75676142  1.0
  C  C141  1  0.36092626  0.91592890  0.24499075  1.0
  C  C142  1  0.26777953  0.56533686  0.65185457  1.0
  C  C143  1  0.34389928  0.57874411  0.70931039  1.0
  C  C144  1  0.34703611  0.59450647  0.77846121  1.0
  C  C145  1  0.43159343  0.73273703  0.34677510  1.0
  C  C146  1  0.41514990  0.65535598  0.28947180  1.0
  C  C147  1  0.39656428  0.64936463  0.21872104  1.0
  C  C148  1  0.08428294  0.72277071  0.87699476  1.0
  C  C149  1  0.03432082  0.69463251  0.89655207  1.0
  C  C150  1  0.99690762  0.75103448  0.92575199  1.0
  C  C151  1  0.24765059  0.88025023  0.12860909  1.0
  C  C152  1  0.25312157  0.90136496  0.07725741  1.0
  C  C153  1  0.18686567  0.92491866  0.04114981  1.0
  S  S154  1  0.98882098  0.65854456  0.71351141  1.0
  S  S155  1  0.34074637  0.00041675  0.28633968  1.0
  N  N156  1  0.18803521  0.68254090  0.97714961  1.0
  N  N157  1  0.22897551  0.72231701  0.04554859  1.0
  N  N158  1  0.33067521  0.72396555  0.02980825  1.0
  N  N159  1  0.28958777  0.68542858  0.96160454  1.0
  N  N160  1  0.81832418  0.29674853  0.03598227  1.0
  N  N161  1  0.70534585  0.18161206  0.96381959  1.0
  N  N162  1  0.78510599  0.26440885  0.96718444  1.0
  N  N163  1  0.73737263  0.21515864  0.03266013  1.0
  O  O164  1  0.09481377  0.58733899  0.50817626  1.0
  O  O165  1  0.41698076  0.90747966  0.49251998  1.0
  O  O166  1  0.45259805  0.36747050  0.41100637  1.0
  O  O167  1  0.63225403  0.54573989  0.58401958  1.0
  O  O168  1  0.45414334  0.54956713  0.58843347  1.0
  O  O169  1  0.45123227  0.54704372  0.40920943  1.0
  O  O170  1  0.39523631  0.48715956  0.46957648  1.0
  O  O171  1  0.51456847  0.60473802  0.52793938  1.0
  O  O172  1  0.09510652  0.48082839  0.50919274  1.0
  O  O173  1  0.52434221  0.90739651  0.49312011  1.0
  O  O174  1  0.05469724  0.58820740  0.60920824  1.0
  O  O175  1  0.41990969  0.94750141  0.39234085  1.0
  O  O176  1  0.03900682  0.47835610  0.60141651  1.0
  O  O177  1  0.52918857  0.95650440  0.39785468  1.0
  O  O178  1  0.91293781  0.58970969  0.50208481  1.0
  O  O179  1  0.41512194  0.08719959  0.49424517  1.0
  O  O180  1  0.90763836  0.47982520  0.49458332  1.0
  O  O181  1  0.52483094  0.09204647  0.50086614  1.0
  O  O182  1  0.95837002  0.48485150  0.39948197  1.0
  O  O183  1  0.51840885  0.04562042  0.60040711  1.0
  O  O184  1  0.95261212  0.37879509  0.40044628  1.0
  O  O185  1  0.62467088  0.05002744  0.59950230  1.0
  O  O186  1  0.51305982  0.42361686  0.53020433  1.0
  O  O187  1  0.57532844  0.48500575  0.46479811  1.0
  O  O188  1  0.00904393  0.73049003  0.72720010  1.0
  O  O189  1  0.94665273  0.59992651  0.64436155  1.0
  O  O190  1  0.94067489  0.65975532  0.75025668  1.0
  O  O191  1  0.27616906  0.98962859  0.28943291  1.0
  O  O192  1  0.40625025  0.04996777  0.34621126  1.0
  O  O193  1  0.32128358  0.02867281  0.22948386  1.0
