# generated using pymatgen
data_ZnH8C19N2Cl2(O2F)2
_symmetry_space_group_name_H-M   'P 1'
_cell_length_a   21.72720605
_cell_length_b   21.88961867
_cell_length_c   21.90461493
_cell_angle_alpha   60.23427417
_cell_angle_beta   63.22174519
_cell_angle_gamma   63.19988033
_symmetry_Int_Tables_number   1
_chemical_formula_structural   ZnH8C19N2Cl2(O2F)2
_chemical_formula_sum   'Zn4 H32 C76 N8 Cl8 O16 F8'
_cell_volume   7718.72381055
_cell_formula_units_Z   4
loop_
 _symmetry_equiv_pos_site_id
 _symmetry_equiv_pos_as_xyz
  1  'x, y, z'
loop_
 _atom_site_type_symbol
 _atom_site_label
 _atom_site_symmetry_multiplicity
 _atom_site_fract_x
 _atom_site_fract_y
 _atom_site_fract_z
 _atom_site_occupancy
  Zn  Zn0  1  0.54142077  0.95453373  0.95463683  1.0
  Zn  Zn1  1  0.45856327  0.04554932  0.04538234  1.0
  Zn  Zn2  1  0.96239662  0.54345484  0.54337174  1.0
  Zn  Zn3  1  0.03787598  0.45651915  0.45652937  1.0
  H  H4  1  0.81413775  0.60756845  0.60714014  1.0
  H  H5  1  0.73256164  0.68572470  0.68539330  1.0
  H  H6  1  0.57633016  0.80539503  0.80473942  1.0
  H  H7  1  0.77538949  0.80425557  0.80486748  1.0
  H  H8  1  0.18622064  0.39250651  0.39249590  1.0
  H  H9  1  0.26757852  0.31423892  0.31428953  1.0
  H  H10  1  0.42332089  0.19484406  0.19493350  1.0
  H  H11  1  0.22426825  0.19542875  0.19536632  1.0
  H  H12  1  0.70025936  0.07322301  0.79275743  1.0
  H  H13  1  0.79566665  0.42981050  0.71151947  1.0
  H  H14  1  0.91936529  0.30060475  0.57516603  1.0
  H  H15  1  0.84172707  0.21998748  0.65234485  1.0
  H  H16  1  0.57688518  0.20374120  0.92782515  1.0
  H  H17  1  0.65517252  0.28361995  0.85054597  1.0
  H  H18  1  0.42323674  0.79649024  0.07195220  1.0
  H  H19  1  0.08087384  0.69902349  0.42529713  1.0
  H  H20  1  0.20471203  0.57018580  0.28854913  1.0
  H  H21  1  0.28177733  0.65124388  0.21188301  1.0
  H  H22  1  0.30009917  0.92629586  0.20766463  1.0
  H  H23  1  0.22225621  0.84580011  0.28475164  1.0
  H  H24  1  0.42369746  0.07221219  0.79619884  1.0
  H  H25  1  0.07989099  0.42445320  0.69970383  1.0
  H  H26  1  0.20410384  0.28760158  0.57100489  1.0
  H  H27  1  0.28122034  0.21103954  0.65202068  1.0
  H  H28  1  0.29971561  0.20752302  0.92642631  1.0
  H  H29  1  0.22147222  0.28417887  0.84631127  1.0
  H  H30  1  0.69946625  0.79170990  0.07423327  1.0
  H  H31  1  0.79467270  0.71091700  0.43053348  1.0
  H  H32  1  0.91904201  0.57474639  0.30113953  1.0
  H  H33  1  0.84060087  0.65107744  0.22131457  1.0
  H  H34  1  0.57613974  0.92730079  0.20421051  1.0
  H  H35  1  0.65386677  0.84952479  0.28464975  1.0
  C  C36  1  0.41554230  0.91640439  0.08602278  1.0
  C  C37  1  0.41576504  0.08624565  0.91614606  1.0
  C  C38  1  0.58436411  0.08378491  0.91416613  1.0
  C  C39  1  0.58403376  0.91371202  0.08409820  1.0
  C  C40  1  0.08900472  0.40943089  0.57947651  1.0
  C  C41  1  0.08962151  0.57888898  0.41019767  1.0
  C  C42  1  0.91093056  0.59001618  0.42069856  1.0
  C  C43  1  0.91073338  0.42090437  0.58971955  1.0
  C  C44  1  0.83526123  0.62796605  0.62779268  1.0
  C  C45  1  0.79104668  0.67048361  0.67036204  1.0
  C  C46  1  0.82274507  0.69453167  0.69472835  1.0
  C  C47  1  0.89849721  0.67460344  0.67509158  1.0
  C  C48  1  0.93940680  0.63085754  0.63131803  1.0
  C  C49  1  0.60565369  0.82133776  0.82098618  1.0
  C  C50  1  0.68079371  0.79930780  0.79926199  1.0
  C  C51  1  0.71685735  0.82072830  0.82110610  1.0
  C  C52  1  0.67565808  0.86360165  0.86410076  1.0
  C  C53  1  0.56911700  0.86450126  0.86423176  1.0
  C  C54  1  0.16499164  0.37204732  0.37200612  1.0
  C  C55  1  0.20907811  0.32948169  0.32946612  1.0
  C  C56  1  0.17721194  0.30536859  0.30533398  1.0
  C  C57  1  0.10145858  0.32526920  0.32515594  1.0
  C  C58  1  0.06068104  0.36908329  0.36885453  1.0
  C  C59  1  0.39401756  0.17876221  0.17880686  1.0
  C  C60  1  0.31889149  0.20063981  0.20066640  1.0
  C  C61  1  0.28279948  0.17904887  0.17901713  1.0
  C  C62  1  0.32399550  0.13611597  0.13607220  1.0
  C  C63  1  0.43055588  0.13559668  0.13557011  1.0
  C  C64  1  0.63246493  0.13274499  0.86632120  1.0
  C  C65  1  0.86341439  0.37126460  0.63714881  1.0
  C  C66  1  0.68972290  0.11941321  0.80613356  1.0
  C  C67  1  0.73369480  0.16517531  0.76276178  1.0
  C  C68  1  0.80638791  0.38387382  0.69770308  1.0
  C  C69  1  0.76296389  0.33763624  0.74108659  1.0
  C  C70  1  0.87492124  0.31122469  0.62216882  1.0
  C  C71  1  0.83056331  0.26567061  0.66636451  1.0
  C  C72  1  0.62139596  0.19276681  0.88101717  1.0
  C  C73  1  0.66615407  0.23784721  0.83680319  1.0
  C  C74  1  0.72502285  0.22681036  0.77493167  1.0
  C  C75  1  0.77181969  0.27615035  0.72854205  1.0
  C  C76  1  0.36736747  0.86752656  0.13418000  1.0
  C  C77  1  0.13724469  0.62820194  0.36264898  1.0
  C  C78  1  0.37908459  0.80791912  0.11870042  1.0
  C  C79  1  0.33464127  0.76279162  0.16282154  1.0
  C  C80  1  0.12510699  0.68778587  0.37849267  1.0
  C  C81  1  0.16935279  0.73319177  0.33460038  1.0
  C  C82  1  0.19461691  0.61632438  0.30179191  1.0
  C  C83  1  0.23815875  0.66270035  0.25846528  1.0
  C  C84  1  0.30994130  0.87995738  0.19484547  1.0
  C  C85  1  0.26598629  0.83392620  0.23835674  1.0
  C  C86  1  0.27574496  0.77247838  0.22496494  1.0
  C  C87  1  0.22820683  0.72393074  0.27227072  1.0
  C  C88  1  0.36744710  0.13426716  0.86741363  1.0
  C  C89  1  0.13649230  0.36178048  0.62892236  1.0
  C  C90  1  0.37927406  0.11877426  0.80780861  1.0
  C  C91  1  0.33454838  0.16260122  0.76296603  1.0
  C  C92  1  0.12422231  0.37764129  0.68850785  1.0
  C  C93  1  0.16847864  0.33380532  0.73389949  1.0
  C  C94  1  0.19393867  0.30089781  0.61709733  1.0
  C  C95  1  0.23751890  0.25764690  0.66343896  1.0
  C  C96  1  0.30967224  0.19469522  0.88007932  1.0
  C  C97  1  0.26547475  0.23795795  0.83427877  1.0
  C  C98  1  0.27529322  0.22450288  0.77289238  1.0
  C  C99  1  0.22753439  0.27156416  0.72456882  1.0
  C  C100  1  0.63175228  0.86557019  0.13343264  1.0
  C  C101  1  0.86299616  0.63685841  0.37167023  1.0
  C  C102  1  0.68882617  0.80508336  0.12042798  1.0
  C  C103  1  0.73249367  0.76144357  0.16648895  1.0
  C  C104  1  0.80544968  0.69700688  0.38466722  1.0
  C  C105  1  0.76148624  0.73983943  0.33895513  1.0
  C  C106  1  0.87432025  0.62156850  0.31192616  1.0
  C  C107  1  0.82950649  0.66527622  0.26682804  1.0
  C  C108  1  0.62051026  0.88025693  0.19349036  1.0
  C  C109  1  0.66494299  0.83575518  0.23889267  1.0
  C  C110  1  0.72366930  0.77362533  0.22813410  1.0
  C  C111  1  0.77043658  0.72725380  0.27750286  1.0
  N  N112  1  0.90810950  0.60863225  0.60872735  1.0
  N  N113  1  0.78419163  0.73802627  0.73833513  1.0
  N  N114  1  0.71633632  0.75549147  0.75526949  1.0
  N  N115  1  0.60250146  0.88595777  0.88610353  1.0
  N  N116  1  0.09213536  0.39136266  0.39121856  1.0
  N  N117  1  0.21559355  0.26180645  0.26180658  1.0
  N  N118  1  0.28345701  0.24452122  0.24456500  1.0
  N  N119  1  0.39715868  0.11396169  0.11390354  1.0
  Cl  Cl120  1  0.03110980  0.60536902  0.60626877  1.0
  Cl  Cl121  1  0.94028808  0.70202086  0.70283691  1.0
  Cl  Cl122  1  0.47700651  0.89108942  0.89035534  1.0
  Cl  Cl123  1  0.72077350  0.88913800  0.89029762  1.0
  Cl  Cl124  1  0.96898440  0.39459323  0.39406065  1.0
  Cl  Cl125  1  0.05949482  0.29776145  0.29767639  1.0
  Cl  Cl126  1  0.52264695  0.10929275  0.10918092  1.0
  Cl  Cl127  1  0.27888532  0.11025300  0.11019603  1.0
  O  O128  1  0.46568805  0.90048486  0.03177989  1.0
  O  O129  1  0.40201956  0.96979970  0.10316482  1.0
  O  O130  1  0.40174544  0.10300559  0.96992855  1.0
  O  O131  1  0.46646664  0.03243923  0.89978730  1.0
  O  O132  1  0.53363532  0.10016777  0.96784739  1.0
  O  O133  1  0.59847416  0.02989902  0.89741319  1.0
  O  O134  1  0.59775614  0.89645093  0.03071059  1.0
  O  O135  1  0.53396289  0.96814237  0.09970670  1.0
  O  O136  1  0.03674325  0.46209750  0.59666296  1.0
  O  O137  1  0.10427625  0.39409843  0.52431996  1.0
  O  O138  1  0.10492459  0.52360308  0.39499642  1.0
  O  O139  1  0.03719980  0.59633942  0.46258700  1.0
  O  O140  1  0.96359827  0.53778865  0.40318417  1.0
  O  O141  1  0.89568148  0.60550134  0.47577635  1.0
  O  O142  1  0.89543873  0.47606359  0.60514767  1.0
  O  O143  1  0.96299961  0.40373741  0.53712994  1.0
  F  F144  1  0.78796083  0.14619850  0.70532858  1.0
  F  F145  1  0.70908378  0.35616312  0.79894235  1.0
  F  F146  1  0.35228825  0.70620340  0.14142176  1.0
  F  F147  1  0.15171656  0.78954999  0.35625473  1.0
  F  F148  1  0.35226735  0.14114768  0.70642921  1.0
  F  F149  1  0.15066447  0.35545032  0.79028733  1.0
  F  F150  1  0.78665033  0.70376696  0.14776531  1.0
  F  F151  1  0.70692676  0.79715016  0.35802327  1.0
