# generated using pymatgen
data_FeH16(C12N5)2
_symmetry_space_group_name_H-M   'P 1'
_cell_length_a   16.06537356
_cell_length_b   17.94408102
_cell_length_c   17.95472896
_cell_angle_alpha   111.49648758
_cell_angle_beta   107.37003299
_cell_angle_gamma   107.32957892
_symmetry_Int_Tables_number   1
_chemical_formula_structural   FeH16(C12N5)2
_chemical_formula_sum   'Fe6 H96 C144 N60'
_cell_volume   4084.39836988
_cell_formula_units_Z   6
loop_
 _symmetry_equiv_pos_site_id
 _symmetry_equiv_pos_as_xyz
  1  'x, y, z'
loop_
 _atom_site_type_symbol
 _atom_site_label
 _atom_site_symmetry_multiplicity
 _atom_site_fract_x
 _atom_site_fract_y
 _atom_site_fract_z
 _atom_site_occupancy
  Fe  Fe0  1  0.49999878  0.50000349  0.99999985  1.0
  Fe  Fe1  1  0.49999930  0.00000035  0.50000227  1.0
  Fe  Fe2  1  0.99999594  0.49999739  0.49999712  1.0
  Fe  Fe3  1  0.50000312  0.50000166  0.50000256  1.0
  Fe  Fe4  1  0.99999976  0.99999938  0.49999674  1.0
  Fe  Fe5  1  0.00000160  0.49999689  0.00000060  1.0
  H  H6  1  0.65089161  0.74070036  0.93644761  1.0
  H  H7  1  0.71449479  0.06330593  0.80416289  1.0
  H  H8  1  0.91022106  0.19569995  0.25931809  1.0
  H  H9  1  0.58966494  0.74085405  0.80416144  1.0
  H  H10  1  0.84908986  0.06361520  0.25931372  1.0
  H  H11  1  0.78555981  0.19574776  0.93645334  1.0
  H  H12  1  0.34911061  0.25930540  0.06355142  1.0
  H  H13  1  0.28550224  0.93669876  0.19584249  1.0
  H  H14  1  0.08977170  0.80429364  0.74067416  1.0
  H  H15  1  0.41034277  0.25914322  0.19584663  1.0
  H  H16  1  0.15090967  0.93638361  0.74067903  1.0
  H  H17  1  0.21444560  0.80424925  0.06354908  1.0
  H  H18  1  0.82158153  0.82010587  0.06707457  1.0
  H  H19  1  0.75471366  0.93268080  0.75290674  1.0
  H  H20  1  0.00160606  0.24690363  0.18000383  1.0
  H  H21  1  0.49818557  0.82022234  0.75290313  1.0
  H  H22  1  0.67838966  0.93309521  0.18000227  1.0
  H  H23  1  0.74549640  0.24697243  0.06707939  1.0
  H  H24  1  0.17841806  0.17989890  0.93292280  1.0
  H  H25  1  0.24529474  0.06733334  0.24710673  1.0
  H  H26  1  0.99838893  0.75309320  0.81998965  1.0
  H  H27  1  0.50181649  0.17977337  0.24711213  1.0
  H  H28  1  0.32160293  0.06690282  0.81999172  1.0
  H  H29  1  0.25450646  0.75302399  0.93292243  1.0
  H  H30  1  0.85437760  0.75526265  0.16906710  1.0
  H  H31  1  0.68561958  0.83079719  0.58610192  1.0
  H  H32  1  0.09915346  0.41373358  0.24474195  1.0
  H  H33  1  0.40047912  0.75529634  0.58609812  1.0
  H  H34  1  0.64558714  0.83100587  0.24474118  1.0
  H  H35  1  0.81469229  0.41381000  0.16906889  1.0
  H  H36  1  0.14562541  0.24474298  0.83092843  1.0
  H  H37  1  0.31439313  0.16921371  0.41391169  1.0
  H  H38  1  0.90084471  0.58626835  0.75525931  1.0
  H  H39  1  0.59952228  0.24470399  0.41391907  1.0
  H  H40  1  0.35441325  0.16899338  0.75525808  1.0
  H  H41  1  0.18530692  0.58618640  0.83092955  1.0
  H  H42  1  0.71823307  0.61766181  0.13926655  1.0
  H  H43  1  0.57922567  0.86073511  0.47840523  1.0
  H  H44  1  0.10061475  0.52154700  0.38229510  1.0
  H  H45  1  0.39918082  0.61766579  0.47840172  1.0
  H  H46  1  0.78168309  0.86074905  0.38229379  1.0
  H  H47  1  0.92103362  0.52160802  0.13926777  1.0
  H  H48  1  0.28176860  0.38234441  0.86073092  1.0
  H  H49  1  0.42077295  0.13926715  0.52160445  1.0
  H  H50  1  0.89937903  0.47844917  0.61770445  1.0
  H  H51  1  0.60083158  0.38234252  0.52160863  1.0
  H  H52  1  0.21831778  0.13925239  0.61770295  1.0
  H  H53  1  0.07896661  0.47838808  0.86073172  1.0
  H  H54  1  0.63812184  0.39577397  0.31636264  1.0
  H  H55  1  0.32193361  0.68383960  0.07955800  1.0
  H  H56  1  0.24256406  0.92040785  0.60424373  1.0
  H  H57  1  0.25762800  0.39572029  0.07956033  1.0
  H  H58  1  0.86167831  0.68382995  0.60424469  1.0
  H  H59  1  0.17824020  0.92058773  0.31636282  1.0
  H  H60  1  0.36187291  0.60422235  0.68362696  1.0
  H  H61  1  0.67806334  0.31616672  0.92044429  1.0
  H  H62  1  0.75743172  0.07958144  0.39575366  1.0
  H  H63  1  0.74237861  0.60427891  0.92044360  1.0
  H  H64  1  0.13832351  0.31617570  0.39575626  1.0
  H  H65  1  0.82175861  0.07940636  0.68363061  1.0
  H  H66  1  0.78440022  0.41919168  0.43828259  1.0
  H  H67  1  0.34628526  0.56188948  0.98102138  1.0
  H  H68  1  0.36538470  0.01896078  0.58083573  1.0
  H  H69  1  0.13474154  0.41913930  0.98102374  1.0
  H  H70  1  0.71544804  0.56187005  0.58083709  1.0
  H  H71  1  0.15388041  0.01908672  0.43828197  1.0
  H  H72  1  0.21559231  0.58080006  0.56170714  1.0
  H  H73  1  0.65371672  0.43812135  0.01897733  1.0
  H  H74  1  0.63461570  0.98103342  0.41916859  1.0
  H  H75  1  0.86525751  0.58085496  0.01897390  1.0
  H  H76  1  0.28455179  0.43813355  0.41916584  1.0
  H  H77  1  0.84611808  0.98091204  0.56171007  1.0
  H  H78  1  0.97353110  0.58477989  0.38600507  1.0
  H  H79  1  0.58783608  0.61408158  0.19873316  1.0
  H  H80  1  0.38906706  0.80111381  0.41518810  1.0
  H  H81  1  0.11090400  0.58465616  0.19874089  1.0
  H  H82  1  0.52611926  0.61407517  0.41519116  1.0
  H  H83  1  0.91247333  0.80122767  0.38600289  1.0
  H  H84  1  0.02646667  0.41521871  0.61399220  1.0
  H  H85  1  0.41216580  0.38592817  0.80126514  1.0
  H  H86  1  0.61093962  0.19888679  0.58481588  1.0
  H  H87  1  0.88909927  0.41533869  0.80126071  1.0
  H  H88  1  0.47387777  0.38592817  0.58481555  1.0
  H  H89  1  0.08752109  0.19877485  0.61399290  1.0
  H  H90  1  0.83425626  0.57310756  0.26744157  1.0
  H  H91  1  0.56713998  0.73266716  0.30562088  1.0
  H  H92  1  0.26147235  0.69418022  0.42687389  1.0
  H  H93  1  0.23848500  0.57294856  0.30562309  1.0
  H  H94  1  0.66539942  0.73269213  0.42687369  1.0
  H  H95  1  0.93318572  0.69433489  0.26743990  1.0
  H  H96  1  0.16574613  0.42689477  0.73255471  1.0
  H  H97  1  0.43285777  0.26733634  0.69438061  1.0
  H  H98  1  0.73853435  0.30581785  0.57312352  1.0
  H  H99  1  0.76151771  0.42704741  0.69437626  1.0
  H  H100  1  0.33459420  0.26730849  0.57312762  1.0
  H  H101  1  0.06680744  0.30566236  0.73255602  1.0
  C  C102  1  0.50188781  0.40773661  0.09703189  1.0
  C  C103  1  0.40486079  0.90308952  0.31070488  1.0
  C  C104  1  0.09434037  0.68927277  0.59228369  1.0
  C  C105  1  0.40584581  0.40761530  0.31070561  1.0
  C  C106  1  0.99794341  0.90300897  0.59228277  1.0
  C  C107  1  0.09514621  0.68929777  0.09703330  1.0
  C  C108  1  0.49811027  0.59226762  0.90296561  1.0
  C  C109  1  0.59513831  0.09691459  0.68930261  1.0
  C  C110  1  0.90565031  0.31072038  0.40770745  1.0
  C  C111  1  0.59415999  0.59238570  0.68930012  1.0
  C  C112  1  0.00205660  0.09698544  0.40770491  1.0
  C  C113  1  0.90485713  0.31069679  0.90297003  1.0
  C  C114  1  0.35862810  0.53604187  0.79664626  1.0
  C  C115  1  0.56186616  0.20325473  0.73935519  1.0
  C  C116  1  0.82235709  0.26072329  0.46397516  1.0
  C  C117  1  0.67748508  0.53610113  0.73935436  1.0
  C  C118  1  0.14161808  0.20325009  0.46397411  1.0
  C  C119  1  0.93802009  0.26060468  0.79664958  1.0
  C  C120  1  0.64137229  0.46396008  0.20335031  1.0
  C  C121  1  0.43812721  0.79674589  0.26065083  1.0
  C  C122  1  0.17764102  0.73926777  0.53601726  1.0
  C  C123  1  0.32251889  0.46389741  0.26064757  1.0
  C  C124  1  0.85837706  0.79674921  0.53601981  1.0
  C  C125  1  0.06198023  0.73939216  0.20335065  1.0
  C  C126  1  0.40194162  0.35835576  0.02751353  1.0
  C  C127  1  0.37440872  0.97267673  0.33085406  1.0
  C  C128  1  0.04370954  0.66919445  0.64168868  1.0
  C  C129  1  0.45644964  0.35817978  0.33085733  1.0
  C  C130  1  0.09797983  0.97249200  0.64169031  1.0
  C  C131  1  0.12557376  0.66916038  0.02751469  1.0
  C  C132  1  0.59805638  0.64164706  0.97248391  1.0
  C  C133  1  0.62559230  0.02732736  0.66915207  1.0
  C  C134  1  0.95628267  0.33079757  0.35830403  1.0
  C  C135  1  0.54355839  0.64182346  0.66915064  1.0
  C  C136  1  0.90201850  0.02750462  0.35830093  1.0
  C  C137  1  0.87443277  0.33083775  0.97248885  1.0
  C  C138  1  0.67011492  0.71779354  0.98440855  1.0
  C  C139  1  0.68575205  0.01532887  0.73330924  1.0
  C  C140  1  0.95230634  0.26658418  0.28221371  1.0
  C  C141  1  0.54755533  0.71797743  0.73330728  1.0
  C  C142  1  0.82990422  0.01563000  0.28221269  1.0
  C  C143  1  0.81429597  0.26661665  0.98441303  1.0
  C  C144  1  0.32988316  0.28221136  0.01558827  1.0
  C  C145  1  0.31425326  0.98467923  0.26669887  1.0
  C  C146  1  0.04769430  0.73341271  0.71778319  1.0
  C  C147  1  0.45245151  0.28202059  0.26670221  1.0
  C  C148  1  0.17009147  0.98436952  0.71778213  1.0
  C  C149  1  0.18570634  0.73337921  0.01558823  1.0
  C  C150  1  0.76370777  0.76036149  0.05580190  1.0
  C  C151  1  0.70802735  0.94393324  0.70445200  1.0
  C  C152  1  0.00341733  0.29539831  0.23969921  1.0
  C  C153  1  0.49642257  0.76051562  0.70444982  1.0
  C  C154  1  0.73627663  0.94429696  0.23969736  1.0
  C  C155  1  0.79209681  0.29544354  0.05580618  1.0
  C  C156  1  0.23629318  0.23964169  0.94419455  1.0
  C  C157  1  0.29198066  0.05607657  0.29555850  1.0
  C  C158  1  0.99658538  0.70459766  0.76030014  1.0
  C  C159  1  0.50358147  0.23948383  0.29556177  1.0
  C  C160  1  0.26371723  0.05570231  0.76030057  1.0
  C  C161  1  0.20790303  0.70455314  0.94419455  1.0
  C  C162  1  0.78224600  0.72450911  0.11248490  1.0
  C  C163  1  0.66999293  0.88735698  0.61194760  1.0
  C  C164  1  0.05777941  0.38792507  0.27550804  1.0
  C  C165  1  0.44195434  0.72458533  0.61194377  1.0
  C  C166  1  0.71772672  0.88758169  0.27550675  1.0
  C  C167  1  0.83024256  0.38797915  0.11248945  1.0
  C  C168  1  0.21775503  0.27549615  0.88751094  1.0
  C  C169  1  0.33001764  0.11265343  0.38806350  1.0
  C  C170  1  0.94222090  0.61207210  0.72449184  1.0
  C  C171  1  0.55804667  0.27541235  0.38806875  1.0
  C  C172  1  0.28227057  0.11241911  0.72448867  1.0
  C  C173  1  0.16975705  0.61201500  0.88750943  1.0
  C  C174  1  0.70716154  0.64804052  0.09674074  1.0
  C  C175  1  0.61061077  0.90316673  0.55128349  1.0
  C  C176  1  0.05912130  0.44865483  0.35195521  1.0
  C  C177  1  0.44066923  0.64811033  0.55127838  1.0
  C  C178  1  0.79283395  0.90329988  0.35195382  1.0
  C  C179  1  0.88958154  0.44870416  0.09674301  1.0
  C  C180  1  0.29283869  0.35196588  0.90325758  1.0
  C  C181  1  0.38939764  0.09684049  0.44872779  1.0
  C  C182  1  0.94087472  0.55133834  0.64804270  1.0
  C  C183  1  0.55933386  0.35189082  0.44873221  1.0
  C  C184  1  0.20716644  0.09670173  0.64804308  1.0
  C  C185  1  0.11042125  0.55129220  0.90325740  1.0
  C  C186  1  0.27615082  0.51920041  0.72033241  1.0
  C  C187  1  0.55561730  0.27956867  0.79881632  1.0
  C  C188  1  0.75666313  0.20128232  0.48081591  1.0
  C  C189  1  0.74319800  0.51925154  0.79881446  1.0
  C  C190  1  0.22415188  0.27953321  0.48081737  1.0
  C  C191  1  0.94418354  0.20113455  0.72033557  1.0
  C  C192  1  0.72384846  0.48080110  0.27966237  1.0
  C  C193  1  0.44437958  0.72043591  0.20118625  1.0
  C  C194  1  0.24333632  0.79871036  0.51918150  1.0
  C  C195  1  0.25680272  0.48074406  0.20118520  1.0
  C  C196  1  0.77584692  0.72047102  0.51918417  1.0
  C  C197  1  0.05581256  0.79886104  0.27966138  1.0
  C  C198  1  0.28849659  0.56106030  0.66925538  1.0
  C  C199  1  0.61904462  0.33058680  0.89169694  1.0
  C  C200  1  0.72718780  0.10834972  0.43892113  1.0
  C  C201  1  0.77265080  0.56111366  0.89169462  1.0
  C  C202  1  0.21173414  0.33057133  0.43892155  1.0
  C  C203  1  0.88076142  0.10819701  0.66925757  1.0
  C  C204  1  0.71149776  0.43893693  0.33073512  1.0
  C  C205  1  0.38095122  0.66941840  0.10830423  1.0
  C  C206  1  0.27281125  0.89164286  0.56107820  1.0
  C  C207  1  0.22735087  0.43888260  0.10830367  1.0
  C  C208  1  0.78826713  0.66943276  0.56107986  1.0
  C  C209  1  0.11923484  0.89179682  0.33073493  1.0
  C  C210  1  0.20691675  0.54873580  0.60175733  1.0
  C  C211  1  0.60497731  0.39809996  0.94689139  1.0
  C  C212  1  0.65798140  0.05315682  0.45125828  1.0
  C  C213  1  0.84191470  0.54879617  0.94688852  1.0
  C  C214  1  0.29327747  0.39809983  0.45125781  1.0
  C  C215  1  0.89484294  0.05302532  0.60175926  1.0
  C  C216  1  0.79307832  0.45126210  0.39823654  1.0
  C  C217  1  0.39502220  0.60190999  0.05310846  1.0
  C  C218  1  0.34201534  0.94683668  0.54874332  1.0
  C  C219  1  0.15808642  0.45119852  0.05311022  1.0
  C  C220  1  0.70672657  0.60190535  0.54874806  1.0
  C  C221  1  0.10515516  0.94697435  0.39823369  1.0
  C  C222  1  0.89849511  0.54442798  0.37013726  1.0
  C  C223  1  0.52864783  0.62996401  0.17427499  1.0
  C  C224  1  0.35438522  0.82558135  0.45556359  1.0
  C  C225  1  0.14562812  0.54431141  0.17427740  1.0
  C  C226  1  0.60117566  0.62998028  0.45556379  1.0
  C  C227  1  0.97163968  0.82571064  0.37013414  1.0
  C  C228  1  0.10149971  0.45557229  0.62985897  1.0
  C  C229  1  0.47135207  0.37004436  0.82572463  1.0
  C  C230  1  0.64561819  0.17441731  0.54443711  1.0
  C  C231  1  0.85437466  0.45568596  0.82572200  1.0
  C  C232  1  0.39882170  0.37002244  0.54444029  1.0
  C  C233  1  0.02835761  0.17428949  0.62986195  1.0
  C  C234  1  0.82059146  0.53739094  0.30358905  1.0
  C  C235  1  0.51727926  0.69651398  0.23379256  1.0
  C  C236  1  0.28352996  0.76605276  0.46260154  1.0
  C  C237  1  0.21651162  0.53727407  0.23379469  1.0
  C  C238  1  0.67907039  0.69654727  0.46260363  1.0
  C  C239  1  0.98299593  0.76619919  0.30358639  1.0
  C  C240  1  0.17940590  0.46261160  0.69640609  1.0
  C  C241  1  0.48271643  0.30348977  0.76620715  1.0
  C  C242  1  0.71647172  0.23394452  0.53739575  1.0
  C  C243  1  0.78349260  0.46272312  0.76620386  1.0
  C  C244  1  0.32092633  0.30345483  0.53739848  1.0
  C  C245  1  0.01699977  0.23379865  0.69641012  1.0
  N  N246  1  0.43826623  0.52325068  0.90661432  1.0
  N  N247  1  0.53168508  0.09333491  0.61665963  1.0
  N  N248  1  0.91502281  0.38342952  0.47683486  1.0
  N  N249  1  0.58497302  0.52332170  0.61665917  1.0
  N  N250  1  0.06180916  0.09340264  0.47683181  1.0
  N  N251  1  0.96834731  0.38336207  0.90661670  1.0
  N  N252  1  0.56173256  0.47675590  0.09338485  1.0
  N  N253  1  0.46831483  0.90666672  0.38334673  1.0
  N  N254  1  0.08496908  0.61656448  0.52315915  1.0
  N  N255  1  0.41503381  0.47668036  0.38334627  1.0
  N  N256  1  0.93819070  0.90659386  0.52315999  1.0
  N  N257  1  0.03165492  0.61663103  0.09338585  1.0
  N  N258  1  0.34802140  0.48684997  0.83865513  1.0
  N  N259  1  0.50932935  0.16129769  0.64819501  1.0
  N  N260  1  0.86116276  0.35194222  0.51326292  1.0
  N  N261  1  0.63886534  0.48689573  0.64819369  1.0
  N  N262  1  0.15209922  0.16131815  0.51326258  1.0
  N  N263  1  0.99063442  0.35180499  0.83865775  1.0
  N  N264  1  0.65197890  0.51315749  0.16134358  1.0
  N  N265  1  0.49066688  0.83870155  0.35181031  1.0
  N  N266  1  0.13883248  0.64804854  0.48673189  1.0
  N  N267  1  0.36114126  0.51310549  0.35180821  1.0
  N  N268  1  0.84789871  0.83868327  0.48673481  1.0
  N  N269  1  0.00936574  0.64818870  0.16134269  1.0
  N  N270  1  0.54875849  0.39728460  0.16518729  1.0
  N  N271  1  0.38366646  0.83495348  0.23213283  1.0
  N  N272  1  0.15179984  0.76784897  0.60276549  1.0
  N  N273  1  0.34846333  0.39717481  0.23213117  1.0
  N  N274  1  0.95096745  0.83491579  0.60276560  1.0
  N  N275  1  0.11643116  0.76790498  0.16518816  1.0
  N  N276  1  0.45124294  0.60271841  0.83480899  1.0
  N  N277  1  0.61633002  0.16504830  0.76787435  1.0
  N  N278  1  0.84819451  0.23214624  0.39722704  1.0
  N  N279  1  0.65153873  0.60282375  0.76787212  1.0
  N  N280  1  0.04903343  0.16508109  0.39722658  1.0
  N  N281  1  0.88356852  0.23208922  0.83481212  1.0
  N  N282  1  0.38418545  0.39340372  0.97170339  1.0
  N  N283  1  0.41240417  0.02841476  0.42169286  1.0
  N  N284  1  0.99083417  0.57834256  0.60663378  1.0
  N  N285  1  0.50929222  0.39328105  0.42169587  1.0
  N  N286  1  0.11579657  0.02828783  0.60663264  1.0
  N  N287  1  0.08752017  0.57830134  0.97170335  1.0
  N  N288  1  0.61581278  0.60660332  0.02829423  1.0
  N  N289  1  0.58760010  0.97159194  0.57831587  1.0
  N  N290  1  0.00916360  0.42165369  0.39336585  1.0
  N  N291  1  0.49071429  0.60672130  0.57831256  1.0
  N  N292  1  0.88420167  0.97171195  0.39336310  1.0
  N  N293  1  0.91248398  0.42169276  0.02829683  1.0
  N  N294  1  0.11351057  0.49932366  0.58326282  1.0
  N  N295  1  0.53005227  0.41663268  0.91601841  1.0
  N  N296  1  0.61398220  0.08406562  0.50067936  1.0
  N  N297  1  0.88596717  0.49938968  0.91601627  1.0
  N  N298  1  0.38669875  0.41661370  0.50068002  1.0
  N  N299  1  0.96975237  0.08394120  0.58326360  1.0
  N  N300  1  0.88648569  0.50067541  0.41673357  1.0
  N  N301  1  0.46994763  0.58337603  0.08398088  1.0
  N  N302  1  0.38601660  0.91593101  0.49932065  1.0
  N  N303  1  0.11403609  0.50060617  0.08398431  1.0
  N  N304  1  0.61330306  0.58338993  0.49932295  1.0
  N  N305  1  0.03024531  0.91605869  0.41673091  1.0
