# generated using pymatgen
data_CdH14C12N5O3
_symmetry_space_group_name_H-M   'P 1'
_cell_length_a   9.76101406
_cell_length_b   11.15268060
_cell_length_c   18.96020519
_cell_angle_alpha   105.24345712
_cell_angle_beta   104.90709814
_cell_angle_gamma   90.01053582
_symmetry_Int_Tables_number   1
_chemical_formula_structural   CdH14C12N5O3
_chemical_formula_sum   'Cd4 H56 C48 N20 O12'
_cell_volume   1919.29672073
_cell_formula_units_Z   4
loop_
 _symmetry_equiv_pos_site_id
 _symmetry_equiv_pos_as_xyz
  1  'x, y, z'
loop_
 _atom_site_type_symbol
 _atom_site_label
 _atom_site_symmetry_multiplicity
 _atom_site_fract_x
 _atom_site_fract_y
 _atom_site_fract_z
 _atom_site_occupancy
  Cd  Cd0  1  0.87710699  0.37156577  0.42240909  1.0
  Cd  Cd1  1  0.45460399  0.12849131  0.57753517  1.0
  Cd  Cd2  1  0.12289412  0.62843537  0.57759333  1.0
  Cd  Cd3  1  0.54539372  0.87150706  0.42246319  1.0
  H  H4  1  0.70585715  0.91495181  0.05903283  1.0
  H  H5  1  0.64745305  0.58482976  0.94107039  1.0
  H  H6  1  0.29413905  0.08505399  0.94097071  1.0
  H  H7  1  0.35255847  0.41516860  0.05892772  1.0
  H  H8  1  0.81196270  0.03023360  0.19210610  1.0
  H  H9  1  0.62032052  0.46960881  0.80796060  1.0
  H  H10  1  0.18803244  0.96977221  0.80789677  1.0
  H  H11  1  0.37968538  0.53038583  0.19203617  1.0
  H  H12  1  0.48531954  0.28627223  0.17949746  1.0
  H  H13  1  0.30576917  0.21385428  0.82052292  1.0
  H  H14  1  0.51467422  0.71372985  0.82050464  1.0
  H  H15  1  0.69423633  0.78614873  0.17947932  1.0
  H  H16  1  0.37660770  0.17338982  0.04593752  1.0
  H  H17  1  0.33072146  0.32672626  0.95410826  1.0
  H  H18  1  0.62338727  0.82661412  0.95406503  1.0
  H  H19  1  0.66929524  0.67327115  0.04589619  1.0
  H  H20  1  0.87830100  0.63982738  0.36682914  1.0
  H  H21  1  0.51121087  0.85990680  0.63314898  1.0
  H  H22  1  0.12169249  0.36017099  0.63316760  1.0
  H  H23  1  0.48878823  0.14009530  0.36684857  1.0
  H  H24  1  0.88263435  0.85210536  0.54376353  1.0
  H  H25  1  0.33836468  0.64782939  0.45613549  1.0
  H  H26  1  0.11736792  0.14789673  0.45623497  1.0
  H  H27  1  0.66162766  0.35216805  0.54386095  1.0
  H  H28  1  0.57904331  0.45513238  0.36846003  1.0
  H  H29  1  0.21070732  0.04489958  0.63162932  1.0
  H  H30  1  0.42095986  0.54486784  0.63154094  1.0
  H  H31  1  0.78929471  0.95509971  0.36837029  1.0
  H  H32  1  0.50420391  0.58952101  0.36123074  1.0
  H  H33  1  0.14300019  0.91051034  0.63885070  1.0
  H  H34  1  0.49579925  0.41047921  0.63876917  1.0
  H  H35  1  0.85700086  0.08948988  0.36114946  1.0
  H  H36  1  0.18707541  0.51833913  0.30964302  1.0
  H  H37  1  0.87714026  0.98176303  0.69027724  1.0
  H  H38  1  0.81292655  0.48165923  0.69035644  1.0
  H  H39  1  0.12285950  0.01823440  0.30972178  1.0
  H  H40  1  0.23368920  0.66141075  0.29209461  1.0
  H  H41  1  0.94145408  0.83876510  0.70782929  1.0
  H  H42  1  0.76630851  0.33858762  0.70790428  1.0
  H  H43  1  0.05854355  0.16123232  0.29216997  1.0
  H  H44  1  0.10790728  0.54755533  0.22039017  1.0
  H  H45  1  0.88716679  0.95246764  0.77951083  1.0
  H  H46  1  0.89209246  0.45244210  0.77960937  1.0
  H  H47  1  0.11283100  0.04753166  0.22048821  1.0
  H  H48  1  0.90341560  0.79680403  0.32296685  1.0
  H  H49  1  0.58056259  0.70282041  0.67690488  1.0
  H  H50  1  0.09658424  0.20319434  0.67703127  1.0
  H  H51  1  0.41943218  0.29718075  0.32309353  1.0
  H  H52  1  0.98925455  0.77808668  0.24886609  1.0
  H  H53  1  0.74048889  0.72176781  0.75102781  1.0
  H  H54  1  0.01074717  0.22190888  0.75113237  1.0
  H  H55  1  0.25950565  0.27823055  0.24897066  1.0
  H  H56  1  0.09048953  0.84052777  0.34507986  1.0
  H  H57  1  0.74559390  0.65943409  0.65482189  1.0
  H  H58  1  0.90951220  0.15946780  0.65491808  1.0
  H  H59  1  0.25440071  0.34056521  0.34517620  1.0
  C  C60  1  0.53169883  0.03397344  0.04037226  1.0
  C  C61  1  0.49148072  0.46603544  0.95964424  1.0
  C  C62  1  0.46829622  0.96603143  0.95963045  1.0
  C  C63  1  0.50853418  0.53396571  0.04035686  1.0
  C  C64  1  0.72198998  0.23746171  0.27495968  1.0
  C  C65  1  0.44696148  0.26259251  0.72504529  1.0
  C  C66  1  0.27800482  0.76254036  0.72504467  1.0
  C  C67  1  0.55304039  0.73740492  0.27495454  1.0
  C  C68  1  0.65511493  0.16552001  0.19468207  1.0
  C  C69  1  0.46057291  0.33452396  0.80535189  1.0
  C  C70  1  0.34488217  0.83448393  0.80532130  1.0
  C  C71  1  0.53943003  0.66547347  0.19464650  1.0
  C  C72  1  0.65513726  0.99610120  0.08414028  1.0
  C  C73  1  0.57142295  0.50380802  0.91594111  1.0
  C  C74  1  0.34486007  0.00390553  0.91586461  1.0
  C  C75  1  0.42858870  0.49619220  0.08405835  1.0
  C  C76  1  0.71585276  0.06044288  0.15946741  1.0
  C  C77  1  0.55675227  0.43947729  0.84060223  1.0
  C  C78  1  0.28414652  0.93956199  0.84053639  1.0
  C  C79  1  0.44325166  0.56051921  0.15939562  1.0
  C  C80  1  0.53171718  0.20380115  0.15233429  1.0
  C  C81  1  0.37942765  0.29626820  0.84768599  1.0
  C  C82  1  0.46827892  0.79620371  0.84767014  1.0
  C  C83  1  0.62057983  0.70373294  0.15231623  1.0
  C  C84  1  0.47175791  0.13958244  0.07689693  1.0
  C  C85  1  0.39494012  0.36047272  0.92312235  1.0
  C  C86  1  0.52823951  0.86042523  0.92310654  1.0
  C  C87  1  0.60507136  0.63952563  0.07687997  1.0
  C  C88  1  0.96215129  0.58691926  0.34578708  1.0
  C  C89  1  0.61607106  0.91286438  0.65410692  1.0
  C  C90  1  0.03784171  0.41307351  0.65421083  1.0
  C  C91  1  0.38392732  0.08712932  0.34589186  1.0
  C  C92  1  0.68115587  0.60822189  0.44502461  1.0
  C  C93  1  0.23607206  0.89178406  0.55501728  1.0
  C  C94  1  0.31884745  0.39178020  0.55497614  1.0
  C  C95  1  0.76392573  0.10821523  0.44498176  1.0
  C  C96  1  0.83171228  0.75913710  0.51517148  1.0
  C  C97  1  0.31618240  0.74081683  0.48475799  1.0
  C  C98  1  0.16829105  0.24086499  0.48482769  1.0
  C  C99  1  0.68381092  0.25917968  0.51523896  1.0
  C  C100  1  0.14743507  0.59085360  0.28190253  1.0
  C  C101  1  0.86528849  0.90920228  0.71799444  1.0
  C  C102  1  0.85256362  0.40914383  0.71809740  1.0
  C  C103  1  0.13470808  0.09079515  0.28200415  1.0
  C  C104  1  0.00263244  0.77317633  0.30744495  1.0
  C  C105  1  0.69525588  0.72665498  0.69245396  1.0
  C  C106  1  0.99736837  0.22682110  0.69255368  1.0
  C  C107  1  0.30473888  0.27334618  0.30754444  1.0
  N  N108  1  0.79992378  0.55713347  0.47414793  1.0
  N  N109  1  0.32574055  0.94283169  0.52586208  1.0
  N  N110  1  0.20007947  0.44286768  0.52585214  1.0
  N  N111  1  0.67425815  0.05716574  0.47413680  1.0
  N  N112  1  0.03335875  0.64773859  0.31240693  1.0
  N  N113  1  0.72076857  0.85214044  0.68746973  1.0
  N  N114  1  0.96663994  0.35225884  0.68759247  1.0
  N  N115  1  0.27922817  0.14785886  0.31252865  1.0
  N  N116  1  0.69667742  0.73502098  0.47010892  1.0
  N  N117  1  0.22632863  0.76499673  0.52988918  1.0
  N  N118  1  0.30332681  0.26497925  0.52989061  1.0
  N  N119  1  0.77366803  0.23500164  0.47010957  1.0
  N  N120  1  0.89657727  0.65572392  0.51915986  1.0
  N  N121  1  0.37720474  0.84420212  0.48077882  1.0
  N  N122  1  0.10342605  0.34427816  0.48084036  1.0
  N  N123  1  0.62278851  0.15579345  0.51921798  1.0
  N  N124  1  0.55926496  0.54154773  0.39767115  1.0
  N  N125  1  0.16163552  0.95850352  0.60241100  1.0
  N  N126  1  0.44073828  0.45845342  0.60232944  1.0
  N  N127  1  0.83836545  0.04149577  0.39758847  1.0
  O  O128  1  0.84518837  0.20947165  0.30780970  1.0
  O  O129  1  0.53745042  0.29037329  0.69218272  1.0
  O  O130  1  0.15480988  0.79053323  0.69219186  1.0
  O  O131  1  0.46254836  0.70962507  0.30781579  1.0
  O  O132  1  0.98735794  0.48023089  0.35318242  1.0
  O  O133  1  0.63380809  0.01954219  0.64666236  1.0
  O  O134  1  0.01263267  0.51977121  0.64681451  1.0
  O  O135  1  0.36619314  0.98045991  0.35333495  1.0
  O  O136  1  0.65652285  0.32399313  0.30770123  1.0
  O  O137  1  0.34848871  0.17628771  0.69231783  1.0
  O  O138  1  0.34346958  0.67600613  0.69230447  1.0
  O  O139  1  0.65151331  0.82371158  0.30768284  1.0
