# generated using pymatgen
data_LaH16C24S3NO7
_symmetry_space_group_name_H-M   'P 1'
_cell_length_a   8.25713710
_cell_length_b   14.03002038
_cell_length_c   14.03002200
_cell_angle_alpha   71.34411583
_cell_angle_beta   87.76652290
_cell_angle_gamma   87.76590226
_symmetry_Int_Tables_number   1
_chemical_formula_structural   LaH16C24S3NO7
_chemical_formula_sum   'La2 H32 C48 S6 N2 O14'
_cell_volume   1538.17282913
_cell_formula_units_Z   2
loop_
 _symmetry_equiv_pos_site_id
 _symmetry_equiv_pos_as_xyz
  1  'x, y, z'
loop_
 _atom_site_type_symbol
 _atom_site_label
 _atom_site_symmetry_multiplicity
 _atom_site_fract_x
 _atom_site_fract_y
 _atom_site_fract_z
 _atom_site_occupancy
  La  La0  1  0.99886114  0.22021182  0.25138993  1.0
  La  La1  1  0.49885927  0.25139514  0.22020635  1.0
  H  H2  1  0.49518406  0.60655063  0.42890433  1.0
  H  H3  1  0.99517677  0.42890214  0.60655141  1.0
  H  H4  1  0.57088887  0.39979224  0.72581191  1.0
  H  H5  1  0.07089151  0.72581042  0.39979119  1.0
  H  H6  1  0.73191150  0.70390286  0.64809624  1.0
  H  H7  1  0.23191317  0.64809356  0.70390190  1.0
  H  H8  1  0.53468241  0.95955381  0.25073603  1.0
  H  H9  1  0.03467951  0.25073638  0.95955375  1.0
  H  H10  1  0.46215747  0.76883328  0.34196509  1.0
  H  H11  1  0.96215868  0.34196326  0.76883181  1.0
  H  H12  1  0.20933578  0.20941918  0.60547431  1.0
  H  H13  1  0.70933495  0.60547159  0.20942053  1.0
  H  H14  1  0.36930613  0.31346506  0.69788539  1.0
  H  H15  1  0.86930290  0.69788661  0.31346405  1.0
  H  H16  1  0.95993644  0.57326097  0.97065877  1.0
  H  H17  1  0.45992766  0.97065956  0.57326542  1.0
  H  H18  1  0.87560734  0.65762283  0.78150764  1.0
  H  H19  1  0.37559907  0.78150869  0.65762705  1.0
  H  H20  1  0.79975484  0.12866332  0.06293045  1.0
  H  H21  1  0.29976996  0.06294658  0.12866188  1.0
  H  H22  1  0.78164204  0.91710466  0.99833720  1.0
  H  H23  1  0.28164956  0.99833419  0.91711317  1.0
  H  H24  1  0.67126836  0.02619806  0.00811602  1.0
  H  H25  1  0.17128070  0.00812015  0.02620849  1.0
  H  H26  1  0.64244705  0.90647831  0.10168675  1.0
  H  H27  1  0.14245132  0.10168728  0.90648477  1.0
  H  H28  1  0.04254431  0.91956027  0.21130149  1.0
  H  H29  1  0.54255606  0.21130263  0.91954994  1.0
  H  H30  1  0.00783358  0.84544620  0.13040294  1.0
  H  H31  1  0.50783893  0.13039630  0.84544707  1.0
  H  H32  1  0.86661219  0.84482666  0.23058333  1.0
  H  H33  1  0.36661431  0.23058176  0.84481914  1.0
  C  C34  1  0.61942397  0.66592119  0.52946763  1.0
  C  C35  1  0.11942236  0.52946709  0.66592080  1.0
  C  C36  1  0.54106666  0.59062521  0.50434216  1.0
  C  C37  1  0.04106298  0.50434034  0.59062452  1.0
  C  C38  1  0.51950838  0.49512192  0.57507616  1.0
  C  C39  1  0.01950806  0.57507571  0.49512026  1.0
  C  C40  1  0.58163939  0.47497319  0.67161622  1.0
  C  C41  1  0.08164114  0.67161482  0.47497251  1.0
  C  C42  1  0.65897612  0.54916425  0.69931423  1.0
  C  C43  1  0.15898341  0.69931287  0.54916145  1.0
  C  C44  1  0.67564163  0.64465963  0.62732116  1.0
  C  C45  1  0.17564664  0.62731930  0.64465763  1.0
  C  C46  1  0.63662219  0.76598478  0.45578230  1.0
  C  C47  1  0.13662173  0.45577901  0.76598414  1.0
  C  C48  1  0.70542490  0.94459227  0.36812551  1.0
  C  C49  1  0.20542088  0.36812572  0.94459368  1.0
  C  C50  1  0.59038139  0.91033669  0.31860609  1.0
  C  C51  1  0.09037770  0.31860776  0.91033888  1.0
  C  C52  1  0.55281051  0.80878300  0.36740737  1.0
  C  C53  1  0.05280814  0.36740584  0.80878401  1.0
  C  C54  1  0.77477933  0.04501266  0.33885038  1.0
  C  C55  1  0.27477440  0.33885448  0.04501315  1.0
  C  C56  1  0.43123865  0.41823757  0.55031946  1.0
  C  C57  1  0.93123254  0.55031938  0.41823729  1.0
  C  C58  1  0.27906611  0.32112325  0.46481624  1.0
  C  C59  1  0.77906172  0.46481355  0.32112544  1.0
  C  C60  1  0.27440317  0.27806274  0.56849994  1.0
  C  C61  1  0.77439738  0.56849647  0.27806404  1.0
  C  C62  1  0.36205423  0.33260225  0.61678619  1.0
  C  C63  1  0.86204785  0.61678599  0.33260057  1.0
  C  C64  1  0.20210289  0.28454476  0.39105783  1.0
  C  C65  1  0.70210039  0.39105440  0.28454686  1.0
  C  C66  1  0.72339657  0.52865254  0.79968476  1.0
  C  C67  1  0.22339630  0.79968305  0.52865085  1.0
  C  C68  1  0.80391374  0.45065213  0.97781624  1.0
  C  C69  1  0.30391569  0.97781281  0.45065210  1.0
  C  C70  1  0.87438349  0.54271093  0.93178242  1.0
  C  C71  1  0.37438404  0.93178031  0.54271219  1.0
  C  C72  1  0.82840610  0.58715439  0.83131046  1.0
  C  C73  1  0.32840094  0.83130882  0.58715587  1.0
  C  C74  1  0.83823344  0.37921961  0.07774223  1.0
  C  C75  1  0.33823679  0.07773981  0.37921984  1.0
  C  C76  1  0.88662355  0.07111169  0.10701187  1.0
  C  C77  1  0.38664824  0.10702244  0.07110978  1.0
  C  C78  1  0.73191140  0.95545087  0.05078199  1.0
  C  C79  1  0.23192042  0.05078235  0.95545743  1.0
  C  C80  1  0.95067693  0.89150951  0.17349230  1.0
  C  C81  1  0.45068336  0.17349306  0.89150436  1.0
  S  S82  1  0.76727394  0.85124897  0.47453406  1.0
  S  S83  1  0.26726538  0.47453366  0.85125067  1.0
  S  S84  1  0.39036373  0.42863497  0.42772438  1.0
  S  S85  1  0.89036277  0.42772283  0.42863524  1.0
  S  S86  1  0.67907543  0.42047509  0.89699266  1.0
  S  S87  1  0.17908421  0.89699051  0.42047058  1.0
  N  N88  1  0.86061960  0.97683159  0.10777739  1.0
  N  N89  1  0.36063210  0.10778153  0.97683039  1.0
  O  O90  1  0.71187734  0.11432503  0.26437952  1.0
  O  O91  1  0.21188074  0.26438201  0.11432632  1.0
  O  O92  1  0.89815251  0.05974476  0.38273132  1.0
  O  O93  1  0.39814135  0.38273585  0.05974795  1.0
  O  O94  1  0.08857150  0.22258310  0.42046262  1.0
  O  O95  1  0.58857086  0.42045832  0.22258338  1.0
  O  O96  1  0.24891888  0.31784494  0.29724538  1.0
  O  O97  1  0.74892525  0.29724432  0.31784294  1.0
  O  O98  1  0.94468583  0.40006826  0.13029195  1.0
  O  O99  1  0.44468309  0.13028905  0.40007251  1.0
  O  O100  1  0.76536387  0.29402182  0.10735569  1.0
  O  O101  1  0.26537160  0.10735362  0.29401865  1.0
  O  O102  1  0.00005772  0.09277939  0.15214904  1.0
  O  O103  1  0.50006803  0.15216276  0.09277203  1.0
