# generated using pymatgen
data_ZnH28C31S2(NO6)2
_symmetry_space_group_name_H-M   'P 1'
_cell_length_a   16.83638294
_cell_length_b   18.30285050
_cell_length_c   19.39145121
_cell_angle_alpha   89.89230434
_cell_angle_beta   88.49431731
_cell_angle_gamma   86.70133539
_symmetry_Int_Tables_number   1
_chemical_formula_structural   ZnH28C31S2(NO6)2
_chemical_formula_sum   'Zn2 H56 C62 S4 N4 O24'
_cell_volume   5963.58863349
_cell_formula_units_Z   2
loop_
 _symmetry_equiv_pos_site_id
 _symmetry_equiv_pos_as_xyz
  1  'x, y, z'
loop_
 _atom_site_type_symbol
 _atom_site_label
 _atom_site_symmetry_multiplicity
 _atom_site_fract_x
 _atom_site_fract_y
 _atom_site_fract_z
 _atom_site_occupancy
  Zn  Zn0  1  0.50271776  0.57113105  0.48660941  1.0
  Zn  Zn1  1  0.49467204  0.41473052  0.48514059  1.0
  H  H2  1  0.74851304  0.58386975  0.43732185  1.0
  H  H3  1  0.59017006  0.15661044  0.41195195  1.0
  H  H4  1  0.59668662  0.67963067  0.55771793  1.0
  H  H5  1  0.58615924  0.29394345  0.41404762  1.0
  H  H6  1  0.50360238  0.06211672  0.60357017  1.0
  H  H7  1  0.49292486  0.92352316  0.38523822  1.0
  H  H8  1  0.10091478  0.63263660  0.50385664  1.0
  H  H9  1  0.87679781  0.39746568  0.58939327  1.0
  H  H10  1  0.47438094  0.38554025  0.26674085  1.0
  H  H11  1  0.53396693  0.60776308  0.70123104  1.0
  H  H12  1  0.48342054  0.39219542  0.13783940  1.0
  H  H13  1  0.25441730  0.41318837  0.58647327  1.0
  H  H14  1  0.52430864  0.60671103  0.83050318  1.0
  H  H15  1  0.45076118  0.61926826  0.27679461  1.0
  H  H16  1  0.53545388  0.37411519  0.69967093  1.0
  H  H17  1  0.37489388  0.56511739  0.03036807  1.0
  H  H18  1  0.62548040  0.43668869  0.94172477  1.0
  H  H19  1  0.45738349  0.85584455  0.69102996  1.0
  H  H20  1  0.41163197  0.85768053  0.60920626  1.0
  H  H21  1  0.40302871  0.98379811  0.71394793  1.0
  H  H22  1  0.35881347  0.98703322  0.63210197  1.0
  H  H23  1  0.27299280  0.88331169  0.66700223  1.0
  H  H24  1  0.40132788  0.55370835  0.90457102  1.0
  H  H25  1  0.25768693  0.95854676  0.72425113  1.0
  H  H26  1  0.31677721  0.88017199  0.74936582  1.0
  H  H27  1  0.43348747  0.13658630  0.30580570  1.0
  H  H28  1  0.39745290  0.13774797  0.39299875  1.0
  H  H29  1  0.37563046  0.01562233  0.28792155  1.0
  H  H30  1  0.34186804  0.01454334  0.37515363  1.0
  H  H31  1  0.25293419  0.12827732  0.35481476  1.0
  H  H32  1  0.23043509  0.05694912  0.29802989  1.0
  H  H33  1  0.28650154  0.12990285  0.26728321  1.0
  H  H34  1  0.97211182  0.62372214  0.54202332  1.0
  H  H35  1  0.59960271  0.44890490  0.06760682  1.0
  H  H36  1  0.06386583  0.42641767  0.71902465  1.0
  H  H37  1  0.23743351  0.72509415  0.42161965  1.0
  H  H38  1  0.15907787  0.66401178  0.41743691  1.0
  H  H39  1  0.32751125  0.62980979  0.35740707  1.0
  H  H40  1  0.24546725  0.57562134  0.34864134  1.0
  H  H41  1  0.17371162  0.67548703  0.27979851  1.0
  H  H42  1  0.26767211  0.65025526  0.24096359  1.0
  H  H43  1  0.25428483  0.73237019  0.29003300  1.0
  H  H44  1  0.75689487  0.36975871  0.66245037  1.0
  H  H45  1  0.80648368  0.30346353  0.60611840  1.0
  H  H46  1  0.41160010  0.69263089  0.42152924  1.0
  H  H47  1  0.62681416  0.31135853  0.63608255  1.0
  H  H48  1  0.68222491  0.24178487  0.59034000  1.0
  H  H49  1  0.75851784  0.20896704  0.70037960  1.0
  H  H50  1  0.65591589  0.19672515  0.70952638  1.0
  H  H51  1  0.69795209  0.27550022  0.74592042  1.0
  H  H52  1  0.40213901  0.73586521  0.20638380  1.0
  H  H53  1  0.57623630  0.26050481  0.76828850  1.0
  H  H54  1  0.40749212  0.30464614  0.56481485  1.0
  H  H55  1  0.40480096  0.82984318  0.42376478  1.0
  H  H56  1  0.40568198  0.16801010  0.57159552  1.0
  H  H57  1  0.59770057  0.81631920  0.56686429  1.0
  C  C58  1  0.53184312  0.49075132  0.61607772  1.0
  C  C59  1  0.53616063  0.42451652  0.72906965  1.0
  C  C60  1  0.46182918  0.50214140  0.27936902  1.0
  C  C61  1  0.53575473  0.49072191  0.69311259  1.0
  C  C62  1  0.43010859  0.53753761  0.01124104  1.0
  C  C63  1  0.57059400  0.46477586  0.96101948  1.0
  C  C64  1  0.44515306  0.53126675  0.94056333  1.0
  C  C65  1  0.55571297  0.47131448  0.03168533  1.0
  C  C66  1  0.51499301  0.49438596  0.91463055  1.0
  C  C67  1  0.48549910  0.50760091  0.05772944  1.0
  C  C68  1  0.45177799  0.72283516  0.45243231  1.0
  C  C69  1  0.46503236  0.49878456  0.35651938  1.0
  C  C70  1  0.44736361  0.26932272  0.53259330  1.0
  C  C71  1  0.44876382  0.79866252  0.45391701  1.0
  C  C72  1  0.44700867  0.19353873  0.53604313  1.0
  C  C73  1  0.34958697  0.50372223  0.52247384  1.0
  C  C74  1  0.64904618  0.48204240  0.46794374  1.0
  C  C75  1  0.50124184  0.83464612  0.49554105  1.0
  C  C76  1  0.49784440  0.15081360  0.49166666  1.0
  C  C77  1  0.55550076  0.79124030  0.53400163  1.0
  C  C78  1  0.54914306  0.18733483  0.44687434  1.0
  C  C79  1  0.55533777  0.71557528  0.52920121  1.0
  C  C80  1  0.47571233  0.44201319  0.16864169  1.0
  C  C81  1  0.54674947  0.26323712  0.44724408  1.0
  C  C82  1  0.50234290  0.95602852  0.55803768  1.0
  C  C83  1  0.49374581  0.02948318  0.43078014  1.0
  C  C84  1  0.50050701  0.03224444  0.55518292  1.0
  C  C85  1  0.49432188  0.95339767  0.43375148  1.0
  C  C86  1  0.49731730  0.07022721  0.49234447  1.0
  C  C87  1  0.49949666  0.91527137  0.49643520  1.0
  C  C88  1  0.26151925  0.51594955  0.53475388  1.0
  C  C89  1  0.73326438  0.48337195  0.49099583  1.0
  C  C90  1  0.22023457  0.46134883  0.56822822  1.0
  C  C91  1  0.52826307  0.55560099  0.80144609  1.0
  C  C92  1  0.77712973  0.54268896  0.47045315  1.0
  C  C93  1  0.13776599  0.46552348  0.57767923  1.0
  C  C94  1  0.85423654  0.55147300  0.49138645  1.0
  C  C95  1  0.09483118  0.52889135  0.55299955  1.0
  C  C96  1  0.89035362  0.49684362  0.53474963  1.0
  C  C97  1  0.13616972  0.58505979  0.52204084  1.0
  C  C98  1  0.84599849  0.43815483  0.55717802  1.0
  C  C99  1  0.21859777  0.57902211  0.51049568  1.0
  C  C100  1  0.76759669  0.43109142  0.53727609  1.0
  C  C101  1  0.47039076  0.43802160  0.24012995  1.0
  C  C102  1  0.47200502  0.50934561  0.13350871  1.0
  C  C103  1  0.53361822  0.55646880  0.72979081  1.0
  C  C104  1  0.43707179  0.89192550  0.64887705  1.0
  C  C105  1  0.37566983  0.95026664  0.67500919  1.0
  C  C106  1  0.30177106  0.91616584  0.70555979  1.0
  C  C107  1  0.41792169  0.10172100  0.34976798  1.0
  C  C108  1  0.35346972  0.05083086  0.33104965  1.0
  C  C109  1  0.27666520  0.09385953  0.31175796  1.0
  C  C110  1  0.22414599  0.66711946  0.41725097  1.0
  C  C111  1  0.26248654  0.63266774  0.35214702  1.0
  C  C112  1  0.23825347  0.67492515  0.28725524  1.0
  C  C113  1  0.52734450  0.48983112  0.83885558  1.0
  C  C114  1  0.74892479  0.33324855  0.61812972  1.0
  C  C115  1  0.68465399  0.28011881  0.63380109  1.0
  C  C116  1  0.69972831  0.23849484  0.70105079  1.0
  C  C117  1  0.45986015  0.57343361  0.17392467  1.0
  C  C118  1  0.53362060  0.42379568  0.80091765  1.0
  C  C119  1  0.45561266  0.56977251  0.24577517  1.0
  S  S120  1  0.90075550  0.62987493  0.45728719  1.0
  S  S121  1  0.09868899  0.38743084  0.61928724  1.0
  S  S122  1  0.45361915  0.66083116  0.13260008  1.0
  S  S123  1  0.53556506  0.33793203  0.84510935  1.0
  N  N124  1  0.01203238  0.54300534  0.55007569  1.0
  N  N125  1  0.97009814  0.48797315  0.55288968  1.0
  N  N126  1  0.50414319  0.68197802  0.48943240  1.0
  N  N127  1  0.49595105  0.30351907  0.48862795  1.0
  O  O128  1  0.54528965  0.55019685  0.58495681  1.0
  O  O129  1  0.49227671  0.06263463  0.36687993  1.0
  O  O130  1  0.96758086  0.60459459  0.41347977  1.0
  O  O131  1  0.83996673  0.67954385  0.43055117  1.0
  O  O132  1  0.93289536  0.66570096  0.52451840  1.0
  O  O133  1  0.05444277  0.34559912  0.57301825  1.0
  O  O134  1  0.16295079  0.35263409  0.65750376  1.0
  O  O135  1  0.03514320  0.42340062  0.67590560  1.0
  O  O136  1  0.25830460  0.63167286  0.47740438  1.0
  O  O137  1  0.72292277  0.37648886  0.56010090  1.0
  O  O138  1  0.52452152  0.66974670  0.09174140  1.0
  O  O139  1  0.47587494  0.43552719  0.38307487  1.0
  O  O140  1  0.37547312  0.67351457  0.10412208  1.0
  O  O141  1  0.45696803  0.71678762  0.19744454  1.0
  O  O142  1  0.61478862  0.32175787  0.87018249  1.0
  O  O143  1  0.46657095  0.33497133  0.88962379  1.0
  O  O144  1  0.52318950  0.28058667  0.78315988  1.0
  O  O145  1  0.51351653  0.43124106  0.58834780  1.0
  O  O146  1  0.45856645  0.55933081  0.38917670  1.0
  O  O147  1  0.39119016  0.55880786  0.52847017  1.0
  O  O148  1  0.61613879  0.42141733  0.46835130  1.0
  O  O149  1  0.37435305  0.43869203  0.50684239  1.0
  O  O150  1  0.61598051  0.54396357  0.45152713  1.0
  O  O151  1  0.50910385  0.92242937  0.62149749  1.0
