# generated using pymatgen
data_Zn4H54C83N20
_symmetry_space_group_name_H-M   'P 1'
_cell_length_a   18.72993177
_cell_length_b   19.18937944
_cell_length_c   21.37841546
_cell_angle_alpha   106.49721518
_cell_angle_beta   105.38841038
_cell_angle_gamma   110.94217427
_symmetry_Int_Tables_number   1
_chemical_formula_structural   Zn4H54C83N20
_chemical_formula_sum   'Zn4 H54 C83 N20'
_cell_volume   6276.84468459
_cell_formula_units_Z   1
loop_
 _symmetry_equiv_pos_site_id
 _symmetry_equiv_pos_as_xyz
  1  'x, y, z'
loop_
 _atom_site_type_symbol
 _atom_site_label
 _atom_site_symmetry_multiplicity
 _atom_site_fract_x
 _atom_site_fract_y
 _atom_site_fract_z
 _atom_site_occupancy
  Zn  Zn0  1  0.86728119  0.89253252  0.46558974  1.0
  Zn  Zn1  1  0.10054248  0.09940652  0.49557755  1.0
  Zn  Zn2  1  0.07989562  0.03019195  0.62884872  1.0
  Zn  Zn3  1  0.89515152  0.00746204  0.37811196  1.0
  H  H4  1  0.87055071  0.91613438  0.70802423  1.0
  H  H5  1  0.21686196  0.03081121  0.46078931  1.0
  H  H6  1  0.09812062  0.88261193  0.62175315  1.0
  H  H7  1  0.91155236  0.87634102  0.26300177  1.0
  H  H8  1  0.17294031  0.05716635  0.36200248  1.0
  H  H9  1  0.75665836  0.85099476  0.20888296  1.0
  H  H10  1  0.27490062  0.04839287  0.67622379  1.0
  H  H11  1  0.36933052  0.13363437  0.51376394  1.0
  H  H12  1  0.39213229  0.01580743  0.65686263  1.0
  H  H13  1  0.52505147  0.01106855  0.70921538  1.0
  H  H14  1  0.08669437  0.25382775  0.57969900  1.0
  H  H15  1  0.65796568  0.02068533  0.70335204  1.0
  H  H16  1  0.75049878  0.03834468  0.63849805  1.0
  H  H17  1  0.72837896  0.15770711  0.49616855  1.0
  H  H18  1  0.62162098  0.20595238  0.47681117  1.0
  H  H19  1  0.48770891  0.19467074  0.48136388  1.0
  H  H20  1  0.10251444  0.75343860  0.58150788  1.0
  H  H21  1  0.85588372  0.64731827  0.57921781  1.0
  H  H22  1  0.79401958  0.50743350  0.57585788  1.0
  H  H23  1  0.79654626  0.37501995  0.55432358  1.0
  H  H24  1  0.86398372  0.28682049  0.52057121  1.0
  H  H25  1  0.18620803  0.18982982  0.75682593  1.0
  H  H26  1  0.11593092  0.39888818  0.53573801  1.0
  H  H27  1  0.19261081  0.54954272  0.57286911  1.0
  H  H28  1  0.18789236  0.68063635  0.59029913  1.0
  H  H29  1  0.31962869  0.26926298  0.84840549  1.0
  H  H30  1  0.46075611  0.36032539  0.94747703  1.0
  H  H31  1  0.67189251  0.47412898  0.12565534  1.0
  H  H32  1  0.74125556  0.60255804  0.23681384  1.0
  H  H33  1  0.42125842  0.32562018  0.69932990  1.0
  H  H34  1  0.66840048  0.61248368  0.99930223  1.0
  H  H35  1  0.56106208  0.41914038  0.79951755  1.0
  H  H36  1  0.79075686  0.09735714  0.43964066  1.0
  H  H37  1  0.73731307  0.74180223  0.10973585  1.0
  H  H38  1  0.92269892  0.81666922  0.16364115  1.0
  H  H39  1  0.92703562  0.77009122  0.04503797  1.0
  H  H40  1  0.86673906  0.77153219  0.85562873  1.0
  H  H41  1  0.86599889  0.82664597  0.76332020  1.0
  H  H42  1  0.18840121  0.98274483  0.25896600  1.0
  H  H43  1  0.13536938  0.88142789  0.94084438  1.0
  H  H44  1  0.19142900  0.93337567  0.13921619  1.0
  H  H45  1  0.13580855  0.93660948  0.84925106  1.0
  H  H46  1  0.28901782  0.25087567  0.60897078  1.0
  H  H47  1  0.84821438  0.00555011  0.60032723  1.0
  H  H48  1  0.88875381  0.18765148  0.38011813  1.0
  H  H49  1  0.13699712  0.99986519  0.77175417  1.0
  H  H50  1  0.81236558  0.72591960  0.33995109  1.0
  H  H51  1  0.63139344  0.64777332  0.44258736  1.0
  H  H52  1  0.66300198  0.58821479  0.48246168  1.0
  H  H53  1  0.62826382  0.65443867  0.52626486  1.0
  H  H54  1  0.78607686  0.71838264  0.58372271  1.0
  H  H55  1  0.75488073  0.77809379  0.54540182  1.0
  H  H56  1  0.77525785  0.71541141  0.43710578  1.0
  H  H57  1  0.80256861  0.65027114  0.47086830  1.0
  C  C58  1  0.93587451  0.94361572  0.71582847  1.0
  C  C59  1  0.98618574  0.25335104  0.49360737  1.0
  C  C60  1  0.27496694  0.24357691  0.70916030  1.0
  C  C61  1  0.79924489  0.06698860  0.53528226  1.0
  C  C62  1  0.80270813  0.76765082  0.31753817  1.0
  C  C63  1  0.21746608  0.03359303  0.51234978  1.0
  C  C64  1  0.03187283  0.85588580  0.58839776  1.0
  C  C65  1  0.97368207  0.92707148  0.29731641  1.0
  C  C66  1  0.10703777  0.01906106  0.34770917  1.0
  C  C67  1  0.89477845  0.77612856  0.52505840  1.0
  C  C68  1  0.77473924  0.83185926  0.25112870  1.0
  C  C69  1  0.03849058  0.22504397  0.52579103  1.0
  C  C70  1  0.24673259  0.04059753  0.62161530  1.0
  C  C71  1  0.77110828  0.75554272  0.24587801  1.0
  C  C72  1  0.28349052  0.04878566  0.57297050  1.0
  C  C73  1  0.96738861  0.77621836  0.56608784  1.0
  C  C74  1  0.04731983  0.94692663  0.28570751  1.0
  C  C75  1  0.40559966  0.11335972  0.54648419  1.0
  C  C76  1  0.37010266  0.07046780  0.58292334  1.0
  C  C77  1  0.41887076  0.04856000  0.62783405  1.0
  C  C78  1  0.49973620  0.06360856  0.63324407  1.0
  C  C79  1  0.53305212  0.10221081  0.59206384  1.0
  C  C80  1  0.19897327  0.19727165  0.71177294  1.0
  C  C81  1  0.48607216  0.12978432  0.55009018  1.0
  C  C82  1  0.54893469  0.03753731  0.67554018  1.0
  C  C83  1  0.62250334  0.04293610  0.67236100  1.0
  C  C84  1  0.65364512  0.07501930  0.62663266  1.0
  C  C85  1  0.60980542  0.10841542  0.58921532  1.0
  C  C86  1  0.64053257  0.14247291  0.54465113  1.0
  C  C87  1  0.59625296  0.17691316  0.50855623  1.0
  C  C88  1  0.52210482  0.17053491  0.51096029  1.0
  C  C89  1  0.72075690  0.06853884  0.61301610  1.0
  C  C90  1  0.74547135  0.09370533  0.56321579  1.0
  C  C91  1  0.81031631  0.06834917  0.47274203  1.0
  C  C92  1  0.70824177  0.13506446  0.53314529  1.0
  C  C93  1  0.05131502  0.70323202  0.58170141  1.0
  C  C94  1  0.97682289  0.70753979  0.57689272  1.0
  C  C95  1  0.91194908  0.64281637  0.57804996  1.0
  C  C96  1  0.91656640  0.57086937  0.57616571  1.0
  C  C97  1  0.98999549  0.56458772  0.57528618  1.0
  C  C98  1  0.05965504  0.63358168  0.58166015  1.0
  C  C99  1  0.84842693  0.50123322  0.57144501  1.0
  C  C100  1  0.84983786  0.42794440  0.55948761  1.0
  C  C101  1  0.92005536  0.41806804  0.55213520  1.0
  C  C102  1  0.25123930  0.22774495  0.63624956  1.0
  C  C103  1  0.99210382  0.48892155  0.56404434  1.0
  C  C104  1  0.06473045  0.48234864  0.56065690  1.0
  C  C105  1  0.13640231  0.55446219  0.57320777  1.0
  C  C106  1  0.13383608  0.62682938  0.58293239  1.0
  C  C107  1  0.91952640  0.34142779  0.53114995  1.0
  C  C108  1  0.98875756  0.33394259  0.52325446  1.0
  C  C109  1  0.06175249  0.40488108  0.54097877  1.0
  C  C110  1  0.74140357  0.68161858  0.18165368  1.0
  C  C111  1  0.72367406  0.68342239  0.11387897  1.0
  C  C112  1  0.68596904  0.61176619  0.05187967  1.0
  C  C113  1  0.83722016  0.02068760  0.55451219  1.0
  C  C114  1  0.66425996  0.53523722  0.05569028  1.0
  C  C115  1  0.68779833  0.53352390  0.12321959  1.0
  C  C116  1  0.72620881  0.60563011  0.18507259  1.0
  C  C117  1  0.45096320  0.35122336  0.89259970  1.0
  C  C118  1  0.37243358  0.30098570  0.83700627  1.0
  C  C119  1  0.51941933  0.39632443  0.87991792  1.0
  C  C120  1  0.35881507  0.29251777  0.76644045  1.0
  C  C121  1  0.42903805  0.33333333  0.75364272  1.0
  C  C122  1  0.50770536  0.38516601  0.80930434  1.0
  C  C123  1  0.00120339  0.89033311  0.80201151  1.0
  C  C124  1  0.93714031  0.19081607  0.42399408  1.0
  C  C125  1  0.07640981  0.90023527  0.85018849  1.0
  C  C126  1  0.07683909  0.86922527  0.90118030  1.0
  C  C127  1  0.00104094  0.82604440  0.90584815  1.0
  C  C128  1  0.92513303  0.80709698  0.85281314  1.0
  C  C129  1  0.92532556  0.83876022  0.80191904  1.0
  C  C130  1  0.98396738  0.81592555  0.09240994  1.0
  C  C131  1  0.98219170  0.84318339  0.15903604  1.0
  C  C132  1  0.05921373  0.85173178  0.08446302  1.0
  C  C133  1  0.05441780  0.90722972  0.21998098  1.0
  C  C134  1  0.13079427  0.93566910  0.21259702  1.0
  C  C135  1  0.07180533  0.98657342  0.74967940  1.0
  C  C136  1  0.13329135  0.90801614  0.14602884  1.0
  C  C137  1  0.00281341  0.93548705  0.75773695  1.0
  C  C138  1  0.80533130  0.71131155  0.48698208  1.0
  C  C139  1  0.75423568  0.71796218  0.53216021  1.0
  C  C140  1  0.66429975  0.64840235  0.49388499  1.0
  N  N141  1  0.96158630  0.99394329  0.68527491  1.0
  N  N142  1  0.14680901  0.01859861  0.52403067  1.0
  N  N143  1  0.00134458  0.90111006  0.56420090  1.0
  N  N144  1  0.98786389  0.98296360  0.36025404  1.0
  N  N145  1  0.07092018  0.04017543  0.39146421  1.0
  N  N146  1  0.91711716  0.85164367  0.52527184  1.0
  N  N147  1  0.80651065  0.88516168  0.31996035  1.0
  N  N148  1  0.16605204  0.02305229  0.59185512  1.0
  N  N149  1  0.60755188  0.45980123  0.99661648  1.0
  N  N150  1  0.59477087  0.46115764  0.93556632  1.0
  N  N151  1  0.99538768  0.81192999  0.96571251  1.0
  N  N152  1  0.02188864  0.15128698  0.47885735  1.0
  N  N153  1  0.06559187  0.84602524  0.01927313  1.0
  N  N154  1  0.13558168  0.15548870  0.64564198  1.0
  N  N155  1  0.84967220  0.02482789  0.45524403  1.0
  N  N156  1  0.16903763  0.17578306  0.59947161  1.0
  N  N157  1  0.86681335  0.99551700  0.50567703  1.0
  N  N158  1  0.95964301  0.13041416  0.41504759  1.0
  N  N159  1  0.04666983  0.02108284  0.70686313  1.0
  N  N160  1  0.82354962  0.84473191  0.36119291  1.0
