# generated using pymatgen
data_Zn2H22C27N7O8F
_symmetry_space_group_name_H-M   'P 1'
_cell_length_a   9.81195429
_cell_length_b   11.13797979
_cell_length_c   22.19436955
_cell_angle_alpha   89.71973127
_cell_angle_beta   89.71132676
_cell_angle_gamma   90.81028909
_symmetry_Int_Tables_number   1
_chemical_formula_structural   Zn2H22C27N7O8F
_chemical_formula_sum   'Zn4 H44 C54 N14 O16 F2'
_cell_volume   2425.21620662
_cell_formula_units_Z   2
loop_
 _symmetry_equiv_pos_site_id
 _symmetry_equiv_pos_as_xyz
  1  'x, y, z'
loop_
 _atom_site_type_symbol
 _atom_site_label
 _atom_site_symmetry_multiplicity
 _atom_site_fract_x
 _atom_site_fract_y
 _atom_site_fract_z
 _atom_site_occupancy
  Zn  Zn0  1  0.64376937  0.50348700  0.49684222  1.0
  Zn  Zn1  1  0.35412618  0.50162267  0.50247773  1.0
  Zn  Zn2  1  0.35473569  0.50546291  0.99288726  1.0
  Zn  Zn3  1  0.64349593  0.51071306  0.99717010  1.0
  H  H4  1  0.12104570  0.60590334  0.63296493  1.0
  H  H5  1  0.12802388  0.72968334  0.58169083  1.0
  H  H6  1  0.87089945  0.73275522  0.57944887  1.0
  H  H7  1  0.86438751  0.60635785  0.62948326  1.0
  H  H8  1  0.18098261  0.87806202  0.46324491  1.0
  H  H9  1  0.18612964  0.89248761  0.54329643  1.0
  H  H10  1  0.18064137  0.11680816  0.53262838  1.0
  H  H11  1  0.18797011  0.10113765  0.45257147  1.0
  H  H12  1  0.67642205  0.32514157  0.85849714  1.0
  H  H13  1  0.81697096  0.18271795  0.80126433  1.0
  H  H14  1  0.67733703  0.33277602  0.63370418  1.0
  H  H15  1  0.81771220  0.18673112  0.68872874  1.0
  H  H16  1  0.81329028  0.44034493  0.18570950  1.0
  H  H17  1  0.80816620  0.59874852  0.19484511  1.0
  H  H18  1  0.81291502  0.56989343  0.30755466  1.0
  H  H19  1  0.80684191  0.41105775  0.29654355  1.0
  H  H20  1  0.86350212  0.60883881  0.86662603  1.0
  H  H21  1  0.87430246  0.73779265  0.91401153  1.0
  H  H22  1  0.13091429  0.73059564  0.90909078  1.0
  H  H23  1  0.11981666  0.60349685  0.86060353  1.0
  H  H24  1  0.81189225  0.88904194  0.03263297  1.0
  H  H25  1  0.81441338  0.90479718  0.95252273  1.0
  H  H26  1  0.81719387  0.12938322  0.96262912  1.0
  H  H27  1  0.80908799  0.11274728  0.04273711  1.0
  H  H28  1  0.76594546  0.39054085  0.40340181  1.0
  H  H29  1  0.92300468  0.34969165  0.37683636  1.0
  H  H30  1  0.23649857  0.31755366  0.44180186  1.0
  H  H31  1  0.08215592  0.26729953  0.41541911  1.0
  H  H32  1  0.74923539  0.20907491  0.51368051  1.0
  H  H33  1  0.82293228  0.07367484  0.53040482  1.0
  H  H34  1  0.74449135  0.79332949  0.48512154  1.0
  H  H35  1  0.82487026  0.92947029  0.47288734  1.0
  H  H36  1  0.24847572  0.52878323  0.35331001  1.0
  H  H37  1  0.17596481  0.57886471  0.28766527  1.0
  H  H38  1  0.24623736  0.52945037  0.14240350  1.0
  H  H39  1  0.16373212  0.48724339  0.20851290  1.0
  H  H40  1  0.23727603  0.33494696  0.06541221  1.0
  H  H41  1  0.08500085  0.31639712  0.10683437  1.0
  H  H42  1  0.75709753  0.38349453  0.08565386  1.0
  H  H43  1  0.88099456  0.27745661  0.08159420  1.0
  H  H44  1  0.24773604  0.21155546  0.98482277  1.0
  H  H45  1  0.17701160  0.07769161  0.96221890  1.0
  H  H46  1  0.24989862  0.79322402  0.99223878  1.0
  H  H47  1  0.17093698  0.92328391  0.01450940  1.0
  C  C48  1  0.49598454  0.73601831  0.49676254  1.0
  C  C49  1  0.50696138  0.50357888  0.61567916  1.0
  C  C50  1  0.50141023  0.26380083  0.50003753  1.0
  C  C51  1  0.49455533  0.49656803  0.37959208  1.0
  C  C52  1  0.49859469  0.74207043  0.99110649  1.0
  C  C53  1  0.50605572  0.49624826  0.87892209  1.0
  C  C54  1  0.49920976  0.26943514  0.99938265  1.0
  C  C55  1  0.49436298  0.51550963  0.11468186  1.0
  C  C56  1  0.06776956  0.55762655  0.53924339  1.0
  C  C57  1  0.92702122  0.43096077  0.45798524  1.0
  C  C58  1  0.92826801  0.56015787  0.53697757  1.0
  C  C59  1  0.07364125  0.41916263  0.46456121  1.0
  C  C60  1  0.07746891  0.64339353  0.59164969  1.0
  C  C61  1  0.91546933  0.64508062  0.58967462  1.0
  C  C62  1  0.50216369  0.86909597  0.49843039  1.0
  C  C63  1  0.50443520  0.13097614  0.49904411  1.0
  C  C64  1  0.38297605  0.93719422  0.49936177  1.0
  C  C65  1  0.62720218  0.06493401  0.50169596  1.0
  C  C66  1  0.38388652  0.06137919  0.49714359  1.0
  C  C67  1  0.62613716  0.93605239  0.49784109  1.0
  C  C68  1  0.22898617  0.92700349  0.50066703  1.0
  C  C69  1  0.22968176  0.06848164  0.49544915  1.0
  C  C70  1  0.51066673  0.49429172  0.81132059  1.0
  C  C71  1  0.59536609  0.41302363  0.77909106  1.0
  C  C72  1  0.43085490  0.57276262  0.77954914  1.0
  C  C73  1  0.67680854  0.32746353  0.80940084  1.0
  C  C74  1  0.75540063  0.24811147  0.77731793  1.0
  C  C75  1  0.51140597  0.49867096  0.68325596  1.0
  C  C76  1  0.43124846  0.57500266  0.71611308  1.0
  C  C77  1  0.59568730  0.41523201  0.71431605  1.0
  C  C78  1  0.67748358  0.33179275  0.68278942  1.0
  C  C79  1  0.75580197  0.25034511  0.71366604  1.0
  C  C80  1  0.49093646  0.51711429  0.18140349  1.0
  C  C81  1  0.49033129  0.50147219  0.31282415  1.0
  C  C82  1  0.61068875  0.50932563  0.21563157  1.0
  C  C83  1  0.36764829  0.51531018  0.28001627  1.0
  C  C84  1  0.61016261  0.49941400  0.27781186  1.0
  C  C85  1  0.36772655  0.52066006  0.21515835  1.0
  C  C86  1  0.76487857  0.51276368  0.21105006  1.0
  C  C87  1  0.76434641  0.49708461  0.28173219  1.0
  C  C88  1  0.92887521  0.56678339  0.95905821  1.0
  C  C89  1  0.07147528  0.42705268  0.03315951  1.0
  C  C90  1  0.06826951  0.56097346  0.95560515  1.0
  C  C91  1  0.92376763  0.43271894  0.03650751  1.0
  C  C92  1  0.91673683  0.64903299  0.90509532  1.0
  C  C93  1  0.07852589  0.64425344  0.90157821  1.0
  C  C94  1  0.49417576  0.87505585  0.99112117  1.0
  C  C95  1  0.49407240  0.13664656  0.99708036  1.0
  C  C96  1  0.61395865  0.94511838  0.99359849  1.0
  C  C97  1  0.37085823  0.06899821  0.99258686  1.0
  C  C98  1  0.61385881  0.06905002  0.99716963  1.0
  C  C99  1  0.37078803  0.93997689  0.99121220  1.0
  C  C100  1  0.76797467  0.93786635  0.99436695  1.0
  C  C101  1  0.76784291  0.07934575  0.99978607  1.0
  N  N102  1  0.14501171  0.48801788  0.50338192  1.0
  N  N103  1  0.85349998  0.49948046  0.49576301  1.0
  N  N104  1  0.85280686  0.50380902  0.99930843  1.0
  N  N105  1  0.14451037  0.49330777  0.99275612  1.0
  N  N106  1  0.86453100  0.36722190  0.41353063  1.0
  N  N107  1  0.13905849  0.33898802  0.42886836  1.0
  N  N108  1  0.75503470  0.11939885  0.50479621  1.0
  N  N109  1  0.75290920  0.88198624  0.49655225  1.0
  N  N110  1  0.24069303  0.52027777  0.30759095  1.0
  N  N111  1  0.24171941  0.53349703  0.18835613  1.0
  N  N112  1  0.13620707  0.35273103  0.07148749  1.0
  N  N113  1  0.85911642  0.36654623  0.08089856  1.0
  N  N114  1  0.24291353  0.12082936  0.99039414  1.0
  N  N115  1  0.24340619  0.88442860  0.98835198  1.0
  O  O116  1  0.60630049  0.68005728  0.48382066  1.0
  O  O117  1  0.38171110  0.68472838  0.50782398  1.0
  O  O118  1  0.39196254  0.48153025  0.59187809  1.0
  O  O119  1  0.61806854  0.52800654  0.58849344  1.0
  O  O120  1  0.38806525  0.31533269  0.48968289  1.0
  O  O121  1  0.61204416  0.32218577  0.51155913  1.0
  O  O122  1  0.60884310  0.47319611  0.40457436  1.0
  O  O123  1  0.38550658  0.51696077  0.40955255  1.0
  O  O124  1  0.38642716  0.68405654  0.98130696  1.0
  O  O125  1  0.61279300  0.69296150  0.00107575  1.0
  O  O126  1  0.61763679  0.51905209  0.90555510  1.0
  O  O127  1  0.39096201  0.47490260  0.90339378  1.0
  O  O128  1  0.61310448  0.32257089  0.99062635  1.0
  O  O129  1  0.38698119  0.32513215  0.01032169  1.0
  O  O130  1  0.38411958  0.53401004  0.08546945  1.0
  O  O131  1  0.60877494  0.49363961  0.08907464  1.0
  F  F132  1  0.35136238  0.65704423  0.68856564  1.0
  F  F133  1  0.35083202  0.65300223  0.80830550  1.0
