# generated using pymatgen
data_AlH8C13NClO5
_symmetry_space_group_name_H-M   'P 1'
_cell_length_a   6.61751390
_cell_length_b   11.07921410
_cell_length_c   15.22623419
_cell_angle_alpha   88.76235758
_cell_angle_beta   78.50398438
_cell_angle_gamma   73.58860563
_symmetry_Int_Tables_number   1
_chemical_formula_structural   AlH8C13NClO5
_chemical_formula_sum   'Al2 H16 C26 N2 Cl2 O10'
_cell_volume   1048.65891504
_cell_formula_units_Z   2
loop_
 _symmetry_equiv_pos_site_id
 _symmetry_equiv_pos_as_xyz
  1  'x, y, z'
loop_
 _atom_site_type_symbol
 _atom_site_label
 _atom_site_symmetry_multiplicity
 _atom_site_fract_x
 _atom_site_fract_y
 _atom_site_fract_z
 _atom_site_occupancy
  Al  Al0  1  0.99740825  0.50507768  0.49770323  1.0
  Al  Al1  1  0.49881400  0.50019426  0.49777150  1.0
  H  H2  1  0.33834472  0.35159936  0.44650393  1.0
  H  H3  1  0.64595864  0.65298932  0.54705609  1.0
  H  H4  1  0.68370735  0.44967507  0.05015837  1.0
  H  H5  1  0.36283442  0.44427603  0.94531094  1.0
  H  H6  1  0.80026059  0.56897685  0.76312233  1.0
  H  H7  1  0.69298862  0.57836374  0.92978781  1.0
  H  H8  1  0.13050560  0.57636684  0.23557966  1.0
  H  H9  1  0.22951897  0.58051408  0.06895543  1.0
  H  H10  1  0.56371323  0.23612431  0.62647070  1.0
  H  H11  1  0.35698447  0.11878347  0.72751743  1.0
  H  H12  1  0.81507299  0.76773784  0.62376799  1.0
  H  H13  1  0.48348297  0.88335893  0.72663138  1.0
  H  H14  1  0.47934418  0.46308657  0.28890892  1.0
  H  H15  1  0.44391195  0.42970794  0.18272944  1.0
  H  H16  1  0.56005743  0.44242928  0.70692850  1.0
  H  H17  1  0.62484866  0.42100450  0.81324985  1.0
  C  C18  1  0.86336815  0.27675935  0.50456913  1.0
  C  C19  1  0.81051589  0.50916823  0.33567332  1.0
  C  C20  1  0.13751264  0.72889309  0.49355297  1.0
  C  C21  1  0.18482217  0.50030869  0.66070612  1.0
  C  C22  1  0.85356273  0.51293110  0.23717411  1.0
  C  C23  1  0.13799179  0.50171753  0.75925500  1.0
  C  C24  1  0.71888349  0.47998729  0.18496240  1.0
  C  C25  1  0.78135773  0.47952111  0.09052138  1.0
  C  C26  1  0.30235930  0.46845436  0.81117390  1.0
  C  C27  1  0.23765645  0.47307759  0.90571594  1.0
  C  C28  1  0.92133191  0.54007765  0.80442819  1.0
  C  C29  1  0.86175574  0.54395254  0.89690155  1.0
  C  C30  1  0.03598754  0.54732417  0.19347228  1.0
  C  C31  1  0.09266231  0.54797629  0.10092278  1.0
  C  C32  1  0.96455065  0.51205178  0.04807766  1.0
  C  C33  1  0.02262850  0.50934273  0.94910893  1.0
  C  C34  1  0.93468564  0.13567615  0.50337088  1.0
  C  C35  1  0.80939405  0.06987806  0.56250128  1.0
  C  C36  1  0.12033541  0.07011424  0.44445756  1.0
  C  C37  1  0.61923883  0.13381253  0.62433362  1.0
  C  C38  1  0.50320637  0.06776627  0.68119091  1.0
  C  C39  1  0.06952687  0.87002865  0.49824349  1.0
  C  C40  1  0.18777637  0.93607542  0.44138155  1.0
  C  C41  1  0.87958973  0.93476248  0.56063242  1.0
  C  C42  1  0.75912616  0.86992619  0.62212874  1.0
  C  C43  1  0.57427898  0.93491080  0.68045410  1.0
  N  N44  1  0.54177994  0.44335998  0.22245754  1.0
  N  N45  1  0.51578317  0.43008624  0.77362759  1.0
  Cl  Cl46  1  0.41098520  0.85759334  0.36363226  1.0
  Cl  Cl47  1  0.26712317  0.14828952  0.36974722  1.0
  O  O48  1  0.99330135  0.33422124  0.52109433  1.0
  O  O49  1  0.61554521  0.52087283  0.37596936  1.0
  O  O50  1  0.32200263  0.67257856  0.50891347  1.0
  O  O51  1  0.02708111  0.52672439  0.61994385  1.0
  O  O52  1  0.00190980  0.67587179  0.47668355  1.0
  O  O53  1  0.38335527  0.47415395  0.61998590  1.0
  O  O54  1  0.67702854  0.32855794  0.48916879  1.0
  O  O55  1  0.96874977  0.49229706  0.37529754  1.0
  O  O56  1  0.29338384  0.44225151  0.45799080  1.0
  O  O57  1  0.70072115  0.56207534  0.53815056  1.0
