# generated using pymatgen
data_ZnH6C19N4(O2F3)2
_symmetry_space_group_name_H-M   'P 1'
_cell_length_a   17.24524097
_cell_length_b   22.85495050
_cell_length_c   23.94264366
_cell_angle_alpha   86.19953691
_cell_angle_beta   89.88576482
_cell_angle_gamma   84.09437370
_symmetry_Int_Tables_number   1
_chemical_formula_structural   ZnH6C19N4(O2F3)2
_chemical_formula_sum   'Zn4 H24 C76 N16 O16 F24'
_cell_volume   9365.89671695
_cell_formula_units_Z   4
loop_
 _symmetry_equiv_pos_site_id
 _symmetry_equiv_pos_as_xyz
  1  'x, y, z'
loop_
 _atom_site_type_symbol
 _atom_site_label
 _atom_site_symmetry_multiplicity
 _atom_site_fract_x
 _atom_site_fract_y
 _atom_site_fract_z
 _atom_site_occupancy
  Zn  Zn0  1  0.00167452  0.95161474  0.54008010  1.0
  Zn  Zn1  1  0.00165653  0.03657344  0.45002675  1.0
  Zn  Zn2  1  0.05267060  0.52885687  0.94705415  1.0
  Zn  Zn3  1  0.05226393  0.44296323  0.03465346  1.0
  H  H4  1  0.97151815  0.64865426  0.92345466  1.0
  H  H5  1  0.96122870  0.72937960  0.84517030  1.0
  H  H6  1  0.90885772  0.86500177  0.73273736  1.0
  H  H7  1  0.09504225  0.75667726  0.65497295  1.0
  H  H8  1  0.94651356  0.41604086  0.12863606  1.0
  H  H9  1  0.93664906  0.33703225  0.20691031  1.0
  H  H10  1  0.89363810  0.23295117  0.34061588  1.0
  H  H11  1  0.10275097  0.14460686  0.27020410  1.0
  H  H12  1  0.24445407  0.05123635  0.43631966  1.0
  H  H13  1  0.39073440  0.04751290  0.43802146  1.0
  H  H14  1  0.60415890  0.08516208  0.42832514  1.0
  H  H15  1  0.61473731  0.92793043  0.54003998  1.0
  H  H16  1  0.05523195  0.55382920  0.17254370  1.0
  H  H17  1  0.04269422  0.63099520  0.24311675  1.0
  H  H18  1  0.04944103  0.71647435  0.37377425  1.0
  H  H19  1  0.98056359  0.85225410  0.24382674  1.0
  H  H20  1  0.00425406  0.42616262  0.81264950  1.0
  H  H21  1  0.96627717  0.35523619  0.74405638  1.0
  H  H22  1  0.94994471  0.27256459  0.61266233  1.0
  H  H23  1  0.93721105  0.13758955  0.74672054  1.0
  H  H24  1  0.29401858  0.53917734  0.92892611  1.0
  H  H25  1  0.43956721  0.54056653  0.93321171  1.0
  H  H26  1  0.66155827  0.53714494  0.89393469  1.0
  H  H27  1  0.65570636  0.46441795  0.06510848  1.0
  C  C28  1  0.15104202  0.99167294  0.50224102  1.0
  C  C29  1  0.01078186  0.91219744  0.42627484  1.0
  C  C30  1  0.85274355  0.99867017  0.48655407  1.0
  C  C31  1  0.98266369  0.07477032  0.56513022  1.0
  C  C32  1  0.04481563  0.56747367  0.06162418  1.0
  C  C33  1  0.90050740  0.49941320  0.99045190  1.0
  C  C34  1  0.03270708  0.40757722  0.92148578  1.0
  C  C35  1  0.20253957  0.47678416  0.99354495  1.0
  C  C36  1  0.00382661  0.64455529  0.88454501  1.0
  C  C37  1  0.99850127  0.68841917  0.84175215  1.0
  C  C38  1  0.04253505  0.67978162  0.79277416  1.0
  C  C39  1  0.08997908  0.62657457  0.78964900  1.0
  C  C40  1  0.09104062  0.58449039  0.83493156  1.0
  C  C41  1  0.94941341  0.85643754  0.69872205  1.0
  C  C42  1  0.00198868  0.80560744  0.69985646  1.0
  C  C43  1  0.05363088  0.79581699  0.65532748  1.0
  C  C44  1  0.04908208  0.83858520  0.61151410  1.0
  C  C45  1  0.95121075  0.89571905  0.65199185  1.0
  C  C46  1  0.98959226  0.37778966  0.13464926  1.0
  C  C47  1  0.98431923  0.33446979  0.17708489  1.0
  C  C48  1  0.04192255  0.28587722  0.18162028  1.0
  C  C49  1  0.10188017  0.28344877  0.14205036  1.0
  C  C50  1  0.10246528  0.32954282  0.10043803  1.0
  C  C51  1  0.93975429  0.19676708  0.34063722  1.0
  C  C52  1  0.99791282  0.19475463  0.29993141  1.0
  C  C53  1  0.05676224  0.14744491  0.30129626  1.0
  C  C54  1  0.05328386  0.10446860  0.34437913  1.0
  C  C55  1  0.94335898  0.15035738  0.38144125  1.0
  C  C56  1  0.23835154  0.98897205  0.50651702  1.0
  C  C57  1  0.27906433  0.02329427  0.46762548  1.0
  C  C58  1  0.35941829  0.02145587  0.46847401  1.0
  C  C59  1  0.40344970  0.98480315  0.50907264  1.0
  C  C60  1  0.36341959  0.95071169  0.54823726  1.0
  C  C61  1  0.28211757  0.95284238  0.54704257  1.0
  C  C62  1  0.63801146  0.04951994  0.45265601  1.0
  C  C63  1  0.60037182  0.00716520  0.48423575  1.0
  C  C64  1  0.64384229  0.96109197  0.51571096  1.0
  C  C65  1  0.72414684  0.95905785  0.51495097  1.0
  C  C66  1  0.76541272  0.00085875  0.48443030  1.0
  C  C67  1  0.71877491  0.04555591  0.45344093  1.0
  C  C68  1  0.03515063  0.61550915  0.10165068  1.0
  C  C69  1  0.04296181  0.60043122  0.15955369  1.0
  C  C70  1  0.03578468  0.64267153  0.19845224  1.0
  C  C71  1  0.01911374  0.70281261  0.18110370  1.0
  C  C72  1  0.01013356  0.71818887  0.12348781  1.0
  C  C73  1  0.01841639  0.67513024  0.08440725  1.0
  C  C74  1  0.03336536  0.76263768  0.36071305  1.0
  C  C75  1  0.01589901  0.77954586  0.30446508  1.0
  C  C76  1  0.99485416  0.83905904  0.28740731  1.0
  C  C77  1  0.99307473  0.88019825  0.32728646  1.0
  C  C78  1  0.01146804  0.86596065  0.38436768  1.0
  C  C79  1  0.03094201  0.80571305  0.39903312  1.0
  C  C80  1  0.00581895  0.36405138  0.88353734  1.0
  C  C81  1  0.99424642  0.38117212  0.82624141  1.0
  C  C82  1  0.97263426  0.34258201  0.78857176  1.0
  C  C83  1  0.96062563  0.28428686  0.80684424  1.0
  C  C84  1  0.96852554  0.26756921  0.86428422  1.0
  C  C85  1  0.99134371  0.30680548  0.90205466  1.0
  C  C86  1  0.95021387  0.22632628  0.62696776  1.0
  C  C87  1  0.94324132  0.21001202  0.68401667  1.0
  C  C88  1  0.94318875  0.15045689  0.70247261  1.0
  C  C89  1  0.95364084  0.10853037  0.66345868  1.0
  C  C90  1  0.96519238  0.12189306  0.60563728  1.0
  C  C91  1  0.96144032  0.18248635  0.58948396  1.0
  C  C92  1  0.28976340  0.47407728  0.99694944  1.0
  C  C93  1  0.32935198  0.51085677  0.95955237  1.0
  C  C94  1  0.40929538  0.51165027  0.96170920  1.0
  C  C95  1  0.45397205  0.47499872  0.00194719  1.0
  C  C96  1  0.41518482  0.43791962  0.03914339  1.0
  C  C97  1  0.33429816  0.43731221  0.03661220  1.0
  C  C98  1  0.69168897  0.52187155  0.93292909  1.0
  C  C99  1  0.65009041  0.50031813  0.97878832  1.0
  C  C100  1  0.68833498  0.48055394  0.02936636  1.0
  C  C101  1  0.76798370  0.48209920  0.03211520  1.0
  C  C102  1  0.81326974  0.50214831  0.98706919  1.0
  C  C103  1  0.77173324  0.52212424  0.93793345  1.0
  N  N104  1  0.04990462  0.59313952  0.88076903  1.0
  N  N105  1  0.04442587  0.71979083  0.74558531  1.0
  N  N106  1  0.99836654  0.76624089  0.74802388  1.0
  N  N107  1  0.99962588  0.88799698  0.60893368  1.0
  N  N108  1  0.04877525  0.37526289  0.09711650  1.0
  N  N109  1  0.04544744  0.23837811  0.22249092  1.0
  N  N110  1  0.99266438  0.24302890  0.25908602  1.0
  N  N111  1  0.99854174  0.10476907  0.38420289  1.0
  N  N112  1  0.48513927  0.97839829  0.51327059  1.0
  N  N113  1  0.51817867  0.01468856  0.48128300  1.0
  N  N114  1  0.01108473  0.74945206  0.21686002  1.0
  N  N115  1  0.02223797  0.73313297  0.26816921  1.0
  N  N116  1  0.94853841  0.23941133  0.77148833  1.0
  N  N117  1  0.94285220  0.25652286  0.72000061  1.0
  N  N118  1  0.53486639  0.47337453  0.00929551  1.0
  N  N119  1  0.56915901  0.50036280  0.97004372  1.0
  O  O120  1  0.11881289  0.94910281  0.52590683  1.0
  O  O121  1  0.11682050  0.03620154  0.47417890  1.0
  O  O122  1  0.03262597  0.96154229  0.40871599  1.0
  O  O123  1  0.98862297  0.89790135  0.47545442  1.0
  O  O124  1  0.88715918  0.01768053  0.44313353  1.0
  O  O125  1  0.88467792  0.97828968  0.53252485  1.0
  O  O126  1  0.01114154  0.02443030  0.58543111  1.0
  O  O127  1  0.96777291  0.08925753  0.51381098  1.0
  O  O128  1  0.06589591  0.58135910  0.01196518  1.0
  O  O129  1  0.03182940  0.51630445  0.08139233  1.0
  O  O130  1  0.93434250  0.45360485  0.01662989  1.0
  O  O131  1  0.93295678  0.54151171  0.96635616  1.0
  O  O132  1  0.06077828  0.38870971  0.96900423  1.0
  O  O133  1  0.02488460  0.46128289  0.90219079  1.0
  O  O134  1  0.17048359  0.50303576  0.94964071  1.0
  O  O135  1  0.16744599  0.45371970  0.03482541  1.0
  F  F136  1  0.13541515  0.53345608  0.83174601  1.0
  F  F137  1  0.13378143  0.61471693  0.74473040  1.0
  F  F138  1  0.90191327  0.94458181  0.64880361  1.0
  F  F139  1  0.09617587  0.83168990  0.56771114  1.0
  F  F140  1  0.15936362  0.32721874  0.06284825  1.0
  F  F141  1  0.15859159  0.23880548  0.14295673  1.0
  F  F142  1  0.88901881  0.15039608  0.42088178  1.0
  F  F143  1  0.10786690  0.05837160  0.34823186  1.0
  F  F144  1  0.24900221  0.91934436  0.58710403  1.0
  F  F145  1  0.40266886  0.91545141  0.58840393  1.0
  F  F146  1  0.75274225  0.08836577  0.42347999  1.0
  F  F147  1  0.76468856  0.91325309  0.54465180  1.0
  F  F148  1  0.00768302  0.69394653  0.02990611  1.0
  F  F149  1  0.99334190  0.77492167  0.10436695  1.0
  F  F150  1  0.05037058  0.78781174  0.45275716  1.0
  F  F151  1  0.97086565  0.93720453  0.31007490  1.0
  F  F152  1  0.99802868  0.28669700  0.95631710  1.0
  F  F153  1  0.95583947  0.21283035  0.88424697  1.0
  F  F154  1  0.97174699  0.20066408  0.53514146  1.0
  F  F155  1  0.95256748  0.05163139  0.68303667  1.0
  F  F156  1  0.30274161  0.39947974  0.07356744  1.0
  F  F157  1  0.45536540  0.40150481  0.07796194  1.0
  F  F158  1  0.81095988  0.54130242  0.89222509  1.0
  F  F159  1  0.80403301  0.46413720  0.08176463  1.0
