# generated using pymatgen
data_ZnH16C19NO6
_symmetry_space_group_name_H-M   'P 1'
_cell_length_a   10.89880667
_cell_length_b   16.38109541
_cell_length_c   17.85401886
_cell_angle_alpha   84.81608985
_cell_angle_beta   86.87706595
_cell_angle_gamma   87.86407073
_symmetry_Int_Tables_number   1
_chemical_formula_structural   ZnH16C19NO6
_chemical_formula_sum   'Zn2 H32 C38 N2 O12'
_cell_volume   3168.12684386
_cell_formula_units_Z   2
loop_
 _symmetry_equiv_pos_site_id
 _symmetry_equiv_pos_as_xyz
  1  'x, y, z'
loop_
 _atom_site_type_symbol
 _atom_site_label
 _atom_site_symmetry_multiplicity
 _atom_site_fract_x
 _atom_site_fract_y
 _atom_site_fract_z
 _atom_site_occupancy
  Zn  Zn0  1  0.49630913  0.58497906  0.49634184  1.0
  Zn  Zn1  1  0.50491520  0.41535985  0.50229302  1.0
  H  H2  1  0.37935971  0.28715280  0.42938601  1.0
  H  H3  1  0.38211605  0.13585137  0.43111981  1.0
  H  H4  1  0.66384726  0.13174163  0.59562379  1.0
  H  H5  1  0.64707784  0.28056474  0.58503286  1.0
  H  H6  1  0.33623513  0.86840194  0.40439913  1.0
  H  H7  1  0.61769892  0.86429910  0.56908639  1.0
  H  H8  1  0.62117374  0.71299057  0.57039063  1.0
  H  H9  1  0.35353385  0.71955836  0.41472336  1.0
  H  H10  1  0.50672316  0.38256711  0.26167813  1.0
  H  H11  1  0.50657677  0.38928846  0.12338399  1.0
  H  H12  1  0.49085687  0.65524597  0.11805993  1.0
  H  H13  1  0.49131817  0.64460587  0.25359933  1.0
  H  H14  1  0.50913559  0.34497580  0.88136061  1.0
  H  H15  1  0.49338773  0.61091530  0.87560486  1.0
  H  H16  1  0.49347162  0.61745020  0.73737490  1.0
  H  H17  1  0.50893148  0.35532705  0.74591770  1.0
  H  H18  1  0.12515310  0.48530845  0.38377883  1.0
  H  H19  1  0.11588733  0.58813922  0.40667802  1.0
  H  H20  1  0.90132945  0.58767987  0.40144634  1.0
  H  H21  1  0.91164677  0.48430019  0.38003454  1.0
  H  H22  1  0.88173159  0.62105741  0.53677303  1.0
  H  H23  1  0.87501363  0.54204239  0.61067208  1.0
  H  H24  1  0.09677228  0.61982498  0.54282244  1.0
  H  H25  1  0.08872045  0.53951908  0.61540980  1.0
  H  H26  1  0.11669860  0.36959488  0.48875322  1.0
  H  H27  1  0.10215536  0.39204516  0.58326950  1.0
  H  H28  1  0.88771265  0.39249401  0.57899357  1.0
  H  H29  1  0.90229976  0.37049989  0.48423850  1.0
  H  H30  1  0.65582213  0.03190340  0.59186386  1.0
  H  H31  1  0.34419937  0.96820463  0.40819982  1.0
  H  H32  1  0.49121388  0.64735225  0.02983327  1.0
  H  H33  1  0.50882790  0.35290197  0.96948272  1.0
  C  C34  1  0.49851358  0.50803488  0.35106940  1.0
  C  C35  1  0.26023515  0.50023150  0.50433307  1.0
  C  C36  1  0.50228971  0.49099611  0.64795893  1.0
  C  C37  1  0.74068617  0.50146542  0.49561096  1.0
  C  C38  1  0.44071324  0.24898347  0.46515938  1.0
  C  C39  1  0.44274010  0.16413688  0.46648405  1.0
  C  C40  1  0.52294203  0.11594761  0.51347161  1.0
  C  C41  1  0.59744577  0.16047314  0.55682840  1.0
  C  C42  1  0.59003732  0.24548872  0.55211519  1.0
  C  C43  1  0.53274306  0.02604967  0.51935619  1.0
  C  C44  1  0.46717905  0.97409521  0.48076976  1.0
  C  C45  1  0.40270853  0.83968757  0.44314823  1.0
  C  C46  1  0.47707192  0.88420091  0.48661021  1.0
  C  C47  1  0.55728751  0.83601471  0.53359261  1.0
  C  C48  1  0.55969961  0.75117775  0.53470420  1.0
  C  C49  1  0.41044757  0.75468901  0.44767358  1.0
  C  C50  1  0.49836623  0.51294083  0.26696318  1.0
  C  C51  1  0.50284291  0.44184901  0.22870393  1.0
  C  C52  1  0.50287199  0.44577624  0.15067392  1.0
  C  C53  1  0.49842030  0.52201582  0.10632534  1.0
  C  C54  1  0.49413880  0.59312328  0.14638393  1.0
  C  C55  1  0.49416516  0.58890777  0.22439249  1.0
  C  C56  1  0.49811609  0.53098579  0.02371553  1.0
  C  C57  1  0.50186091  0.46931993  0.97553776  1.0
  C  C58  1  0.50590402  0.40706901  0.85296856  1.0
  C  C59  1  0.50159512  0.47823714  0.89292439  1.0
  C  C60  1  0.49716474  0.55437357  0.84837928  1.0
  C  C61  1  0.49730361  0.55814254  0.77031918  1.0
  C  C62  1  0.50190495  0.48695690  0.73213601  1.0
  C  C63  1  0.50599290  0.41112504  0.77496680  1.0
  C  C64  1  0.08097103  0.52667041  0.42319653  1.0
  C  C65  1  0.93888214  0.52651852  0.42026296  1.0
  C  C66  1  0.88059731  0.49955373  0.49910413  1.0
  C  C67  1  0.91872044  0.55956883  0.55479030  1.0
  C  C68  1  0.06037454  0.55862315  0.55807170  1.0
  C  C69  1  0.12013390  0.49885070  0.50382489  1.0
  C  C70  1  0.07254049  0.41250703  0.52653383  1.0
  C  C71  1  0.93095692  0.41293346  0.52370732  1.0
  N  N72  1  0.51275832  0.28947852  0.50699418  1.0
  N  N73  1  0.48793121  0.71073223  0.49266655  1.0
  O  O74  1  0.49519254  0.57578462  0.38135730  1.0
  O  O75  1  0.50198322  0.43659320  0.38578465  1.0
  O  O76  1  0.31891718  0.43142236  0.50713190  1.0
  O  O77  1  0.30877123  0.57012753  0.50072115  1.0
  O  O78  1  0.50629314  0.42294239  0.61830969  1.0
  O  O79  1  0.49868319  0.56215403  0.61244443  1.0
  O  O80  1  0.68526976  0.57145506  0.49128140  1.0
  O  O81  1  0.68907909  0.43280581  0.49708637  1.0
  O  O82  1  0.61582665  0.98958100  0.56815933  1.0
  O  O83  1  0.38410303  0.01054240  0.43193793  1.0
  O  O84  1  0.49365105  0.61028990  0.99017763  1.0
  O  O85  1  0.50636397  0.39000723  0.00909925  1.0
