# generated using pymatgen
data_AlH18C24NO6
_symmetry_space_group_name_H-M   'P 1'
_cell_length_a   4.09916623
_cell_length_b   23.34195981
_cell_length_c   23.34240175
_cell_angle_alpha   59.99982950
_cell_angle_beta   89.99993626
_cell_angle_gamma   89.99944882
_symmetry_Int_Tables_number   1
_chemical_formula_structural   AlH18C24NO6
_chemical_formula_sum   'Al3 H54 C72 N3 O18'
_cell_volume   1934.23070081
_cell_formula_units_Z   3
loop_
 _symmetry_equiv_pos_site_id
 _symmetry_equiv_pos_as_xyz
  1  'x, y, z'
loop_
 _atom_site_type_symbol
 _atom_site_label
 _atom_site_symmetry_multiplicity
 _atom_site_fract_x
 _atom_site_fract_y
 _atom_site_fract_z
 _atom_site_occupancy
  Al  Al0  1  0.99157487  0.50035359  0.50031686  1.0
  Al  Al1  1  0.99163828  0.83266605  0.83369751  1.0
  Al  Al2  1  0.99164130  0.16698347  0.16600422  1.0
  H  H3  1  0.20732412  0.05193727  0.07992060  1.0
  H  H4  1  0.20667797  0.94728467  0.07798574  1.0
  H  H5  1  0.77168496  0.85591196  0.25721640  1.0
  H  H6  1  0.77168676  0.92388915  0.05353538  1.0
  H  H7  1  0.20740112  0.74657861  0.03482142  1.0
  H  H8  1  0.20673729  0.74464838  0.14140248  1.0
  H  H9  1  0.77171366  0.72019973  0.18925146  1.0
  H  H10  1  0.20727873  0.70148387  0.38526274  1.0
  H  H11  1  0.20666637  0.80807066  0.28061114  1.0
  H  H12  1  0.77832910  0.94714432  0.63163857  1.0
  H  H13  1  0.78695281  0.05205855  0.52542374  1.0
  H  H14  1  0.22393319  0.14410961  0.61286328  1.0
  H  H15  1  0.22393783  0.07635781  0.47744725  1.0
  H  H16  1  0.77829038  0.25456315  0.28049003  1.0
  H  H17  1  0.78688445  0.25586077  0.38540320  1.0
  H  H18  1  0.22389122  0.27952142  0.40970861  1.0
  H  H19  1  0.77832731  0.29829734  0.58789268  1.0
  H  H20  1  0.78694893  0.19207903  0.58919456  1.0
  H  H21  1  0.77909520  0.63166697  0.92109471  1.0
  H  H22  1  0.78822668  0.52533784  0.92249613  1.0
  H  H23  1  0.22390042  0.61249084  0.74320200  1.0
  H  H24  1  0.22394726  0.47765633  0.94581098  1.0
  H  H25  1  0.77899940  0.28056490  0.96500234  1.0
  H  H26  1  0.78816713  0.38548853  0.85867228  1.0
  H  H27  1  0.22392506  0.40986991  0.81097818  1.0
  H  H28  1  0.77899484  0.58777101  0.61390318  1.0
  H  H29  1  0.78816708  0.58917251  0.71882610  1.0
  H  H30  1  0.71631330  0.91886331  0.32490103  1.0
  H  H31  1  0.77751873  0.00573767  0.27664271  1.0
  H  H32  1  0.07656787  0.95099855  0.27715014  1.0
  H  H33  1  0.71630954  0.99156917  0.92290489  1.0
  H  H34  1  0.77751362  0.94331159  0.88428703  1.0
  H  H35  1  0.07657334  0.94382044  0.93851122  1.0
  H  H36  1  0.71630563  0.58956957  0.25220218  1.0
  H  H37  1  0.77745540  0.55094566  0.33907591  1.0
  H  H38  1  0.07655551  0.60517331  0.28434924  1.0
  H  H39  1  0.27146850  0.08098177  0.74319811  1.0
  H  H40  1  0.21065342  0.99410048  0.78191118  1.0
  H  H41  1  0.91201917  0.04874459  0.72741483  1.0
  H  H42  1  0.27142749  0.00915660  0.41431272  1.0
  H  H43  1  0.21066048  0.05733198  0.32743061  1.0
  H  H44  1  0.91200050  0.05718630  0.38207446  1.0
  H  H45  1  0.27129520  0.40986565  0.34250070  1.0
  H  H46  1  0.21054753  0.44856630  0.39067325  1.0
  H  H47  1  0.91193794  0.39406358  0.39054397  1.0
  H  H48  1  0.26965529  0.74274949  0.67598633  1.0
  H  H49  1  0.20779032  0.78153029  0.72407982  1.0
  H  H50  1  0.91040781  0.72676291  0.72409486  1.0
  H  H51  1  0.26961018  0.41461503  0.07606838  1.0
  H  H52  1  0.20780222  0.32773820  0.11485505  1.0
  H  H53  1  0.91038285  0.38248471  0.06008173  1.0
  H  H54  1  0.26956069  0.34265732  0.74794916  1.0
  H  H55  1  0.20782763  0.39073871  0.66106949  1.0
  H  H56  1  0.91035081  0.39078249  0.71580068  1.0
  C  C57  1  0.48975549  0.49968191  0.58819044  1.0
  C  C58  1  0.49441617  0.58747835  0.41171264  1.0
  C  C59  1  0.49003669  0.41246508  0.49968682  1.0
  C  C60  1  0.49446126  0.83414478  0.92081763  1.0
  C  C61  1  0.48981414  0.74546617  0.83301400  1.0
  C  C62  1  0.49005373  0.92118932  0.74581074  1.0
  C  C63  1  0.49444740  0.07837965  0.16748053  1.0
  C  C64  1  0.48978598  0.25486067  0.07879948  1.0
  C  C65  1  0.49004880  0.16634543  0.25452715  1.0
  C  C66  1  0.33749062  0.00908019  0.11817403  1.0
  C  C67  1  0.33450133  0.95007509  0.11729243  1.0
  C  C68  1  0.49425709  0.89392567  0.16711431  1.0
  C  C69  1  0.64969329  0.89908662  0.21780215  1.0
  C  C70  1  0.65034065  0.95772468  0.22024544  1.0
  C  C71  1  0.49575912  0.01354709  0.16898012  1.0
  C  C72  1  0.64972398  0.88447142  0.04977812  1.0
  C  C73  1  0.65036454  0.88691320  0.98869782  1.0
  C  C74  1  0.49579056  0.83564224  0.98414886  1.0
  C  C75  1  0.33754120  0.78483233  0.03942458  1.0
  C  C76  1  0.33455019  0.78395478  0.09930796  1.0
  C  C77  1  0.49429110  0.83378124  0.10563004  1.0
  C  C78  1  0.64969613  0.71644420  0.23242359  1.0
  C  C79  1  0.65030987  0.65536191  0.29106256  1.0
  C  C80  1  0.49573692  0.65080998  0.34687927  1.0
  C  C81  1  0.33746619  0.70608580  0.34240941  1.0
  C  C82  1  0.33448858  0.76597242  0.28340564  1.0
  C  C83  1  0.49425819  0.77229484  0.22726066  1.0
  C  C84  1  0.65058005  0.99021611  0.62709222  1.0
  C  C85  1  0.65799970  0.04940470  0.56736002  1.0
  C  C86  1  0.50097850  0.10586382  0.56094394  1.0
  C  C87  1  0.34397336  0.10075487  0.61663046  1.0
  C  C88  1  0.33951040  0.04197933  0.67757887  1.0
  C  C89  1  0.49097193  0.98585710  0.68220585  1.0
  C  C90  1  0.34396864  0.11595114  0.43409584  1.0
  C  C91  1  0.33948748  0.11377893  0.37531877  1.0
  C  C92  1  0.49095857  0.16527495  0.31919888  1.0
  C  C93  1  0.65054333  0.21603143  0.32355826  1.0
  C  C94  1  0.65796416  0.21657561  0.38274920  1.0
  C  C95  1  0.50094800  0.16652360  0.43921168  1.0
  C  C96  1  0.34393492  0.28328936  0.44929425  1.0
  C  C97  1  0.33945192  0.34424206  0.44711616  1.0
  C  C98  1  0.49094586  0.34886628  0.49860958  1.0
  C  C99  1  0.65056498  0.29375028  0.54936362  1.0
  C  C100  1  0.65800221  0.23401401  0.54990876  1.0
  C  C101  1  0.50095597  0.22759803  0.49986342  1.0
  C  C102  1  0.65107917  0.62696209  0.88268012  1.0
  C  C103  1  0.65896283  0.56724610  0.88324511  1.0
  C  C104  1  0.50197025  0.56086229  0.83320125  1.0
  C  C105  1  0.34402463  0.61638047  0.78270023  1.0
  C  C106  1  0.33871219  0.67728816  0.78053008  1.0
  C  C107  1  0.49064281  0.68193267  0.83195038  1.0
  C  C108  1  0.34401183  0.43426152  0.94970572  1.0
  C  C109  1  0.33870107  0.37552355  0.01061618  1.0
  C  C110  1  0.49063831  0.31945376  0.01526493  1.0
  C  C111  1  0.65106495  0.32369209  0.96029377  1.0
  C  C112  1  0.65892859  0.38284062  0.90057732  1.0
  C  C113  1  0.50195130  0.43927499  0.89418775  1.0
  C  C114  1  0.34401687  0.44937123  0.76758881  1.0
  C  C115  1  0.33868920  0.44720594  0.70884983  1.0
  C  C116  1  0.49061403  0.49862677  0.65278168  1.0
  C  C117  1  0.65107215  0.54935158  0.65702708  1.0
  C  C118  1  0.65893208  0.54991803  0.71617562  1.0
  C  C119  1  0.50194276  0.49987393  0.77260458  1.0
  C  C120  1  0.81251245  0.95870451  0.27767929  1.0
  C  C121  1  0.81252301  0.94434944  0.93028003  1.0
  C  C122  1  0.81249561  0.59694234  0.29204820  1.0
  C  C123  1  0.17602333  0.04108414  0.73583629  1.0
  C  C124  1  0.17601673  0.05642281  0.37441597  1.0
  C  C125  1  0.17592219  0.40249540  0.38976228  1.0
  C  C126  1  0.17419690  0.73539952  0.72323177  1.0
  C  C127  1  0.17417477  0.37471445  0.06872346  1.0
  C  C128  1  0.17416457  0.38990424  0.70804063  1.0
  N  N129  1  0.49390252  0.83333459  0.16666797  1.0
  N  N130  1  0.50532431  0.16666064  0.50000603  1.0
  N  N131  1  0.50683869  0.49999984  0.83333349  1.0
  O  O132  1  0.72559582  0.45237885  0.47092816  1.0
  O  O133  1  0.72526759  0.47095452  0.57701842  1.0
  O  O134  1  0.72906837  0.57801669  0.45135792  1.0
  O  O135  1  0.25439330  0.42218453  0.52956311  1.0
  O  O136  1  0.25785932  0.54766301  0.42314580  1.0
  O  O137  1  0.25437038  0.52958565  0.54856395  1.0
  O  O138  1  0.25441902  0.88159263  0.75552334  1.0
  O  O139  1  0.25790033  0.86253032  0.88100517  1.0
  O  O140  1  0.25442690  0.75519203  0.86291493  1.0
  O  O141  1  0.72564328  0.91002937  0.78571614  1.0
  O  O142  1  0.72532936  0.78536558  0.80428737  1.0
  O  O143  1  0.72911224  0.80396151  0.91135330  1.0
  O  O144  1  0.25440509  0.19622988  0.21493172  1.0
  O  O145  1  0.25790134  0.08981270  0.19586599  1.0
  O  O146  1  0.25440742  0.21523381  0.08852803  1.0
  O  O147  1  0.72565604  0.13760221  0.24336690  1.0
  O  O148  1  0.72529990  0.24368637  0.11870006  1.0
  O  O149  1  0.72911612  0.11802332  0.13730524  1.0
