# generated using pymatgen
data_ZnH14C27S2N(O5F)2
_symmetry_space_group_name_H-M   'P 1'
_cell_length_a   14.86241620
_cell_length_b   18.60163840
_cell_length_c   19.61651888
_cell_angle_alpha   88.48378236
_cell_angle_beta   87.50706431
_cell_angle_gamma   86.14848035
_symmetry_Int_Tables_number   1
_chemical_formula_structural   ZnH14C27S2N(O5F)2
_chemical_formula_sum   'Zn2 H28 C54 S4 N2 O20 F4'
_cell_volume   5404.40950899
_cell_formula_units_Z   2
loop_
 _symmetry_equiv_pos_site_id
 _symmetry_equiv_pos_as_xyz
  1  'x, y, z'
loop_
 _atom_site_type_symbol
 _atom_site_label
 _atom_site_symmetry_multiplicity
 _atom_site_fract_x
 _atom_site_fract_y
 _atom_site_fract_z
 _atom_site_occupancy
  Zn  Zn0  1  0.48074781  0.50277491  0.39555023  1.0
  Zn  Zn1  1  0.49898860  0.51404314  0.55645963  1.0
  H  H2  1  0.25975109  0.56643965  0.57952126  1.0
  H  H3  1  0.97931179  0.67088659  0.67364141  1.0
  H  H4  1  0.86280977  0.42827721  0.44395425  1.0
  H  H5  1  0.14115395  0.64027502  0.64478154  1.0
  H  H6  1  0.44010506  0.70278884  0.52817946  1.0
  H  H7  1  0.54924433  0.29384618  0.37647069  1.0
  H  H8  1  0.58187636  0.29326630  0.59279282  1.0
  H  H9  1  0.66537945  0.69726186  0.38307589  1.0
  H  H10  1  0.45766274  0.83216359  0.54716502  1.0
  H  H11  1  0.55595533  0.16029062  0.37896529  1.0
  H  H12  1  0.59173344  0.15934312  0.59605296  1.0
  H  H13  1  0.74434223  0.49526617  0.51491929  1.0
  H  H14  1  0.69016954  0.82460645  0.40714840  1.0
  H  H15  1  0.64120220  0.93121058  0.38214728  1.0
  H  H16  1  0.51469661  0.05696860  0.58812295  1.0
  H  H17  1  0.64418790  0.06241344  0.38740354  1.0
  H  H18  1  0.51753821  0.92494973  0.58495811  1.0
  H  H19  1  0.23415016  0.62846438  0.21958884  1.0
  H  H20  1  0.63994254  0.27686895  0.75950293  1.0
  H  H21  1  0.68182142  0.33824496  0.22598866  1.0
  H  H22  1  0.58904988  0.63511803  0.67143286  1.0
  H  H23  1  0.42346445  0.33607186  0.06203639  1.0
  H  H24  1  0.41375435  0.57185191  0.93636550  1.0
  H  H25  1  0.40039189  0.56865350  0.06134911  1.0
  H  H26  1  0.43275464  0.33918585  0.93622132  1.0
  H  H27  1  0.18567321  0.42492721  0.42427567  1.0
  H  H28  1  0.81753279  0.64931312  0.65928751  1.0
  H  H29  1  0.02456569  0.40158962  0.41164628  1.0
  C  C30  1  0.55445822  0.38240757  0.48165077  1.0
  C  C31  1  0.56361177  0.18900398  0.42591944  1.0
  C  C32  1  0.58141144  0.18850981  0.54771601  1.0
  C  C33  1  0.63356921  0.79890504  0.43241502  1.0
  C  C34  1  0.57372049  0.83889920  0.47705267  1.0
  C  C35  1  0.57486262  0.14970434  0.48767888  1.0
  C  C36  1  0.55000036  0.69306006  0.45304936  1.0
  C  C37  1  0.56483700  0.30195565  0.48444472  1.0
  C  C38  1  0.61503018  0.95818951  0.42824983  1.0
  C  C39  1  0.54439571  0.02949003  0.54326775  1.0
  C  C40  1  0.61515045  0.03265837  0.43068137  1.0
  C  C41  1  0.52891873  0.62024667  0.43421013  1.0
  C  C42  1  0.54478802  0.95475777  0.54100901  1.0
  C  C43  1  0.57870533  0.07028158  0.48783840  1.0
  C  C44  1  0.57911924  0.91735141  0.48305811  1.0
  C  C45  1  0.38384673  0.51465804  0.25354569  1.0
  C  C46  1  0.55444595  0.43250896  0.75640625  1.0
  C  C47  1  0.52424181  0.45450381  0.24016520  1.0
  C  C48  1  0.44938102  0.52805779  0.74359690  1.0
  C  C49  1  0.36223757  0.49610934  0.18788084  1.0
  C  C50  1  0.52127217  0.41761550  0.82262815  1.0
  C  C51  1  0.50371886  0.43287968  0.17512549  1.0
  C  C52  1  0.91517510  0.45563561  0.46829789  1.0
  C  C53  1  0.41367387  0.51600569  0.80975566  1.0
  C  C54  1  0.42310184  0.45633441  0.14489419  1.0
  C  C55  1  0.45052139  0.46085965  0.85293331  1.0
  C  C56  1  0.67531110  0.58643408  0.60718429  1.0
  C  C57  1  0.32926766  0.47856106  0.48364666  1.0
  C  C58  1  0.42034017  0.38779520  0.03452019  1.0
  C  C59  1  0.41396254  0.51995644  0.96328216  1.0
  C  C60  1  0.40633430  0.51818000  0.03400123  1.0
  C  C61  1  0.42608908  0.38965838  0.96335911  1.0
  C  C62  1  0.42662044  0.45570125  0.92682656  1.0
  C  C63  1  0.08862556  0.61417823  0.61928601  1.0
  C  C64  1  0.41268631  0.45212246  0.07044261  1.0
  C  C65  1  0.20695269  0.54274835  0.55230933  1.0
  C  C66  1  0.79692773  0.52315803  0.53827071  1.0
  C  C67  1  0.23101562  0.49404950  0.50032312  1.0
  C  C68  1  0.77236348  0.57371519  0.58851187  1.0
  C  C69  1  0.16527753  0.46198222  0.46511031  1.0
  C  C70  1  0.83806546  0.60996368  0.62047642  1.0
  C  C71  1  0.07351349  0.47614870  0.48275626  1.0
  C  C72  1  0.92990441  0.59566562  0.60309999  1.0
  C  C73  1  0.04809445  0.52734732  0.53445964  1.0
  C  C74  1  0.49415347  0.73041830  0.50157811  1.0
  C  C75  1  0.95542697  0.54360742  0.55211748  1.0
  C  C76  1  0.11590644  0.56176216  0.56873073  1.0
  C  C77  1  0.88777504  0.50744862  0.51929448  1.0
  C  C78  1  0.00420832  0.44096859  0.45059796  1.0
  C  C79  1  0.99943787  0.63076260  0.63530840  1.0
  C  C80  1  0.55886512  0.26374511  0.42425495  1.0
  C  C81  1  0.57654960  0.26357937  0.54621084  1.0
  C  C82  1  0.62099398  0.72739100  0.41940020  1.0
  C  C83  1  0.50520204  0.80269444  0.51252919  1.0
  S  S84  1  0.30546375  0.57629497  0.30100877  1.0
  S  S85  1  0.65629023  0.38454057  0.72352684  1.0
  S  S86  1  0.64212521  0.44256756  0.26273763  1.0
  S  S87  1  0.41590055  0.60611588  0.69027115  1.0
  N  N88  1  0.46402545  0.49378521  0.27902578  1.0
  N  N89  1  0.51883262  0.48623371  0.71838882  1.0
  O  O90  1  0.54046030  0.41041081  0.42239989  1.0
  O  O91  1  0.35516957  0.60901439  0.35102316  1.0
  O  O92  1  0.28901638  0.63828112  0.24275618  1.0
  O  O93  1  0.67527256  0.40985602  0.65563863  1.0
  O  O94  1  0.72096874  0.38264370  0.77618811  1.0
  O  O95  1  0.62277592  0.30367637  0.71788666  1.0
  O  O96  1  0.69292693  0.46571001  0.20304453  1.0
  O  O97  1  0.65254933  0.47078570  0.32829596  1.0
  O  O98  1  0.65601696  0.35604248  0.26969627  1.0
  O  O99  1  0.41851670  0.57697731  0.62085878  1.0
  O  O100  1  0.32728216  0.63382696  0.71320180  1.0
  O  O101  1  0.47693702  0.58345623  0.47460544  1.0
  O  O102  1  0.48908369  0.65395670  0.70016020  1.0
  O  O103  1  0.55515413  0.59393984  0.37706959  1.0
  O  O104  1  0.55983275  0.41665595  0.53648817  1.0
  O  O105  1  0.61715752  0.55996127  0.57340965  1.0
  O  O106  1  0.38003805  0.47128976  0.53377981  1.0
  O  O107  1  0.35471185  0.47518747  0.42011354  1.0
  O  O108  1  0.65671510  0.62725623  0.66074271  1.0
  O  O109  1  0.22243927  0.54244199  0.31382389  1.0
  F  F110  1  0.28166520  0.51934578  0.16320063  1.0
  F  F111  1  0.56071100  0.36213733  0.85926324  1.0
  F  F112  1  0.56539386  0.39230498  0.13806084  1.0
  F  F113  1  0.34353234  0.55842264  0.83457912  1.0
