# generated using pymatgen
data_Zn2H17C36S2BrN2(O2F)4
_symmetry_space_group_name_H-M   'P 1'
_cell_length_a   12.76831679
_cell_length_b   16.36034992
_cell_length_c   17.71591874
_cell_angle_alpha   95.53275521
_cell_angle_beta   90.24766502
_cell_angle_gamma   92.89955298
_symmetry_Int_Tables_number   1
_chemical_formula_structural   Zn2H17C36S2BrN2(O2F)4
_chemical_formula_sum   'Zn2 H17 C36 S2 Br1 N2 O8 F4'
_cell_volume   3678.63718561
_cell_formula_units_Z   1
loop_
 _symmetry_equiv_pos_site_id
 _symmetry_equiv_pos_as_xyz
  1  'x, y, z'
loop_
 _atom_site_type_symbol
 _atom_site_label
 _atom_site_symmetry_multiplicity
 _atom_site_fract_x
 _atom_site_fract_y
 _atom_site_fract_z
 _atom_site_occupancy
  Zn  Zn0  1  0.49709690  0.41384280  0.49827379  1.0
  Zn  Zn1  1  0.50466246  0.58546242  0.50148198  1.0
  H  H2  1  0.39594625  0.71194660  0.42676761  1.0
  H  H3  1  0.39705769  0.86445069  0.42755282  1.0
  H  H4  1  0.64098057  0.87861975  0.60095570  1.0
  H  H5  1  0.36041670  0.12132086  0.39803956  1.0
  H  H6  1  0.60168324  0.13493833  0.57340006  1.0
  H  H7  1  0.60396067  0.28737746  0.57385962  1.0
  H  H8  1  0.58598311  0.00419135  0.56164031  1.0
  H  H9  1  0.41328060  0.99555056  0.43868785  1.0
  H  H10  1  0.50606495  0.61667042  0.26288095  1.0
  H  H11  1  0.50572011  0.61175996  0.12288641  1.0
  H  H12  1  0.49157256  0.34574130  0.11163121  1.0
  H  H13  1  0.50828375  0.65454818  0.88811068  1.0
  H  H14  1  0.49396868  0.38853923  0.87709412  1.0
  H  H15  1  0.49433883  0.38348932  0.73709548  1.0
  H  H16  1  0.49477192  0.40580408  0.99697941  1.0
  H  H17  1  0.50503852  0.59454335  0.00289776  1.0
  H  H18  1  0.86474064  0.62819250  0.50302624  1.0
  C  C19  1  0.49992366  0.49527117  0.35208739  1.0
  C  C20  1  0.29599286  0.50233555  0.50030348  1.0
  C  C21  1  0.50139767  0.50452606  0.64774199  1.0
  C  C22  1  0.70568062  0.49680017  0.49982410  1.0
  C  C23  1  0.44863863  0.75233073  0.46387724  1.0
  C  C24  1  0.45004943  0.83704425  0.46506783  1.0
  C  C25  1  0.51980060  0.88615343  0.51470196  1.0
  C  C26  1  0.58510788  0.84550559  0.56100334  1.0
  C  C27  1  0.57761788  0.76012879  0.55512212  1.0
  C  C28  1  0.52789551  0.97569704  0.52044395  1.0
  C  C29  1  0.47130714  0.02400236  0.47995377  1.0
  C  C30  1  0.41603396  0.15428833  0.43827553  1.0
  C  C31  1  0.47997056  0.11355000  0.48544292  1.0
  C  C32  1  0.54948103  0.16245370  0.53540304  1.0
  C  C33  1  0.55167659  0.24714643  0.53629289  1.0
  C  C34  1  0.42490330  0.23964349  0.44338267  1.0
  C  C35  1  0.49917400  0.48656592  0.26715571  1.0
  C  C36  1  0.50275295  0.55781981  0.22826038  1.0
  C  C37  1  0.50257749  0.55457339  0.14988495  1.0
  C  C38  1  0.49854152  0.47811278  0.10528953  1.0
  C  C39  1  0.49479991  0.40644329  0.14323695  1.0
  C  C40  1  0.49524041  0.41116635  0.22192404  1.0
  C  C41  1  0.49815576  0.46933234  0.02277381  1.0
  C  C42  1  0.50162795  0.53102778  0.97708012  1.0
  C  C43  1  0.50518205  0.59382362  0.85654394  1.0
  C  C44  1  0.50131135  0.52219609  0.89456805  1.0
  C  C45  1  0.49732555  0.44569299  0.85005262  1.0
  C  C46  1  0.49753943  0.44236505  0.77168070  1.0
  C  C47  1  0.50149225  0.51357081  0.73268729  1.0
  C  C48  1  0.50515145  0.58899513  0.77784422  1.0
  C  C49  1  0.10819467  0.43214318  0.49934398  1.0
  C  C50  1  0.89096166  0.56588589  0.50150710  1.0
  C  C51  1  0.18019889  0.49870974  0.50041113  1.0
  C  C52  1  0.82143742  0.49821566  0.50001988  1.0
  C  C53  1  0.99582741  0.54193886  0.50111651  1.0
  C  C54  1  0.00345637  0.45621504  0.49954640  1.0
  S  S55  1  0.11845349  0.59154418  0.50200838  1.0
  S  S56  1  0.88229868  0.40521903  0.49835227  1.0
  Br  Br57  1  0.13750289  0.32031569  0.49775279  1.0
  N  N58  1  0.51243384  0.71365808  0.50865159  1.0
  N  N59  1  0.48936903  0.28591552  0.49059518  1.0
  O  O60  1  0.50168524  0.42996360  0.38528228  1.0
  O  O61  1  0.49898660  0.56835627  0.38467088  1.0
  O  O62  1  0.34114269  0.57361708  0.49851576  1.0
  O  O63  1  0.34052977  0.43478006  0.50207348  1.0
  O  O64  1  0.50002794  0.56974919  0.61420886  1.0
  O  O65  1  0.50249935  0.43139327  0.61554144  1.0
  O  O66  1  0.65859929  0.42622515  0.50145533  1.0
  O  O67  1  0.66324845  0.56532833  0.49801006  1.0
  F  F68  1  0.64029211  0.72073530  0.59866245  1.0
  F  F69  1  0.36505151  0.27909985  0.39813869  1.0
  F  F70  1  0.49138514  0.33838253  0.25305607  1.0
  F  F71  1  0.50921888  0.66175263  0.74658513  1.0
