# generated using pymatgen
data_Zn4H32C58O13
_symmetry_space_group_name_H-M   'P 1'
_cell_length_a   21.65434161
_cell_length_b   21.65433095
_cell_length_c   34.51204241
_cell_angle_alpha   90.00001178
_cell_angle_beta   90.00009163
_cell_angle_gamma   89.99953921
_symmetry_Int_Tables_number   1
_chemical_formula_structural   Zn4H32C58O13
_chemical_formula_sum   'Zn8 H64 C116 O26'
_cell_volume   16183.05145989
_cell_formula_units_Z   2
loop_
 _symmetry_equiv_pos_site_id
 _symmetry_equiv_pos_as_xyz
  1  'x, y, z'
loop_
 _atom_site_type_symbol
 _atom_site_label
 _atom_site_symmetry_multiplicity
 _atom_site_fract_x
 _atom_site_fract_y
 _atom_site_fract_z
 _atom_site_occupancy
  Zn  Zn0  1  0.44747998  0.55252080  0.03257390  1.0
  Zn  Zn1  1  0.44748114  0.44747915  0.96742612  1.0
  Zn  Zn2  1  0.55252077  0.44747811  0.03257336  1.0
  Zn  Zn3  1  0.55252108  0.55252099  0.96742560  1.0
  Zn  Zn4  1  0.55252040  0.44747957  0.46742592  1.0
  Zn  Zn5  1  0.44747873  0.44747954  0.53257414  1.0
  Zn  Zn6  1  0.44747869  0.55251995  0.46742617  1.0
  Zn  Zn7  1  0.55252099  0.55252000  0.53257362  1.0
  H  H8  1  0.56965299  0.25671897  0.04424378  1.0
  H  H9  1  0.56993700  0.14153693  0.04437735  1.0
  H  H10  1  0.43034814  0.25671922  0.95575597  1.0
  H  H11  1  0.43006413  0.14153765  0.95562326  1.0
  H  H12  1  0.49990218  0.05716486  0.93761132  1.0
  H  H13  1  0.50009825  0.05716380  0.06238899  1.0
  H  H14  1  0.43034641  0.74327855  0.04424432  1.0
  H  H15  1  0.43006425  0.85846152  0.04437703  1.0
  H  H16  1  0.56965220  0.74328045  0.95575608  1.0
  H  H17  1  0.56993759  0.85846295  0.95562193  1.0
  H  H18  1  0.49990212  0.94283374  0.06238905  1.0
  H  H19  1  0.50009765  0.94283527  0.93761108  1.0
  H  H20  1  0.42990530  0.57008458  0.15162740  1.0
  H  H21  1  0.38878182  0.61121002  0.21418294  1.0
  H  H22  1  0.57009530  0.42991437  0.15162747  1.0
  H  H23  1  0.61121894  0.38878987  0.21418304  1.0
  H  H24  1  0.57008539  0.42990424  0.34837241  1.0
  H  H25  1  0.61120979  0.38878111  0.28581717  1.0
  H  H26  1  0.42991432  0.57009477  0.34837264  1.0
  H  H27  1  0.38878976  0.61121880  0.28581707  1.0
  H  H28  1  0.42990444  0.42991412  0.84837318  1.0
  H  H29  1  0.38878113  0.38878855  0.78581731  1.0
  H  H30  1  0.57009562  0.57008506  0.84837268  1.0
  H  H31  1  0.61121923  0.61120968  0.78581714  1.0
  H  H32  1  0.57008660  0.57009518  0.65162715  1.0
  H  H33  1  0.61121129  0.61121890  0.71418273  1.0
  H  H34  1  0.42991527  0.42990439  0.65162794  1.0
  H  H35  1  0.38879028  0.38878069  0.71418318  1.0
  H  H36  1  0.74326921  0.42946340  0.04369711  1.0
  H  H37  1  0.85845720  0.42926113  0.04387797  1.0
  H  H38  1  0.74327073  0.57053417  0.95630379  1.0
  H  H39  1  0.85845918  0.57073875  0.95612217  1.0
  H  H40  1  0.94283342  0.59943752  0.99993967  1.0
  H  H41  1  0.94283341  0.40056121  0.00006085  1.0
  H  H42  1  0.25673007  0.42946412  0.95630382  1.0
  H  H43  1  0.14154208  0.42926093  0.95612209  1.0
  H  H44  1  0.25673065  0.57053552  0.04369659  1.0
  H  H45  1  0.14154266  0.57073871  0.04387762  1.0
  H  H46  1  0.05716657  0.40056216  0.99993921  1.0
  H  H47  1  0.05716634  0.59943815  0.00006099  1.0
  H  H48  1  0.25672148  0.56965400  0.45575536  1.0
  H  H49  1  0.14153811  0.56993617  0.45562289  1.0
  H  H50  1  0.25671892  0.43034840  0.54424360  1.0
  H  H51  1  0.14153694  0.43006255  0.54437799  1.0
  H  H52  1  0.05716515  0.49990203  0.56238847  1.0
  H  H53  1  0.05716637  0.50009782  0.43761058  1.0
  H  H54  1  0.74328128  0.43034781  0.45575618  1.0
  H  H55  1  0.85846280  0.43006334  0.45562237  1.0
  H  H56  1  0.74328083  0.56965252  0.54424414  1.0
  H  H57  1  0.85846235  0.56993607  0.54437719  1.0
  H  H58  1  0.94283588  0.49990169  0.43761073  1.0
  H  H59  1  0.94283511  0.50009843  0.56238863  1.0
  H  H60  1  0.42946489  0.74326985  0.45630310  1.0
  H  H61  1  0.42926170  0.85845835  0.45612230  1.0
  H  H62  1  0.57053602  0.74326930  0.54369614  1.0
  H  H63  1  0.57073921  0.85845780  0.54387811  1.0
  H  H64  1  0.59943791  0.94283341  0.50006096  1.0
  H  H65  1  0.40056232  0.94283282  0.49993917  1.0
  H  H66  1  0.42946511  0.25672978  0.54369662  1.0
  H  H67  1  0.42926054  0.14154128  0.54387829  1.0
  H  H68  1  0.57053602  0.25673058  0.45630313  1.0
  H  H69  1  0.57073829  0.14154254  0.45612232  1.0
  H  H70  1  0.40056219  0.05716565  0.50006081  1.0
  H  H71  1  0.59943824  0.05716624  0.49993921  1.0
  C  C72  1  0.33250044  0.49999874  0.99999941  1.0
  C  C73  1  0.50000055  0.33249300  0.00000006  1.0
  C  C74  1  0.50000185  0.49999716  0.10459863  1.0
  C  C75  1  0.66750069  0.50000385  0.99999639  1.0
  C  C76  1  0.50000705  0.66750636  0.99999516  1.0
  C  C77  1  0.50000563  0.50000468  0.89540173  1.0
  C  C78  1  0.49999564  0.33250047  0.50000147  1.0
  C  C79  1  0.33249323  0.49999282  0.50000488  1.0
  C  C80  1  0.50000361  0.49999490  0.39540176  1.0
  C  C81  1  0.50000353  0.66750043  0.50000121  1.0
  C  C82  1  0.66750641  0.49999747  0.49999838  1.0
  C  C83  1  0.49999695  0.49999539  0.60459831  1.0
  C  C84  1  0.50000036  0.26363380  0.99999977  1.0
  C  C85  1  0.53903935  0.23093488  0.02512435  1.0
  C  C86  1  0.53876345  0.16672324  0.02522199  1.0
  C  C87  1  0.46096245  0.23093442  0.97487627  1.0
  C  C88  1  0.46123841  0.16672417  0.97477833  1.0
  C  C89  1  0.50000089  0.13353511  0.00000034  1.0
  C  C90  1  0.50000070  0.06539955  0.99999975  1.0
  C  C91  1  0.49963632  0.03212046  0.96504087  1.0
  C  C92  1  0.50036478  0.03211938  0.03496001  1.0
  C  C93  1  0.49999708  0.73636510  0.00000211  1.0
  C  C94  1  0.46096462  0.76906495  0.02512231  1.0
  C  C95  1  0.46123590  0.83327382  0.02522286  1.0
  C  C96  1  0.53904209  0.76906480  0.97487345  1.0
  C  C97  1  0.53876106  0.83327643  0.97477870  1.0
  C  C98  1  0.50000302  0.86646378  0.99999807  1.0
  C  C99  1  0.50000044  0.93459888  0.00000039  1.0
  C  C100  1  0.49963645  0.96787861  0.03495920  1.0
  C  C101  1  0.50036451  0.96787968  0.96503977  1.0
  C  C102  1  0.46031782  0.53967807  0.16805038  1.0
  C  C103  1  0.45955081  0.54044652  0.20866490  1.0
  C  C104  1  0.41948989  0.58050703  0.23022837  1.0
  C  C105  1  0.53968328  0.46032042  0.16805071  1.0
  C  C106  1  0.54044900  0.45955291  0.20866493  1.0
  C  C107  1  0.58051090  0.41949194  0.23022670  1.0
  C  C108  1  0.53967980  0.46031583  0.33194944  1.0
  C  C109  1  0.54044726  0.45955107  0.29133492  1.0
  C  C110  1  0.58050865  0.41948872  0.26977319  1.0
  C  C111  1  0.46032126  0.53968133  0.33194940  1.0
  C  C112  1  0.45955277  0.54044930  0.29133517  1.0
  C  C113  1  0.41949271  0.58050981  0.26977138  1.0
  C  C114  1  0.50000006  0.49999947  0.14791250  1.0
  C  C115  1  0.50000017  0.49999949  0.22940956  1.0
  C  C116  1  0.49999894  0.49999997  0.35208790  1.0
  C  C117  1  0.50000068  0.49999949  0.27059026  1.0
  C  C118  1  0.46031852  0.46032177  0.83194965  1.0
  C  C119  1  0.45955050  0.45955194  0.79133571  1.0
  C  C120  1  0.41949077  0.41949175  0.76977133  1.0
  C  C121  1  0.53968427  0.53967925  0.83194941  1.0
  C  C122  1  0.54044942  0.54044583  0.79133518  1.0
  C  C123  1  0.58051187  0.58050740  0.76977142  1.0
  C  C124  1  0.53967898  0.53968153  0.66805068  1.0
  C  C125  1  0.54044839  0.54044951  0.70866433  1.0
  C  C126  1  0.58050859  0.58050924  0.73022870  1.0
  C  C127  1  0.46032108  0.46031620  0.66805092  1.0
  C  C128  1  0.45955409  0.45955054  0.70866515  1.0
  C  C129  1  0.41949302  0.41948852  0.73022919  1.0
  C  C130  1  0.49999958  0.49999867  0.85208786  1.0
  C  C131  1  0.50000132  0.50000004  0.77059022  1.0
  C  C132  1  0.50000162  0.50000002  0.64791218  1.0
  C  C133  1  0.49999988  0.49999911  0.72941010  1.0
  C  C134  1  0.73635248  0.49999619  0.00000222  1.0
  C  C135  1  0.76905189  0.45994264  0.02448470  1.0
  C  C136  1  0.83326210  0.45979599  0.02432218  1.0
  C  C137  1  0.76905139  0.54006026  0.97551216  1.0
  C  C138  1  0.83326346  0.54019900  0.97568054  1.0
  C  C139  1  0.86645341  0.50000259  0.99999881  1.0
  C  C140  1  0.93459956  0.49999816  0.00000087  1.0
  C  C141  1  0.96787892  0.55572238  0.99977655  1.0
  C  C142  1  0.96787948  0.44427892  0.00022486  1.0
  C  C143  1  0.26364819  0.50000040  0.00000111  1.0
  C  C144  1  0.23094946  0.45993988  0.97551334  1.0
  C  C145  1  0.16673740  0.45979929  0.97568020  1.0
  C  C146  1  0.23094931  0.54005857  0.02448588  1.0
  C  C147  1  0.16673724  0.54020245  0.02432098  1.0
  C  C148  1  0.13354680  0.49999861  0.99999960  1.0
  C  C149  1  0.06540019  0.50000073  0.00000043  1.0
  C  C150  1  0.03212060  0.44427685  0.99977607  1.0
  C  C151  1  0.03212073  0.55572090  0.00022440  1.0
  C  C152  1  0.26363452  0.50000418  0.49999731  1.0
  C  C153  1  0.23093465  0.53903622  0.47487795  1.0
  C  C154  1  0.16672628  0.53876540  0.47477708  1.0
  C  C155  1  0.23093457  0.46095900  0.52512678  1.0
  C  C156  1  0.16672342  0.46124004  0.52522092  1.0
  C  C157  1  0.13353589  0.49999731  0.50000217  1.0
  C  C158  1  0.06540083  0.50000035  0.49999895  1.0
  C  C159  1  0.03212071  0.49963660  0.53496006  1.0
  C  C160  1  0.03212108  0.50036346  0.46504041  1.0
  C  C161  1  0.73636604  0.50000135  0.50000073  1.0
  C  C162  1  0.76906539  0.46096099  0.47487503  1.0
  C  C163  1  0.83327653  0.46123827  0.47477828  1.0
  C  C164  1  0.76906606  0.53903776  0.52512358  1.0
  C  C165  1  0.83327536  0.53876319  0.52522184  1.0
  C  C166  1  0.86646513  0.49999944  0.49999906  1.0
  C  C167  1  0.93460019  0.50000009  0.50000025  1.0
  C  C168  1  0.96788078  0.49963559  0.46503943  1.0
  C  C169  1  0.96787948  0.50036479  0.53495908  1.0
  C  C170  1  0.49999956  0.73635225  0.49999831  1.0
  C  C171  1  0.45994277  0.76905164  0.47551409  1.0
  C  C172  1  0.45979843  0.83326235  0.47567867  1.0
  C  C173  1  0.54006071  0.76905040  0.52448718  1.0
  C  C174  1  0.54020084  0.83326250  0.52432028  1.0
  C  C175  1  0.50000181  0.86645278  0.50000064  1.0
  C  C176  1  0.49999876  0.93459943  0.50000006  1.0
  C  C177  1  0.55572279  0.96787892  0.50022378  1.0
  C  C178  1  0.44427955  0.96787845  0.49977577  1.0
  C  C179  1  0.50000100  0.26364774  0.49999799  1.0
  C  C180  1  0.45993899  0.23094867  0.52448739  1.0
  C  C181  1  0.45979932  0.16673750  0.52431991  1.0
  C  C182  1  0.54005727  0.23094880  0.47551409  1.0
  C  C183  1  0.54020207  0.16673809  0.47567838  1.0
  C  C184  1  0.49999737  0.13354628  0.50000088  1.0
  C  C185  1  0.50000134  0.06540010  0.49999972  1.0
  C  C186  1  0.44427731  0.03212060  0.50022396  1.0
  C  C187  1  0.55572055  0.03212062  0.49977548  1.0
  O  O188  1  0.50000126  0.49999945  0.99999920  1.0
  O  O189  1  0.35927740  0.53730895  0.02327739  1.0
  O  O190  1  0.46280499  0.35926994  0.97665305  1.0
  O  O191  1  0.53719822  0.46279382  0.08786478  1.0
  O  O192  1  0.35927707  0.46269170  0.97672342  1.0
  O  O193  1  0.46280129  0.53720326  0.08786301  1.0
  O  O194  1  0.53719578  0.35927041  0.02334729  1.0
  O  O195  1  0.64072103  0.46268718  0.02327752  1.0
  O  O196  1  0.53719356  0.64073158  0.97665427  1.0
  O  O197  1  0.64072610  0.53730521  0.97672356  1.0
  O  O198  1  0.46280218  0.64072618  0.02334785  1.0
  O  O199  1  0.46280126  0.46279380  0.91213819  1.0
  O  O200  1  0.53719805  0.53720448  0.91213446  1.0
  O  O201  1  0.50000005  0.50000138  0.50000004  1.0
  O  O202  1  0.53730950  0.35927787  0.47672208  1.0
  O  O203  1  0.35926725  0.46280754  0.52334573  1.0
  O  O204  1  0.46279339  0.53719823  0.41213794  1.0
  O  O205  1  0.46269081  0.35927449  0.52327507  1.0
  O  O206  1  0.53720371  0.46280173  0.41213536  1.0
  O  O207  1  0.35927382  0.53719773  0.47665073  1.0
  O  O208  1  0.46269054  0.64072164  0.47672264  1.0
  O  O209  1  0.64072783  0.53719615  0.52334761  1.0
  O  O210  1  0.53730935  0.64072458  0.52327571  1.0
  O  O211  1  0.64073130  0.46280594  0.47665376  1.0
  O  O212  1  0.46279622  0.46280252  0.58786442  1.0
  O  O213  1  0.53720779  0.53719842  0.58786243  1.0
