# generated using pymatgen
data_ZnH6C14N4O2F3
_symmetry_space_group_name_H-M   'P 1'
_cell_length_a   17.98416469
_cell_length_b   17.99910969
_cell_length_c   18.59091525
_cell_angle_alpha   115.51649051
_cell_angle_beta   105.34980262
_cell_angle_gamma   106.29832308
_symmetry_Int_Tables_number   1
_chemical_formula_structural   ZnH6C14N4O2F3
_chemical_formula_sum   'Zn4 H24 C56 N16 O8 F12'
_cell_volume   4667.64045198
_cell_formula_units_Z   4
loop_
 _symmetry_equiv_pos_site_id
 _symmetry_equiv_pos_as_xyz
  1  'x, y, z'
loop_
 _atom_site_type_symbol
 _atom_site_label
 _atom_site_symmetry_multiplicity
 _atom_site_fract_x
 _atom_site_fract_y
 _atom_site_fract_z
 _atom_site_occupancy
  Zn  Zn116  1  0.49553635  0.88185458  0.36905692  1.0
  Zn  Zn117  1  0.51284617  0.12648845  0.63095715  1.0
  Zn  Zn118  1  0.39593484  0.89590291  0.49999896  1.0
  Zn  Zn119  1  0.61262870  0.11261584  0.50002246  1.0
  H  H68  1  0.44939628  0.36680023  0.62544841  1.0
  H  H69  1  0.41752272  0.21708904  0.71284506  1.0
  H  H70  1  0.31119104  0.12139574  0.65418655  1.0
  H  H71  1  0.32357894  0.23626620  0.69253654  1.0
  H  H72  1  0.52935680  0.46622931  0.73392309  1.0
  H  H73  1  0.43559312  0.38356562  0.72242762  1.0
  H  H74  1  0.50418965  0.70474742  0.28734538  1.0
  H  H75  1  0.46760137  0.65697029  0.34616937  1.0
  H  H76  1  0.54415750  0.63136404  0.30750927  1.0
  H  H77  1  0.74130173  0.82376279  0.37433268  1.0
  H  H78  1  0.73227770  0.79534158  0.26580776  1.0
  H  H79  1  0.66104961  0.71319432  0.27734464  1.0
  H  H80  1  0.43527342  0.20931708  0.31050718  1.0
  H  H81  1  0.54146433  0.22676952  0.31909806  1.0
  H  H82  1  0.52933165  0.31069740  0.40659636  1.0
  H  H83  1  0.28748382  0.82408810  0.71564041  1.0
  H  H84  1  0.38170611  0.80868073  0.71407199  1.0
  H  H85  1  0.27653881  0.72271422  0.62335436  1.0
  H  H86  1  0.89908299  0.12528068  0.68957156  1.0
  H  H87  1  0.90758391  0.22260392  0.68070154  1.0
  H  H88  1  0.90435853  0.12314525  0.59335916  1.0
  H  H89  1  0.10812520  0.57233319  0.28424303  1.0
  H  H90  1  0.09474268  0.66833264  0.28604220  1.0
  H  H91  1  0.09909115  0.65366703  0.37662603  1.0
  C  C0  1  0.31601656  0.70417495  0.23859452  1.0
  C  C1  1  0.63155788  0.45995002  0.64913590  1.0
  C  C2  1  0.34983240  0.18827316  0.66575467  1.0
  C  C3  1  0.48289326  0.39303675  0.69632178  1.0
  C  C4  1  0.52276307  0.68417637  0.33439875  1.0
  C  C5  1  0.69667500  0.78653130  0.30348173  1.0
  C  C6  1  0.50313017  0.23710794  0.35646695  1.0
  C  C7  1  0.31764024  0.79662255  0.67306708  1.0
  C  C8  1  0.88080773  0.14700654  0.64348827  1.0
  C  C9  1  0.12340510  0.64503006  0.32692662  1.0
  C  C10  1  0.17691238  0.02594795  0.41618889  1.0
  C  C11  1  0.81085853  0.98235099  0.35076325  1.0
  C  C12  1  0.60986712  0.76069214  0.58387906  1.0
  C  C13  1  0.64033139  0.63449779  0.60156378  1.0
  C  C14  1  0.63526389  0.61133343  0.66164157  1.0
  C  C15  1  0.03297718  0.03871566  0.39843474  1.0
  C  C16  1  0.68568240  0.15431013  0.73348215  1.0
  C  C17  1  0.94981441  0.97364337  0.33821951  1.0
  C  C18  1  0.63723631  0.53290311  0.65750597  1.0
  C  C19  1  0.62815457  0.70567650  0.59709407  1.0
  C  C20  1  0.87546604  0.97968060  0.34231742  1.0
  C  C21  1  0.10864916  0.03101285  0.40291301  1.0
  C  C22  1  0.46556703  0.07731288  0.76139475  1.0
  C  C23  1  0.57128059  0.32098933  0.66084148  1.0
  C  C24  1  0.57341845  0.81199047  0.47869466  1.0
  C  C25  1  0.66017633  0.91042972  0.33911327  1.0
  C  C26  1  0.33333333  0.09463678  0.52138330  1.0
  C  C27  1  0.42086171  0.95222927  0.26665447  1.0
  C  C28  1  0.27947437  0.95244189  0.40788944  1.0
  C  C29  1  0.72414785  0.06117930  0.40726313  1.0
  C  C30  1  0.54460576  0.87154361  0.59221903  1.0
  C  C31  1  0.65399771  0.31683532  0.59268806  1.0
  C  C32  1  0.47900322  0.10192705  0.36039276  1.0
  C  C33  1  0.37812814  0.92912809  0.66842598  1.0
  C  C34  1  0.74168840  0.11873516  0.63966320  1.0
  C  C35  1  0.26066880  0.70977615  0.33159141  1.0
  C  C36  1  0.23956372  0.65612839  0.23955170  1.0
  C  C37  1  0.76659970  0.16680474  0.73279670  1.0
  C  C38  1  0.41649732  0.99998928  0.76044422  1.0
  C  C39  1  0.43394189  0.03372355  0.26729806  1.0
  C  C40  1  0.62050793  0.37449207  0.63626156  1.0
  C  C41  1  0.58216320  0.81423083  0.55804923  1.0
  C  C42  1  0.73825725  0.98417197  0.36367635  1.0
  C  C43  1  0.25629720  0.02410568  0.44204392  1.0
  C  C44  1  0.41751178  0.03892204  0.19237899  1.0
  C  C45  1  0.40870833  0.00048232  0.83320942  1.0
  C  C46  1  0.84670677  0.22536495  0.80773309  1.0
  C  C47  1  0.16728886  0.57561605  0.16679588  1.0
  C  C48  1  0.40877453  0.03318793  0.12189698  1.0
  C  C49  1  0.40638197  0.00910773  0.90186872  1.0
  C  C50  1  0.91140792  0.28709473  0.87821288  1.0
  C  C51  1  0.10727663  0.50464535  0.09819468  1.0
  C  C52  1  0.40479851  0.02639683  0.04627047  1.0
  C  C53  1  0.40445371  0.01777857  0.97643790  1.0
  C  C54  1  0.98021011  0.35874664  0.95381234  1.0
  C  C55  1  0.04138827  0.42818202  0.02363586  1.0
  N  N92  1  0.37582542  0.77606279  0.31821363  1.0
  N  N93  1  0.53610969  0.86435232  0.47005408  1.0
  N  N94  1  0.60765782  0.94274715  0.36615620  1.0
  N  N95  1  0.39435292  0.06597325  0.53002065  1.0
  N  N96  1  0.57657843  0.24150326  0.63382930  1.0
  N  N97  1  0.36031714  0.97570791  0.45995758  1.0
  N  N98  1  0.64823610  0.03861636  0.40910125  1.0
  N  N99  1  0.51584538  0.90033868  0.54015813  1.0
  N  N100  1  0.62067567  0.10679020  0.65288804  1.0
  N  N101  1  0.62959395  0.23915091  0.59086373  1.0
  N  N102  1  0.49172739  0.06278467  0.40756255  1.0
  N  N103  1  0.40204295  0.96339618  0.62232803  1.0
  N  N104  1  0.65536615  0.08424139  0.59254008  1.0
  N  N105  1  0.34103833  0.77969994  0.37767802  1.0
  N  N106  1  0.45788403  0.05752027  0.68175668  1.0
  N  N107  1  0.45398939  0.96784640  0.34727372  1.0
  O  O108  1  0.52602697  0.33919473  0.70750753  1.0
  O  O109  1  0.32485646  0.83841345  0.62250791  1.0
  O  O110  1  0.78801761  0.10406550  0.59377160  1.0
  O  O111  1  0.21578416  0.70245186  0.37752953  1.0
  O  O112  1  0.51011232  0.19404638  0.40618619  1.0
  O  O113  1  0.59583748  0.76199999  0.41789994  1.0
  O  O114  1  0.63171092  0.81861365  0.29244399  1.0
  O  O115  1  0.34403561  0.17774287  0.58214562  1.0
  F  F56  1  0.33217601  0.68168121  0.16783227  1.0
  F  F57  1  0.77866580  0.15005877  0.44622841  1.0
  F  F58  1  0.53460671  0.89571303  0.66666667  1.0
  F  F59  1  0.70399897  0.33237899  0.55370123  1.0
  F  F60  1  0.22926018  0.86811597  0.33348279  1.0
  F  F61  1  0.62196032  0.66768575  0.72990753  1.0
  F  F62  1  0.65366740  0.57724856  0.53369567  1.0
  F  F63  1  0.93806174  0.89229618  0.26988953  1.0
  F  F64  1  0.67189968  0.18733834  0.80574728  1.0
  F  F65  1  0.04346636  0.11973016  0.46637235  1.0
  F  F66  1  0.51383049  0.16412404  0.83214605  1.0
  F  F67  1  0.38164521  0.86627942  0.19441292  1.0
