# generated using pymatgen
data_Ga2P2H13C4N3O8
_symmetry_space_group_name_H-M   'P 1'
_cell_length_a   13.47550457
_cell_length_b   14.20997243
_cell_length_c   14.21033311
_cell_angle_alpha   110.50006506
_cell_angle_beta   108.42052949
_cell_angle_gamma   108.41863894
_symmetry_Int_Tables_number   1
_chemical_formula_structural   Ga2P2H13C4N3O8
_chemical_formula_sum   'Ga12 P12 H78 C24 N18 O48'
_cell_volume   2121.30849458
_cell_formula_units_Z   6
loop_
 _symmetry_equiv_pos_site_id
 _symmetry_equiv_pos_as_xyz
  1  'x, y, z'
loop_
 _atom_site_type_symbol
 _atom_site_label
 _atom_site_symmetry_multiplicity
 _atom_site_fract_x
 _atom_site_fract_y
 _atom_site_fract_z
 _atom_site_occupancy
  Ga  Ga0  1  0.97669920  0.83062156  0.45706339  1.0
  Ga  Ga1  1  0.14598722  0.62639759  0.16933072  1.0
  Ga  Ga2  1  0.51962983  0.54293245  0.37358468  1.0
  Ga  Ga3  1  0.02330096  0.16937845  0.54293587  1.0
  Ga  Ga4  1  0.85401131  0.37360205  0.83066684  1.0
  Ga  Ga5  1  0.48036957  0.45707016  0.62641459  1.0
  Ga  Ga6  1  0.31891529  0.12976667  0.58546728  1.0
  Ga  Ga7  1  0.18907491  0.45566225  0.87026717  1.0
  Ga  Ga8  1  0.73340703  0.41458908  0.54429755  1.0
  Ga  Ga9  1  0.68108572  0.87023491  0.41453369  1.0
  Ga  Ga10  1  0.81092454  0.54433746  0.12973381  1.0
  Ga  Ga11  1  0.26659426  0.58541026  0.45570085  1.0
  P  P12  1  0.11925729  0.05499530  0.66081010  1.0
  P  P13  1  0.06432919  0.60589381  0.94511272  1.0
  P  P14  1  0.45841247  0.33913417  0.39406926  1.0
  P  P15  1  0.88074715  0.94500830  0.33919773  1.0
  P  P16  1  0.93566315  0.39409305  0.05489768  1.0
  P  P17  1  0.54157944  0.66083938  0.60591373  1.0
  P  P18  1  0.71014477  0.64550147  0.31165366  1.0
  P  P19  1  0.06464061  0.66608497  0.35452158  1.0
  P  P20  1  0.39847234  0.68836351  0.33383546  1.0
  P  P21  1  0.28985780  0.35449776  0.68834732  1.0
  P  P22  1  0.93536109  0.33391269  0.64547768  1.0
  P  P23  1  0.60152506  0.31163610  0.66616295  1.0
  H  H24  1  0.48226610  0.16370651  0.76877198  1.0
  H  H25  1  0.31856912  0.60489687  0.83628997  1.0
  H  H26  1  0.71369687  0.23134561  0.39495035  1.0
  H  H27  1  0.51773456  0.83629385  0.23122985  1.0
  H  H28  1  0.68142818  0.39510139  0.16370672  1.0
  H  H29  1  0.28630095  0.76865443  0.60504892  1.0
  H  H30  1  0.34717944  0.10764687  0.76278421  1.0
  H  H31  1  0.23951129  0.65505735  0.89228715  1.0
  H  H32  1  0.58450737  0.23719962  0.34486366  1.0
  H  H33  1  0.65281967  0.89235445  0.23721763  1.0
  H  H34  1  0.76048964  0.34494078  0.10771211  1.0
  H  H35  1  0.41548775  0.76280062  0.65513646  1.0
  H  H36  1  0.21831193  0.90867821  0.45660013  1.0
  H  H37  1  0.30950983  0.54782135  0.09133008  1.0
  H  H38  1  0.76167756  0.54348809  0.45213001  1.0
  H  H39  1  0.78168753  0.09132220  0.54340085  1.0
  H  H40  1  0.69049119  0.45218093  0.90867089  1.0
  H  H41  1  0.23832295  0.45651032  0.54786840  1.0
  H  H42  1  0.29519941  0.19411159  0.43406297  1.0
  H  H43  1  0.10093029  0.23991853  0.80591633  1.0
  H  H44  1  0.86105777  0.56591454  0.76002085  1.0
  H  H45  1  0.70480117  0.80588745  0.56593715  1.0
  H  H46  1  0.89907001  0.76008133  0.19408636  1.0
  H  H47  1  0.13894162  0.43408525  0.23997842  1.0
  H  H48  1  0.16086527  0.12311666  0.41966747  1.0
  H  H49  1  0.03771207  0.29661455  0.87704492  1.0
  H  H50  1  0.74116132  0.58041346  0.70353028  1.0
  H  H51  1  0.83913524  0.87688246  0.58033094  1.0
  H  H52  1  0.96228858  0.70338581  0.12295691  1.0
  H  H53  1  0.25883835  0.41958551  0.29646642  1.0
  H  H54  1  0.45492719  0.97978556  0.72683145  1.0
  H  H55  1  0.47500356  0.74697156  0.02021834  1.0
  H  H56  1  0.72800903  0.27332075  0.25288603  1.0
  H  H57  1  0.54507035  0.02021389  0.27317039  1.0
  H  H58  1  0.52499496  0.25302808  0.97977921  1.0
  H  H59  1  0.27198991  0.72667720  0.74711238  1.0
  H  H60  1  0.29793134  0.92578164  0.64905121  1.0
  H  H61  1  0.37195822  0.72316108  0.07418375  1.0
  H  H62  1  0.64887424  0.35117388  0.27691771  1.0
  H  H63  1  0.70206697  0.07421874  0.35095062  1.0
  H  H64  1  0.62804109  0.27683878  0.92581380  1.0
  H  H65  1  0.35112592  0.64882614  0.72308155  1.0
  H  H66  1  0.28248959  0.89301728  0.31406720  1.0
  H  H67  1  0.38931742  0.42090925  0.10694495  1.0
  H  H68  1  0.96830798  0.68604438  0.57899859  1.0
  H  H69  1  0.71751148  0.10698140  0.68593549  1.0
  H  H70  1  0.61068439  0.57909186  0.89305603  1.0
  H  H71  1  0.03169288  0.31395383  0.42099896  1.0
  H  H72  1  0.39459386  0.04049983  0.40929090  1.0
  H  H73  1  0.35397174  0.36866939  0.95945312  1.0
  H  H74  1  0.98526971  0.59081585  0.63124558  1.0
  H  H75  1  0.60540764  0.95949998  0.59071264  1.0
  H  H76  1  0.64602650  0.63132966  0.04054700  1.0
  H  H77  1  0.01473001  0.40918234  0.36875283  1.0
  H  H78  1  0.38086393  0.87066716  0.51448868  1.0
  H  H79  1  0.51004108  0.64375071  0.12934439  1.0
  H  H80  1  0.86629788  0.48562059  0.35619541  1.0
  H  H81  1  0.61913437  0.12933251  0.48551315  1.0
  H  H82  1  0.48996108  0.35625161  0.87065573  1.0
  H  H83  1  0.13370185  0.51437759  0.64380300  1.0
  H  H84  1  0.47893592  0.01931067  0.57438008  1.0
  H  H85  1  0.45955880  0.55502479  0.98070388  1.0
  H  H86  1  0.90454364  0.42567660  0.44488235  1.0
  H  H87  1  0.52106238  0.98068900  0.42562175  1.0
  H  H88  1  0.54044136  0.44497453  0.01929539  1.0
  H  H89  1  0.09545608  0.57432159  0.55511606  1.0
  H  H90  1  0.22204280  0.02847216  0.26607713  1.0
  H  H91  1  0.19344405  0.23750120  0.97146074  1.0
  H  H92  1  0.95586619  0.73394001  0.76247008  1.0
  H  H93  1  0.77796055  0.97152729  0.73392385  1.0
  H  H94  1  0.80655711  0.76250092  0.02854366  1.0
  H  H95  1  0.04413510  0.26606003  0.23752832  1.0
  H  H96  1  0.12442110  0.94948543  0.30359158  1.0
  H  H97  1  0.17483748  0.35399293  0.05055486  1.0
  H  H98  1  0.82076568  0.69652866  0.64602562  1.0
  H  H99  1  0.87557941  0.05051298  0.69640683  1.0
  H  H100  1  0.82516282  0.64600903  0.94944782  1.0
  H  H101  1  0.17923483  0.30347117  0.35397279  1.0
  C  C102  1  0.38555912  0.98646123  0.66737206  1.0
  C  C103  1  0.39896982  0.68082864  0.01353976  1.0
  C  C104  1  0.71817579  0.33276746  0.31912300  1.0
  C  C105  1  0.61443919  0.01353915  0.33262977  1.0
  C  C106  1  0.60103070  0.31917189  0.98645865  1.0
  C  C107  1  0.28182323  0.66723182  0.68087712  1.0
  C  C108  1  0.39231298  0.95757656  0.55581155  1.0
  C  C109  1  0.43461505  0.59816990  0.04243148  1.0
  C  C110  1  0.83647332  0.44428365  0.40178378  1.0
  C  C111  1  0.60768568  0.04242291  0.44418942  1.0
  C  C112  1  0.56538512  0.40183153  0.95756779  1.0
  C  C113  1  0.16352683  0.55571495  0.59821548  1.0
  C  C114  1  0.30459263  0.97637167  0.38107790  1.0
  C  C115  1  0.32809681  0.40459973  0.02360273  1.0
  C  C116  1  0.92344429  0.61902017  0.59534611  1.0
  C  C117  1  0.69540845  0.02362772  0.61892479  1.0
  C  C118  1  0.67190265  0.59540139  0.97639825  1.0
  C  C119  1  0.07655622  0.38097894  0.40465230  1.0
  C  C120  1  0.21547935  0.01505492  0.33585821  1.0
  C  C121  1  0.20029782  0.32071634  0.98492967  1.0
  C  C122  1  0.87952562  0.66419161  0.67927111  1.0
  C  C123  1  0.78452202  0.98494505  0.66414191  1.0
  C  C124  1  0.79970405  0.67928540  0.01507302  1.0
  C  C125  1  0.12047488  0.33580610  0.32072730  1.0
  N  N126  1  0.39541567  0.10135470  0.71839300  1.0
  N  N127  1  0.29401304  0.61693778  0.89862688  1.0
  N  N128  1  0.67712059  0.28167347  0.38299378  1.0
  N  N129  1  0.60458456  0.89864593  0.28160797  1.0
  N  N130  1  0.70598287  0.38306340  0.10137324  1.0
  N  N131  1  0.32288440  0.71832777  0.61700891  1.0
  N  N132  1  0.30060498  0.97177194  0.48177866  1.0
  N  N133  1  0.32873280  0.50991774  0.02823592  1.0
  N  N134  1  0.81881214  0.51831600  0.49005330  1.0
  N  N135  1  0.69939376  0.02822746  0.51822403  1.0
  N  N136  1  0.67126900  0.49008337  0.97176506  1.0
  N  N137  1  0.18118837  0.48168311  0.50994511  1.0
  N  N138  1  0.23958176  0.12213401  0.43064411  1.0
  N  N139  1  0.11734998  0.30849488  0.87791967  1.0
  N  N140  1  0.80885589  0.56938220  0.69150806  1.0
  N  N141  1  0.76041797  0.87786487  0.56935430  1.0
  N  N142  1  0.88265033  0.69150568  0.12208302  1.0
  N  N143  1  0.19114462  0.43061761  0.30849034  1.0
  O  O144  1  0.16015404  0.04479713  0.56812286  1.0
  O  O145  1  0.11549822  0.52349769  0.95547183  1.0
  O  O146  1  0.59199065  0.43185330  0.47642961  1.0
  O  O147  1  0.83984373  0.95520511  0.43187470  1.0
  O  O148  1  0.88450005  0.47650629  0.04452829  1.0
  O  O149  1  0.40801680  0.56815420  0.52357480  1.0
  O  O150  1  0.01760697  0.92789109  0.60706414  1.0
  O  O151  1  0.08955909  0.67921142  0.07215454  1.0
  O  O152  1  0.41039702  0.39298426  0.32084787  1.0
  O  O153  1  0.98239069  0.07210697  0.39293169  1.0
  O  O154  1  0.91043708  0.32078753  0.92784301  1.0
  O  O155  1  0.58960238  0.60701975  0.67915139  1.0
  O  O156  1  0.05484568  0.13177684  0.65881334  1.0
  O  O157  1  0.92320495  0.52705315  0.86818804  1.0
  O  O158  1  0.39614997  0.34111553  0.47297369  1.0
  O  O159  1  0.94515093  0.86822253  0.34118507  1.0
  O  O160  1  0.07679407  0.47294754  0.13181208  1.0
  O  O161  1  0.60384949  0.65888559  0.52702729  1.0
  O  O162  1  0.21405439  0.10186083  0.77990291  1.0
  O  O163  1  0.11240805  0.67817021  0.89831289  1.0
  O  O164  1  0.43413660  0.22007296  0.32177329  1.0
  O  O165  1  0.78593723  0.89813466  0.22008865  1.0
  O  O166  1  0.88759664  0.32184059  0.10168123  1.0
  O  O167  1  0.56586930  0.77994807  0.67823883  1.0
  O  O168  1  0.83434565  0.71157276  0.42113642  1.0
  O  O169  1  0.12282222  0.70955949  0.28850204  1.0
  O  O170  1  0.41326201  0.57890008  0.29041984  1.0
  O  O171  1  0.16565769  0.28842528  0.57886456  1.0
  O  O172  1  0.87717638  0.29044076  0.71149722  1.0
  O  O173  1  0.58673895  0.42110299  0.70957943  1.0
  O  O174  1  0.63197948  0.54371750  0.32196594  1.0
  O  O175  1  0.08819876  0.77813371  0.45632825  1.0
  O  O176  1  0.30992699  0.67802363  0.22177554  1.0
  O  O177  1  0.36802232  0.45628291  0.67803504  1.0
  O  O178  1  0.91179940  0.22186472  0.54367016  1.0
  O  O179  1  0.69007325  0.32197772  0.77822544  1.0
  O  O180  1  0.71586964  0.59659593  0.20085065  1.0
  O  O181  1  0.11924003  0.60417180  0.40342755  1.0
  O  O182  1  0.51490500  0.79918522  0.39564890  1.0
  O  O183  1  0.28413301  0.40340532  0.79915204  1.0
  O  O184  1  0.88076454  0.39583113  0.59657428  1.0
  O  O185  1  0.48509474  0.20081718  0.60434950  1.0
  O  O186  1  0.65082724  0.72156280  0.31014959  1.0
  O  O187  1  0.92929860  0.58849702  0.27838164  1.0
  O  O188  1  0.34076765  0.68986506  0.41149486  1.0
  O  O189  1  0.34917696  0.27843890  0.68985309  1.0
  O  O190  1  0.07070266  0.41149809  0.72161676  1.0
  O  O191  1  0.65923451  0.31013726  0.58850526  1.0
