# generated using pymatgen
data_AlH9C14NO5
_symmetry_space_group_name_H-M   'P 1'
_cell_length_a   6.61089224
_cell_length_b   11.03399876
_cell_length_c   17.72383002
_cell_angle_alpha   91.43395661
_cell_angle_beta   99.80357210
_cell_angle_gamma   105.93914140
_symmetry_Int_Tables_number   1
_chemical_formula_structural   AlH9C14NO5
_chemical_formula_sum   'Al2 H18 C28 N2 O10'
_cell_volume   1221.47803424
_cell_formula_units_Z   2
loop_
 _symmetry_equiv_pos_site_id
 _symmetry_equiv_pos_as_xyz
  1  'x, y, z'
loop_
 _atom_site_type_symbol
 _atom_site_label
 _atom_site_symmetry_multiplicity
 _atom_site_fract_x
 _atom_site_fract_y
 _atom_site_fract_z
 _atom_site_occupancy
  Al  Al0  1  0.00723599  0.49379992  0.50455496  1.0
  Al  Al1  1  0.50623494  0.49434228  0.50319326  1.0
  H  H2  1  0.35061057  0.65043270  0.53641097  1.0
  H  H3  1  0.66149077  0.34421463  0.45278437  1.0
  H  H4  1  0.81006380  0.43577108  0.27420910  1.0
  H  H5  1  0.72657715  0.44328075  0.13165162  1.0
  H  H6  1  0.40056765  0.59790416  0.12978176  1.0
  H  H7  1  0.48162245  0.58412607  0.27175736  1.0
  H  H8  1  0.59018687  0.43311271  0.87806878  1.0
  H  H9  1  0.52074525  0.42718245  0.73458457  1.0
  H  H10  1  0.19576520  0.56895843  0.73720320  1.0
  H  H11  1  0.26775417  0.58149091  0.88085825  1.0
  H  H12  1  0.55028104  0.75789131  0.39941518  1.0
  H  H13  1  0.33147346  0.87305085  0.32132548  1.0
  H  H14  1  0.80400064  0.22566471  0.40269892  1.0
  H  H15  1  0.46052175  0.10905845  0.32239078  1.0
  H  H16  1  0.47202150  0.21160552  0.57019118  1.0
  H  H17  1  0.51975660  0.06970481  0.57808780  1.0
  H  H18  1  0.20433221  0.77691302  0.59250642  1.0
  H  H19  1  0.35128749  0.92174402  0.63344256  1.0
  C  C20  1  0.86483759  0.72108150  0.49715285  1.0
  C  C21  1  0.81193923  0.49692885  0.64249528  1.0
  C  C22  1  0.14454902  0.26675527  0.50600104  1.0
  C  C23  1  0.19799399  0.49598443  0.36521018  1.0
  C  C24  1  0.15061900  0.50753818  0.28097184  1.0
  C  C25  1  0.93752795  0.47014470  0.24166329  1.0
  C  C26  1  0.89141204  0.47501990  0.16265268  1.0
  C  C27  1  0.05845582  0.51968175  0.12116982  1.0
  C  C28  1  0.27197462  0.56131387  0.16154416  1.0
  C  C29  1  0.31715021  0.55408827  0.24043461  1.0
  C  C30  1  0.01310151  0.51957542  0.04025904  1.0
  C  C31  1  0.97480353  0.51488319  0.97018583  1.0
  C  C32  1  0.93359092  0.50882926  0.88902429  1.0
  C  C33  1  0.72208863  0.46417836  0.84706097  1.0
  C  C34  1  0.68336235  0.46015179  0.76741119  1.0
  C  C35  1  0.85410649  0.49853413  0.72774706  1.0
  C  C36  1  0.06489777  0.54070585  0.76893639  1.0
  C  C37  1  0.10464560  0.54700912  0.84859536  1.0
  C  C38  1  0.93430851  0.86058152  0.49560608  1.0
  C  C39  1  0.80070637  0.92552861  0.45091123  1.0
  C  C40  1  0.13396767  0.92606141  0.53838823  1.0
  C  C41  1  0.60457026  0.86061683  0.40217220  1.0
  C  C42  1  0.48198005  0.92527871  0.35798498  1.0
  C  C43  1  0.07502795  0.12656597  0.49932167  1.0
  C  C44  1  0.21051191  0.06125213  0.53723538  1.0
  C  C45  1  0.87110230  0.06076797  0.45362554  1.0
  C  C46  1  0.74453413  0.12386341  0.40538969  1.0
  C  C47  1  0.55359841  0.05807533  0.35905902  1.0
  N  N48  1  0.41172605  0.11945117  0.58025490  1.0
  N  N49  1  0.26872248  0.86920740  0.58414687  1.0
  O  O50  1  0.00293875  0.66321799  0.48790180  1.0
  O  O51  1  0.61750623  0.47453340  0.60888113  1.0
  O  O52  1  0.33464266  0.32239310  0.49635646  1.0
  O  O53  1  0.03848541  0.46813297  0.39961573  1.0
  O  O54  1  0.01238491  0.32446716  0.52147218  1.0
  O  O55  1  0.39303094  0.51282562  0.39695985  1.0
  O  O56  1  0.67798862  0.66681830  0.50944049  1.0
  O  O57  1  0.97402539  0.52028758  0.60926296  1.0
  O  O58  1  0.30206695  0.55883985  0.53656999  1.0
  O  O59  1  0.71352988  0.43315335  0.47039329  1.0
