# generated using pymatgen
data_ZnC8S2(ClO2)2
_symmetry_space_group_name_H-M   'P 1'
_cell_length_a   7.86636827
_cell_length_b   17.72516582
_cell_length_c   17.73634114
_cell_angle_alpha   89.95626199
_cell_angle_beta   89.12828149
_cell_angle_gamma   89.09741209
_symmetry_Int_Tables_number   1
_chemical_formula_structural   ZnC8S2(ClO2)2
_chemical_formula_sum   'Zn4 C32 S8 Cl8 O16'
_cell_volume   2472.43224362
_cell_formula_units_Z   4
loop_
 _symmetry_equiv_pos_site_id
 _symmetry_equiv_pos_as_xyz
  1  'x, y, z'
loop_
 _atom_site_type_symbol
 _atom_site_label
 _atom_site_symmetry_multiplicity
 _atom_site_fract_x
 _atom_site_fract_y
 _atom_site_fract_z
 _atom_site_occupancy
  Zn  Zn0  1  0.33366766  0.50154348  0.00159220  1.0
  Zn  Zn1  1  0.67551974  0.49655335  0.99648690  1.0
  Zn  Zn2  1  0.66666667  0.99772511  0.49783208  1.0
  Zn  Zn3  1  0.32403530  0.00277210  0.50262312  1.0
  C  C4  1  0.44332540  0.39889059  0.89879329  1.0
  C  C5  1  0.55768290  0.59985152  0.89741757  1.0
  C  C6  1  0.45749653  0.60061872  0.10087869  1.0
  C  C7  1  0.55815427  0.39723051  0.09964210  1.0
  C  C8  1  0.54581202  0.89857149  0.39877923  1.0
  C  C9  1  0.44058374  0.89949381  0.60153370  1.0
  C  C10  1  0.55534700  0.10049284  0.60051068  1.0
  C  C11  1  0.44111054  0.10161985  0.39945646  1.0
  C  C12  1  0.66362645  0.70018674  0.80060773  1.0
  C  C13  1  0.33383796  0.79953792  0.69854990  1.0
  C  C14  1  0.54199614  0.65878417  0.83948571  1.0
  C  C15  1  0.45578315  0.84073380  0.65960616  1.0
  C  C16  1  0.40943380  0.74824033  0.75011106  1.0
  C  C17  1  0.58778534  0.75154231  0.74921975  1.0
  C  C18  1  0.66439985  0.30065953  0.20022855  1.0
  C  C19  1  0.33463402  0.19837214  0.29919603  1.0
  C  C20  1  0.54269754  0.33934337  0.15862145  1.0
  C  C21  1  0.45651381  0.15959721  0.34062445  1.0
  C  C22  1  0.41028627  0.24994793  0.24798600  1.0
  C  C23  1  0.58859194  0.24923861  0.25154338  1.0
  C  C24  1  0.62425898  0.68765801  0.18839736  1.0
  C  C25  1  0.37939549  0.81115384  0.31169983  1.0
  C  C26  1  0.47462708  0.65871187  0.15919207  1.0
  C  C27  1  0.52900860  0.84017235  0.34081781  1.0
  C  C28  1  0.41451241  0.75554049  0.25621069  1.0
  C  C29  1  0.58917549  0.74317405  0.24402675  1.0
  C  C30  1  0.33521888  0.30112548  0.80104403  1.0
  C  C31  1  0.66483697  0.19808629  0.69812555  1.0
  C  C32  1  0.45714868  0.34032846  0.84033256  1.0
  C  C33  1  0.54235908  0.15903805  0.65898284  1.0
  C  C34  1  0.58952993  0.25001391  0.75004508  1.0
  C  C35  1  0.41103605  0.24929395  0.74924732  1.0
  S  S36  1  0.33478974  0.68281108  0.81360996  1.0
  S  S37  1  0.66281267  0.81676976  0.68566169  1.0
  S  S38  1  0.33555828  0.31323602  0.18239014  1.0
  S  S39  1  0.66355223  0.18582823  0.31698465  1.0
  S  S40  1  0.29257984  0.69961418  0.19995983  1.0
  S  S41  1  0.71111177  0.79921558  0.30016547  1.0
  S  S42  1  0.66453925  0.31380513  0.81394795  1.0
  S  S43  1  0.33538044  0.18564423  0.68545837  1.0
  Cl  Cl44  1  0.87778550  0.69216794  0.81211111  1.0
  Cl  Cl45  1  0.11980222  0.80787162  0.68672556  1.0
  Cl  Cl46  1  0.87850715  0.31250414  0.19240976  1.0
  Cl  Cl47  1  0.12066215  0.18636570  0.30708938  1.0
  Cl  Cl48  1  0.82886312  0.66351103  0.16436448  1.0
  Cl  Cl49  1  0.17478806  0.83538552  0.33568090  1.0
  Cl  Cl50  1  0.12061571  0.31217106  0.81199173  1.0
  Cl  Cl51  1  0.87918891  0.18661375  0.68670461  1.0
  O  O52  1  0.29774000  0.42298879  0.92283301  1.0
  O  O53  1  0.58762485  0.42155493  0.92144119  1.0
  O  O54  1  0.70468638  0.57609061  0.91819134  1.0
  O  O55  1  0.41491231  0.57633975  0.92284963  1.0
  O  O56  1  0.59593723  0.57366387  0.07373211  1.0
  O  O57  1  0.30720992  0.58091848  0.08120831  1.0
  O  O58  1  0.41525569  0.42243295  0.07598385  1.0
  O  O59  1  0.70505390  0.41816025  0.07595901  1.0
  O  O60  1  0.69602735  0.91842365  0.41847638  1.0
  O  O61  1  0.40735379  0.92569143  0.42568632  1.0
  O  O62  1  0.29373388  0.92315829  0.58039525  1.0
  O  O63  1  0.58351392  0.92298964  0.57632226  1.0
  O  O64  1  0.41087169  0.07795462  0.57799016  1.0
  O  O65  1  0.70076010  0.07628294  0.57637999  1.0
  O  O66  1  0.58390484  0.07650156  0.42326669  1.0
  O  O67  1  0.29418882  0.08049011  0.42295172  1.0
