# generated using pymatgen
data_Zr3H28C45O16
_symmetry_space_group_name_H-M   'P 1'
_cell_length_a   19.03816109
_cell_length_b   19.11296104
_cell_length_c   19.11343334
_cell_angle_alpha   90.26216283
_cell_angle_beta   119.80948888
_cell_angle_gamma   119.80576923
_symmetry_Int_Tables_number   1
_chemical_formula_structural   Zr3H28C45O16
_chemical_formula_sum   'Zr6 H56 C90 O32'
_cell_volume   4935.15562238
_cell_formula_units_Z   2
loop_
 _symmetry_equiv_pos_site_id
 _symmetry_equiv_pos_as_xyz
  1  'x, y, z'
loop_
 _atom_site_type_symbol
 _atom_site_label
 _atom_site_symmetry_multiplicity
 _atom_site_fract_x
 _atom_site_fract_y
 _atom_site_fract_z
 _atom_site_occupancy
  Zr  Zr0  1  0.50026017  0.90723483  0.90724101  1.0
  Zr  Zr1  1  0.50039057  0.09280230  0.09281029  1.0
  Zr  Zr2  1  0.68544933  0.09203375  0.09196150  1.0
  Zr  Zr3  1  0.31512772  0.90798393  0.90794651  1.0
  Zr  Zr4  1  0.50024649  0.90771986  0.09228525  1.0
  Zr  Zr5  1  0.50023049  0.09230635  0.90771053  1.0
  H  H6  1  0.64606610  0.92697772  0.07209603  1.0
  H  H7  1  0.35457712  0.92786252  0.07305707  1.0
  H  H8  1  0.64594991  0.21800318  0.07275165  1.0
  H  H9  1  0.35459488  0.92725479  0.78201899  1.0
  H  H10  1  0.49746691  0.32013502  0.11079351  1.0
  H  H11  1  0.50041731  0.45035925  0.11330724  1.0
  H  H12  1  0.49766900  0.67723104  0.88670618  1.0
  H  H13  1  0.50068283  0.54998083  0.88721625  1.0
  H  H14  1  0.49751202  0.67812835  0.11094223  1.0
  H  H15  1  0.50048981  0.55088097  0.11332936  1.0
  H  H16  1  0.49762020  0.31932302  0.88655370  1.0
  H  H17  1  0.50053633  0.44949288  0.88716159  1.0
  H  H18  1  0.50249072  0.11322815  0.32261907  1.0
  H  H19  1  0.49928283  0.11270372  0.44975959  1.0
  H  H20  1  0.50267647  0.88915333  0.67971374  1.0
  H  H21  1  0.49951990  0.88659519  0.54938970  1.0
  H  H22  1  0.50250206  0.11338677  0.68060288  1.0
  H  H23  1  0.49937537  0.11274088  0.55032680  1.0
  H  H24  1  0.50260551  0.88897446  0.32181445  1.0
  H  H25  1  0.49942688  0.88656393  0.44894411  1.0
  H  H26  1  0.70903148  0.31950018  0.88688452  1.0
  H  H27  1  0.83649083  0.44973938  0.88747234  1.0
  H  H28  1  0.29123737  0.67807241  0.11067716  1.0
  H  H29  1  0.16371080  0.55098006  0.11317586  1.0
  H  H30  1  0.06638901  0.67747235  0.88673260  1.0
  H  H31  1  0.93693894  0.55028370  0.88726957  1.0
  H  H32  1  0.93397221  0.32021566  0.11087392  1.0
  H  H33  1  0.06333463  0.45051146  0.11338310  1.0
  H  H34  1  0.70899525  0.88941282  0.32196011  1.0
  H  H35  1  0.83645624  0.88691055  0.44917462  1.0
  H  H36  1  0.29118208  0.11317003  0.68056825  1.0
  H  H37  1  0.16366702  0.11260659  0.55043189  1.0
  H  H38  1  0.06636666  0.88918017  0.67994364  1.0
  H  H39  1  0.93692796  0.88669317  0.54973805  1.0
  H  H40  1  0.93399927  0.11335256  0.32270672  1.0
  H  H41  1  0.06335581  0.11279117  0.44999242  1.0
  H  H42  1  0.29079807  0.11473041  0.11234422  1.0
  H  H43  1  0.24214609  0.17702076  0.17722469  1.0
  H  H44  1  0.07158401  0.89153202  0.88899434  1.0
  H  H45  1  0.71009173  0.88758152  0.88529901  1.0
  H  H46  1  0.75878935  0.82268742  0.82292330  1.0
  H  H47  1  0.92944920  0.11097703  0.10854208  1.0
  H  H48  1  0.93428821  0.31992620  0.32240448  1.0
  H  H49  1  0.06346992  0.45002104  0.44946689  1.0
  H  H50  1  0.06623775  0.67773264  0.68021659  1.0
  H  H51  1  0.93685845  0.55065847  0.55011625  1.0
  H  H52  1  0.29121695  0.67752409  0.68000073  1.0
  H  H53  1  0.16378002  0.55049104  0.54994150  1.0
  H  H54  1  0.70899582  0.31981504  0.32232785  1.0
  H  H55  1  0.83628295  0.44990698  0.44938499  1.0
  H  H56  1  0.17322589  0.19821748  0.26375500  1.0
  H  H57  1  0.06644586  0.19678076  0.19676473  1.0
  H  H58  1  0.17345642  0.26365487  0.19849343  1.0
  H  H59  1  0.82804740  0.73622586  0.80177836  1.0
  H  H60  1  0.93493172  0.80345586  0.80346464  1.0
  H  H61  1  0.82782895  0.80149925  0.73633017  1.0
  C  C62  1  0.49577393  0.76274643  0.99774719  1.0
  C  C63  1  0.50461306  0.00223148  0.23724074  1.0
  C  C64  1  0.49588235  0.23291131  0.99796471  1.0
  C  C65  1  0.50450085  0.00205015  0.76708295  1.0
  C  C66  1  0.73552014  0.00060538  0.99667767  1.0
  C  C67  1  0.26481237  0.76283378  0.76706441  1.0
  C  C68  1  0.26533412  0.00340713  0.99935055  1.0
  C  C69  1  0.73572723  0.23295054  0.23715792  1.0
  C  C70  1  0.73559270  0.00214829  0.23685624  1.0
  C  C71  1  0.73556201  0.23256092  0.99772483  1.0
  C  C72  1  0.26479590  0.00222617  0.76743530  1.0
  C  C73  1  0.26480712  0.76315496  0.99787281  1.0
  C  C74  1  0.49697857  0.31133013  0.99843608  1.0
  C  C75  1  0.49693167  0.68546542  0.99845366  1.0
  C  C76  1  0.49806698  0.34935683  0.06211818  1.0
  C  C77  1  0.49976921  0.42284728  0.06283305  1.0
  C  C78  1  0.49814401  0.64855715  0.93592950  1.0
  C  C79  1  0.49987046  0.57677876  0.93695640  1.0
  C  C80  1  0.49806151  0.64910917  0.06217800  1.0
  C  C81  1  0.49977773  0.57731620  0.06285034  1.0
  C  C82  1  0.49813777  0.34884794  0.93585949  1.0
  C  C83  1  0.49982248  0.42233133  0.93691612  1.0
  C  C84  1  0.50032225  0.46131364  0.00015109  1.0
  C  C85  1  0.50033147  0.53884030  0.00015247  1.0
  C  C86  1  0.50326163  0.00148898  0.31443796  1.0
  C  C87  1  0.50320639  0.00152547  0.68857947  1.0
  C  C88  1  0.50198533  0.06400162  0.35128982  1.0
  C  C89  1  0.50013877  0.06296609  0.42301488  1.0
  C  C90  1  0.50202874  0.93781637  0.65048419  1.0
  C  C91  1  0.50022624  0.93709115  0.57694646  1.0
  C  C92  1  0.50196132  0.06407941  0.65104407  1.0
  C  C93  1  0.50014927  0.06299597  0.57749575  1.0
  C  C94  1  0.50203570  0.93774449  0.35078692  1.0
  C  C95  1  0.50019620  0.93705873  0.42251681  1.0
  C  C96  1  0.49961916  0.99975787  0.46096106  1.0
  C  C97  1  0.49962479  0.99975752  0.53848710  1.0
  C  C98  1  0.81332876  0.31125590  0.99851255  1.0
  C  C99  1  0.18700831  0.68572313  0.99840019  1.0
  C  C100  1  0.78719450  0.34896899  0.93611506  1.0
  C  C101  1  0.85984754  0.42252844  0.93716100  1.0
  C  C102  1  0.21308063  0.64918496  0.06199117  1.0
  C  C103  1  0.14036547  0.57741964  0.06271592  1.0
  C  C104  1  0.08651986  0.64883059  0.93597037  1.0
  C  C105  1  0.01414000  0.57702726  0.93699236  1.0
  C  C106  1  0.91381198  0.34940338  0.06218388  1.0
  C  C107  1  0.98613780  0.42297050  0.06289863  1.0
  C  C108  1  0.96140767  0.46148803  0.00025039  1.0
  C  C109  1  0.03879697  0.53899611  0.00014861  1.0
  C  C110  1  0.81332332  0.00165695  0.31436436  1.0
  C  C111  1  0.18695513  0.00152422  0.68883562  1.0
  C  C112  1  0.78717725  0.93808019  0.35089657  1.0
  C  C113  1  0.85983203  0.93735130  0.42271542  1.0
  C  C114  1  0.21303095  0.06394296  0.65114291  1.0
  C  C115  1  0.14032550  0.06289637  0.57762710  1.0
  C  C116  1  0.08648228  0.93787739  0.65076335  1.0
  C  C117  1  0.01411273  0.93717023  0.57723604  1.0
  C  C118  1  0.91383352  0.06411202  0.35133487  1.0
  C  C119  1  0.98614247  0.06306649  0.42317613  1.0
  C  C120  1  0.96139410  0.99989902  0.46116720  1.0
  C  C121  1  0.03877510  0.99980879  0.53868538  1.0
  C  C122  1  0.21278012  0.06532950  0.06346758  1.0
  C  C123  1  0.13921856  0.06472700  0.06424812  1.0
  C  C124  1  0.16363457  0.12815707  0.12825240  1.0
  C  C125  1  0.08724337  0.93857152  0.93662158  1.0
  C  C126  1  0.01072574  0.93496484  0.93443310  1.0
  C  C127  1  0.90704630  0.86950964  0.86956277  1.0
  C  C128  1  0.78809545  0.93646940  0.93470504  1.0
  C  C129  1  0.86165084  0.93568314  0.93525426  1.0
  C  C130  1  0.83728637  0.87169228  0.87180742  1.0
  C  C131  1  0.91368424  0.06330029  0.06147107  1.0
  C  C132  1  0.99019782  0.06550836  0.06503281  1.0
  C  C133  1  0.09389263  0.13039288  0.13044909  1.0
  C  C134  1  0.18685514  0.00280602  0.99992573  1.0
  C  C135  1  0.03724312  0.99956567  0.99941766  1.0
  C  C136  1  0.81402070  0.99998622  0.99726425  1.0
  C  C137  1  0.96364483  0.00051453  0.00039540  1.0
  C  C138  1  0.81346866  0.31136921  0.31447013  1.0
  C  C139  1  0.18693397  0.68552703  0.68862836  1.0
  C  C140  1  0.91401326  0.34922079  0.35115454  1.0
  C  C141  1  0.98622750  0.42267656  0.42288331  1.0
  C  C142  1  0.08640830  0.64891816  0.65085274  1.0
  C  C143  1  0.01407521  0.57718406  0.57738765  1.0
  C  C144  1  0.21302824  0.64880120  0.65073521  1.0
  C  C145  1  0.14035786  0.57707748  0.57728644  1.0
  C  C146  1  0.78721305  0.34915090  0.35111590  1.0
  C  C147  1  0.85977903  0.42260814  0.42283794  1.0
  C  C148  1  0.96139522  0.46139065  0.46107355  1.0
  C  C149  1  0.03877469  0.53891287  0.53858488  1.0
  C  C150  1  0.12757475  0.20047940  0.20058731  1.0
  C  C151  1  0.87362282  0.79945619  0.79957026  1.0
  O  O152  1  0.49577217  0.79308661  0.93825303  1.0
  O  O153  1  0.50475562  0.06177544  0.20692176  1.0
  O  O154  1  0.49627520  0.20271539  0.05762759  1.0
  O  O155  1  0.50430166  0.94245218  0.79733747  1.0
  O  O156  1  0.76409178  0.06003018  0.05615024  1.0
  O  O157  1  0.23590190  0.79376664  0.79770366  1.0
  O  O158  1  0.23674117  0.94394418  0.93993063  1.0
  O  O159  1  0.76469039  0.20238132  0.20622394  1.0
  O  O160  1  0.64540064  0.94268952  0.20606967  1.0
  O  O161  1  0.64537907  0.20210832  0.93857098  1.0
  O  O162  1  0.35497754  0.06138797  0.79786405  1.0
  O  O163  1  0.35499442  0.79390794  0.05732454  1.0
  O  O164  1  0.76454392  0.20189546  0.05697740  1.0
  O  O165  1  0.23586899  0.94288235  0.79802583  1.0
  O  O166  1  0.23583320  0.79406585  0.93885918  1.0
  O  O167  1  0.76460752  0.06111095  0.20591923  1.0
  O  O168  1  0.64535812  0.94103771  0.93758927  1.0
  O  O169  1  0.64548124  0.20262061  0.20649407  1.0
  O  O170  1  0.35546260  0.06247319  0.05895767  1.0
  O  O171  1  0.35502780  0.79348694  0.79731198  1.0
  O  O172  1  0.50413694  0.06138628  0.79777821  1.0
  O  O173  1  0.49641475  0.79395496  0.05758061  1.0
  O  O174  1  0.50398531  0.94238697  0.20607251  1.0
  O  O175  1  0.49623085  0.20222505  0.93860252  1.0
  O  O176  1  0.39600859  0.94792156  0.84404598  1.0
  O  O177  1  0.60454486  0.15597648  0.05207394  1.0
  O  O178  1  0.39610245  0.94843283  0.05233741  1.0
  O  O179  1  0.60451193  0.94767433  0.05156423  1.0
  O  O180  1  0.57720342  0.03847099  0.11493939  1.0
  O  O181  1  0.42338462  0.88503094  0.96152521  1.0
  O  O182  1  0.42340068  0.03863162  0.96200900  1.0
  O  O183  1  0.57716217  0.03800273  0.96136087  1.0
