# generated using pymatgen
data_AlH27(C17O6)3
_symmetry_space_group_name_H-M   'P 1'
_cell_length_a   4.08620389
_cell_length_b   23.46319862
_cell_length_c   23.49777314
_cell_angle_alpha   60.30541295
_cell_angle_beta   86.92921112
_cell_angle_gamma   87.13474888
_symmetry_Int_Tables_number   1
_chemical_formula_structural   AlH27(C17O6)3
_chemical_formula_sum   'Al1 H27 C51 O18'
_cell_volume   1953.48524752
_cell_formula_units_Z   1
loop_
 _symmetry_equiv_pos_site_id
 _symmetry_equiv_pos_as_xyz
  1  'x, y, z'
loop_
 _atom_site_type_symbol
 _atom_site_label
 _atom_site_symmetry_multiplicity
 _atom_site_fract_x
 _atom_site_fract_y
 _atom_site_fract_z
 _atom_site_occupancy
  Al  Al0  1  0.99644265  0.50043201  0.49910273  1.0
  H  H1  1  0.67737601  0.32585602  0.67313390  1.0
  H  H2  1  0.67232627  0.20619119  0.74338343  1.0
  H  H3  1  0.23573656  0.97881945  0.84778167  1.0
  H  H4  1  0.44929099  0.73409425  0.19313693  1.0
  H  H5  1  0.74428046  0.75588069  0.11231402  1.0
  H  H6  1  0.76873325  0.82371587  0.99382897  1.0
  H  H7  1  0.52431168  0.88911819  0.90090514  1.0
  H  H8  1  0.53734486  0.49160187  0.32655658  1.0
  H  H9  1  0.54915453  0.54387999  0.20617959  1.0
  H  H10  1  0.23665946  0.67901102  0.97871808  1.0
  H  H11  1  0.25193260  0.58386137  0.73033065  1.0
  H  H12  1  0.70838303  0.62626458  0.75820986  1.0
  H  H13  1  0.74931580  0.67905541  0.82510458  1.0
  H  H14  1  0.49690246  0.71181898  0.88977927  1.0
  H  H15  1  0.67458838  0.67101902  0.50153705  1.0
  H  H16  1  0.67992440  0.74065664  0.55265669  1.0
  H  H17  1  0.21893186  0.84784860  0.68122363  1.0
  H  H18  1  0.33837136  0.18872334  0.58133296  1.0
  H  H19  1  0.76729761  0.11026221  0.62971028  1.0
  H  H20  1  0.79736169  0.99017318  0.68283856  1.0
  H  H21  1  0.51267148  0.89932273  0.71326334  1.0
  H  H22  1  0.97462068  0.49133823  0.63031126  1.0
  H  H23  1  0.04146695  0.38022696  0.48680350  1.0
  H  H24  1  0.15077636  0.69851282  0.35042220  1.0
  H  H25  1  0.82712530  0.84049958  0.63688410  1.0
  H  H26  1  0.84050808  0.03612209  0.83713342  1.0
  H  H27  1  0.84161218  0.63702490  0.03421249  1.0
  C  C28  1  0.50407981  0.39851850  0.54979528  1.0
  C  C29  1  0.46488190  0.55018806  0.55144595  1.0
  C  C30  1  0.51184008  0.54917330  0.40019054  1.0
  C  C31  1  0.59724255  0.29562481  0.65343363  1.0
  C  C32  1  0.59334180  0.22782706  0.69332726  1.0
  C  C33  1  0.33545801  0.07675401  0.77015890  1.0
  C  C34  1  0.35412516  0.00798511  0.79963817  1.0
  C  C35  1  0.50702793  0.65199600  0.28895311  1.0
  C  C36  1  0.47690941  0.68083119  0.22134474  1.0
  C  C37  1  0.62047176  0.73920965  0.08350626  1.0
  C  C38  1  0.63576249  0.77807722  0.01583144  1.0
  C  C39  1  0.50233339  0.32522841  0.58819421  1.0
  C  C40  1  0.48916739  0.18809899  0.66883428  1.0
  C  C41  1  0.48844473  0.11526813  0.70746467  1.0
  C  C42  1  0.51613246  0.97489981  0.76997836  1.0
  C  C43  1  0.52149028  0.90242174  0.80321924  1.0
  C  C44  1  0.52078785  0.86463488  0.87180381  1.0
  C  C45  1  0.52025028  0.54493846  0.29684865  1.0
  C  C46  1  0.52105332  0.57436353  0.22896277  1.0
  C  C47  1  0.32593541  0.65607247  0.07708605  1.0
  C  C48  1  0.34479507  0.69640825  0.00851392  1.0
  C  C49  1  0.33626317  0.56402076  0.65145219  1.0
  C  C50  1  0.33818584  0.60459215  0.67937728  1.0
  C  C51  1  0.59944372  0.67521257  0.74109056  1.0
  C  C52  1  0.61951719  0.70481918  0.77931207  1.0
  C  C53  1  0.51182797  0.58320390  0.32741770  1.0
  C  C54  1  0.48041513  0.64289937  0.18988759  1.0
  C  C55  1  0.46968848  0.67754507  0.11708788  1.0
  C  C56  1  0.49796486  0.75703654  0.97619160  1.0
  C  C57  1  0.51101195  0.79595457  0.90383996  1.0
  C  C58  1  0.50514387  0.76516389  0.86575097  1.0
  C  C59  1  0.57502271  0.65266241  0.55136423  1.0
  C  C60  1  0.57662947  0.69216806  0.58006530  1.0
  C  C61  1  0.31179419  0.77029499  0.65817195  1.0
  C  C62  1  0.32960671  0.79909022  0.69797700  1.0
  C  C63  1  0.41314695  0.28615113  0.56180811  1.0
  C  C64  1  0.40818372  0.21808446  0.60280097  1.0
  C  C65  1  0.64682971  0.08143627  0.67768186  1.0
  C  C66  1  0.66242888  0.01340755  0.70759407  1.0
  C  C67  1  0.45118994  0.58918838  0.58615154  1.0
  C  C68  1  0.44932879  0.66888242  0.64434551  1.0
  C  C69  1  0.45279552  0.70677467  0.67954299  1.0
  C  C70  1  0.48592461  0.76821914  0.75808580  1.0
  C  C71  1  0.50486796  0.80154197  0.79715663  1.0
  C  C72  1  0.51482631  0.87016147  0.76659534  1.0
  C  C73  1  0.24012670  0.49413964  0.69685244  1.0
  C  C74  1  0.35154985  0.31141710  0.49054728  1.0
  C  C75  1  0.58684914  0.69273891  0.31921445  1.0
  C  C76  1  0.14672606  0.80971047  0.59374200  1.0
  C  C77  1  0.15418388  0.10522084  0.80825736  1.0
  C  C78  1  0.16946027  0.59070291  0.09987311  1.0
  O  O79  1  0.73673251  0.56129688  0.42820414  1.0
  O  O80  1  0.75101322  0.42620158  0.51106360  1.0
  O  O81  1  0.71096919  0.51035011  0.56191696  1.0
  O  O82  1  0.28258090  0.50890059  0.42981804  1.0
  O  O83  1  0.23970699  0.56074456  0.51197649  1.0
  O  O84  1  0.26325073  0.42891669  0.56006511  1.0
  O  O85  1  0.08374689  0.46220110  0.67196825  1.0
  O  O86  1  0.31036822  0.46636801  0.75430074  1.0
  O  O87  1  0.17554450  0.36821033  0.45776793  1.0
  O  O88  1  0.46544636  0.28244965  0.46275435  1.0
  O  O89  1  0.38655418  0.69865798  0.36199031  1.0
  O  O90  1  0.85979444  0.71762344  0.30544733  1.0
  O  O91  1  0.90497130  0.85296878  0.59220529  1.0
  O  O92  1  0.21872624  0.80734006  0.54417886  1.0
  O  O93  1  0.90706284  0.06771352  0.84974537  1.0
  O  O94  1  0.21677487  0.15603488  0.80651632  1.0
  O  O95  1  0.92755135  0.59218600  0.06115783  1.0
  O  O96  1  0.25382809  0.53812001  0.14513564  1.0
