# generated using pymatgen
data_ZnH6C13N(ClO2)2
_symmetry_space_group_name_H-M   'P 1'
_cell_length_a   9.83375046
_cell_length_b   11.23387826
_cell_length_c   15.33228504
_cell_angle_alpha   90.70830780
_cell_angle_beta   102.68919737
_cell_angle_gamma   94.33620404
_symmetry_Int_Tables_number   1
_chemical_formula_structural   ZnH6C13N(ClO2)2
_chemical_formula_sum   'Zn2 H12 C26 N2 Cl4 O8'
_cell_volume   1646.94569239
_cell_formula_units_Z   2
loop_
 _symmetry_equiv_pos_site_id
 _symmetry_equiv_pos_as_xyz
  1  'x, y, z'
loop_
 _atom_site_type_symbol
 _atom_site_label
 _atom_site_symmetry_multiplicity
 _atom_site_fract_x
 _atom_site_fract_y
 _atom_site_fract_z
 _atom_site_occupancy
  Zn  Zn0  1  0.63863882  0.48639242  0.52424114  1.0
  Zn  Zn1  1  0.36178455  0.51364994  0.48036012  1.0
  H  H2  1  0.28572941  0.49626430  0.19708495  1.0
  H  H3  1  0.29758544  0.10352869  0.48179367  1.0
  H  H4  1  0.86847774  0.56187762  0.44766566  1.0
  H  H5  1  0.13080990  0.43670229  0.55433451  1.0
  H  H6  1  0.71397812  0.50461999  0.80751136  1.0
  H  H7  1  0.73278270  0.49970805  0.25321191  1.0
  H  H8  1  0.26687153  0.49984154  0.75116413  1.0
  H  H9  1  0.85060867  0.50648807  0.96373011  1.0
  H  H10  1  0.14889005  0.49343830  0.04068727  1.0
  H  H11  1  0.38148936  0.89587594  0.49412167  1.0
  H  H12  1  0.61912091  0.10430473  0.52151460  1.0
  H  H13  1  0.70287263  0.89663332  0.53020762  1.0
  C  C14  1  0.43462253  0.26950608  0.49549037  1.0
  C  C15  1  0.92659092  0.50598114  0.49851608  1.0
  C  C16  1  0.48842287  0.50235224  0.67262911  1.0
  C  C17  1  0.51149957  0.49795871  0.33193026  1.0
  C  C18  1  0.38146704  0.49735489  0.17224374  1.0
  C  C19  1  0.61820174  0.50333961  0.83230047  1.0
  C  C20  1  0.50950204  0.49829215  0.23376444  1.0
  C  C21  1  0.49020667  0.50218942  0.77075297  1.0
  C  C22  1  0.63435021  0.49959887  0.20412164  1.0
  C  C23  1  0.36526924  0.50032934  0.80032770  1.0
  C  C24  1  0.63366689  0.50088722  0.11261200  1.0
  C  C25  1  0.56578058  0.73054362  0.51273746  1.0
  C  C26  1  0.36591108  0.49894481  0.89185519  1.0
  C  C27  1  0.50265508  0.49955659  0.04896528  1.0
  C  C28  1  0.49691162  0.50038236  0.95556043  1.0
  C  C29  1  0.37576494  0.49739843  0.08012824  1.0
  C  C30  1  0.62380249  0.50283610  0.92439321  1.0
  C  C31  1  0.75856733  0.50341089  0.07769820  1.0
  C  C32  1  0.24095161  0.49619123  0.92671938  1.0
  C  C33  1  0.75438218  0.50446344  0.98813983  1.0
  C  C34  1  0.24517920  0.49547936  0.01632521  1.0
  C  C35  1  0.40714497  0.13808948  0.49482887  1.0
  C  C36  1  0.59334006  0.86208054  0.51752031  1.0
  C  C37  1  0.51152950  0.06410586  0.50873860  1.0
  C  C38  1  0.48905902  0.93608238  0.50641805  1.0
  C  C39  1  0.07314823  0.49324384  0.50377506  1.0
  N  N40  1  0.14937803  0.54405727  0.45396124  1.0
  N  N41  1  0.85099028  0.45579740  0.54898148  1.0
  Cl  Cl42  1  0.92004603  0.50529779  0.15220702  1.0
  Cl  Cl43  1  0.07950441  0.49384163  0.85212468  1.0
  Cl  Cl44  1  0.92365260  0.36491773  0.63146432  1.0
  Cl  Cl45  1  0.07776987  0.63609344  0.37203536  1.0
  O  O46  1  0.56198025  0.31251652  0.51113432  1.0
  O  O47  1  0.43846427  0.68740042  0.49687483  1.0
  O  O48  1  0.32764520  0.33058602  0.47992640  1.0
  O  O49  1  0.67267762  0.66943945  0.52483389  1.0
  O  O50  1  0.60590719  0.49681992  0.65111381  1.0
  O  O51  1  0.39440848  0.50542167  0.35358646  1.0
  O  O52  1  0.37090537  0.50795055  0.61819563  1.0
  O  O53  1  0.62866804  0.49022769  0.38629647  1.0
