# generated using pymatgen
data_AlH11C16N2O5
_symmetry_space_group_name_H-M   'P 1'
_cell_length_a   6.66480427
_cell_length_b   23.66655379
_cell_length_c   25.82474837
_cell_angle_alpha   90.01919848
_cell_angle_beta   91.11831597
_cell_angle_gamma   90.99793845
_symmetry_Int_Tables_number   1
_chemical_formula_structural   AlH11C16N2O5
_chemical_formula_sum   'Al4 H44 C64 N8 O20'
_cell_volume   4072.01916823
_cell_formula_units_Z   4
loop_
 _symmetry_equiv_pos_site_id
 _symmetry_equiv_pos_as_xyz
  1  'x, y, z'
loop_
 _atom_site_type_symbol
 _atom_site_label
 _atom_site_symmetry_multiplicity
 _atom_site_fract_x
 _atom_site_fract_y
 _atom_site_fract_z
 _atom_site_occupancy
  Al  Al0  1  0.98736848  0.99598015  0.50548218  1.0
  Al  Al1  1  0.48686532  0.99796742  0.50102340  1.0
  Al  Al2  1  0.01510562  0.49682685  0.00324032  1.0
  Al  Al3  1  0.51518392  0.49852028  0.00331370  1.0
  H  H4  1  0.22919192  0.92497679  0.48705405  1.0
  H  H5  1  0.74726874  0.07249017  0.49510055  1.0
  H  H6  1  0.26721095  0.57058100  0.98988904  1.0
  H  H7  1  0.75648504  0.42340935  0.99167756  1.0
  H  H8  1  0.45971494  0.63273144  0.90718212  1.0
  H  H9  1  0.43206652  0.70318028  0.83581371  1.0
  H  H10  1  0.03831503  0.66625665  0.79286009  1.0
  H  H11  1  0.40757393  0.79412561  0.67634481  1.0
  H  H12  1  0.02283804  0.90800208  0.64242466  1.0
  H  H13  1  0.02838748  0.83491020  0.71242955  1.0
  H  H14  1  0.96762662  0.36080909  0.10052404  1.0
  H  H15  1  0.95814085  0.28944129  0.17180475  1.0
  H  H16  1  0.57811472  0.32999600  0.20911763  1.0
  H  H17  1  0.94911143  0.20471414  0.32618399  1.0
  H  H18  1  0.52968535  0.08276626  0.36511712  1.0
  H  H19  1  0.55502914  0.15524647  0.29504936  1.0
  H  H20  1  0.55833312  0.37074838  0.89993713  1.0
  H  H21  1  0.56978507  0.29782273  0.83025903  1.0
  H  H22  1  0.95598849  0.33483420  0.78829524  1.0
  H  H23  1  0.56555613  0.20851133  0.67348547  1.0
  H  H24  1  0.95992932  0.08977955  0.63602561  1.0
  H  H25  1  0.95466468  0.16067481  0.70783607  1.0
  H  H26  1  0.47551535  0.58554411  0.13750100  1.0
  H  H27  1  0.45278328  0.66042715  0.20542210  1.0
  H  H28  1  0.06484583  0.71064446  0.17492956  1.0
  H  H29  1  0.43025739  0.83487092  0.28974106  1.0
  H  H30  1  0.03217668  0.86441909  0.40310218  1.0
  H  H31  1  0.04466569  0.79634136  0.32962034  1.0
  H  H32  1  0.12064043  0.56418622  0.89506725  1.0
  H  H33  1  0.22096515  0.59881102  0.84104688  1.0
  H  H34  1  0.34787886  0.90271040  0.57921238  1.0
  H  H35  1  0.23655240  0.84694223  0.61321317  1.0
  H  H36  1  0.63928156  0.43085729  0.10540169  1.0
  H  H37  1  0.74919361  0.39794401  0.15935360  1.0
  H  H38  1  0.86424468  0.09449464  0.42013587  1.0
  H  H39  1  0.75990032  0.15054146  0.38543421  1.0
  H  H40  1  0.89422008  0.43839257  0.88942959  1.0
  H  H41  1  0.78504627  0.40388770  0.83575122  1.0
  H  H42  1  0.62250973  0.10226502  0.57495983  1.0
  H  H43  1  0.73716395  0.15684022  0.61088402  1.0
  H  H44  1  0.14552267  0.59930538  0.08166391  1.0
  H  H45  1  0.25075308  0.65678458  0.11585141  1.0
  H  H46  1  0.37101958  0.93512464  0.39393748  1.0
  H  H47  1  0.26122351  0.90286433  0.33883224  1.0
  C  C48  1  0.73207590  0.92633843  0.43376429  1.0
  C  C49  1  0.73082284  0.93281647  0.57661515  1.0
  C  C50  1  0.24652688  0.06842905  0.57087960  1.0
  C  C51  1  0.23485546  0.06225084  0.42901596  1.0
  C  C52  1  0.77309231  0.56300299  0.07618203  1.0
  C  C53  1  0.76392873  0.56965591  0.93481687  1.0
  C  C54  1  0.25894096  0.43330264  0.92842556  1.0
  C  C55  1  0.26659914  0.42629618  0.07102028  1.0
  C  C56  1  0.76118231  0.60955524  0.89111366  1.0
  C  C57  1  0.58480916  0.64010078  0.88141635  1.0
  C  C58  1  0.56807016  0.67898098  0.84178415  1.0
  C  C59  1  0.73512919  0.68884598  0.80953719  1.0
  C  C60  1  0.91115400  0.65872110  0.81805032  1.0
  C  C61  1  0.92962834  0.61879967  0.85843010  1.0
  C  C62  1  0.72595373  0.72995999  0.76974728  1.0
  C  C63  1  0.71981896  0.76634718  0.73629803  1.0
  C  C64  1  0.71784739  0.80889369  0.69770896  1.0
  C  C65  1  0.54291083  0.81916660  0.66882510  1.0
  C  C66  1  0.53612880  0.86085588  0.62964265  1.0
  C  C67  1  0.71721152  0.89192447  0.61935436  1.0
  C  C68  1  0.89016909  0.88192156  0.64993027  1.0
  C  C69  1  0.89426246  0.84159206  0.68859016  1.0
  C  C70  1  0.27391634  0.38578323  0.11423205  1.0
  C  C71  1  0.09941004  0.35400197  0.12523199  1.0
  C  C72  1  0.09301601  0.31464302  0.16470522  1.0
  C  C73  1  0.26897885  0.30572375  0.19528999  1.0
  C  C74  1  0.44371547  0.33697671  0.18530586  1.0
  C  C75  1  0.45208632  0.37727307  0.14497341  1.0
  C  C76  1  0.26785935  0.26447812  0.23508066  1.0
  C  C77  1  0.26331243  0.22806912  0.26852663  1.0
  C  C78  1  0.25361879  0.18580069  0.30726960  1.0
  C  C79  1  0.07690044  0.17789328  0.33483292  1.0
  C  C80  1  0.05898135  0.13631443  0.37370665  1.0
  C  C81  1  0.23015862  0.10296002  0.38584365  1.0
  C  C82  1  0.40476632  0.11055202  0.35653126  1.0
  C  C83  1  0.41986738  0.15065854  0.31785313  1.0
  C  C84  1  0.25426595  0.39379043  0.88423577  1.0
  C  C85  1  0.42815830  0.36280379  0.87463314  1.0
  C  C86  1  0.43570667  0.32258114  0.83593367  1.0
  C  C87  1  0.26153621  0.31193422  0.80472171  1.0
  C  C88  1  0.08848795  0.34301716  0.81281658  1.0
  C  C89  1  0.07955093  0.38433917  0.85212818  1.0
  C  C90  1  0.26094330  0.26933063  0.76614750  1.0
  C  C91  1  0.26051676  0.23230292  0.73322715  1.0
  C  C92  1  0.26010103  0.19028276  0.69412104  1.0
  C  C93  1  0.43217950  0.18247697  0.66509330  1.0
  C  C94  1  0.43853766  0.14209871  0.62491582  1.0
  C  C95  1  0.26033644  0.10950573  0.61360307  1.0
  C  C96  1  0.09022507  0.11698810  0.64431046  1.0
  C  C97  1  0.08646498  0.15613842  0.68398449  1.0
  C  C98  1  0.77859458  0.60563715  0.11773007  1.0
  C  C99  1  0.60259311  0.61385962  0.14591909  1.0
  C  C100  1  0.58876664  0.65538835  0.18323862  1.0
  C  C101  1  0.75797450  0.69123632  0.19340986  1.0
  C  C102  1  0.93549053  0.68301934  0.16667600  1.0
  C  C103  1  0.95210603  0.64014525  0.12896307  1.0
  C  C104  1  0.74866730  0.73452499  0.23117897  1.0
  C  C105  1  0.73966405  0.77103060  0.26441542  1.0
  C  C106  1  0.73648552  0.81146403  0.30485832  1.0
  C  C107  1  0.56270220  0.84152218  0.31465037  1.0
  C  C108  1  0.55293046  0.88027018  0.35613952  1.0
  C  C109  1  0.72744601  0.88812636  0.38874542  1.0
  C  C110  1  0.90176500  0.85794916  0.37756833  1.0
  C  C111  1  0.91007495  0.82037262  0.33675775  1.0
  N  N112  1  0.10355806  0.59010509  0.86411414  1.0
  N  N113  1  0.36179267  0.86821488  0.60238142  1.0
  N  N114  1  0.62553000  0.40708060  0.13787344  1.0
  N  N115  1  0.88278285  0.13056510  0.39933709  1.0
  N  N116  1  0.90881353  0.41448085  0.85715505  1.0
  N  N117  1  0.61040512  0.13704742  0.59766600  1.0
  N  N118  1  0.12789141  0.63442850  0.10368534  1.0
  N  N119  1  0.38087348  0.90914561  0.36292903  1.0
  O  O120  1  0.90232291  0.94085178  0.45384339  1.0
  O  O121  1  0.56577651  0.95107683  0.55713047  1.0
  O  O122  1  0.40937367  0.05454969  0.54860826  1.0
  O  O123  1  0.06897729  0.04794447  0.45037671  1.0
  O  O124  1  0.07347974  0.04886734  0.55735624  1.0
  O  O125  1  0.40677037  0.04393186  0.44352338  1.0
  O  O126  1  0.56318130  0.94293500  0.45108967  1.0
  O  O127  1  0.90424205  0.94719161  0.56026084  1.0
  O  O128  1  0.23587341  0.96134862  0.50436524  1.0
  O  O129  1  0.74078861  0.03210539  0.50083312  1.0
  O  O130  1  0.93995645  0.54720421  0.05711693  1.0
  O  O131  1  0.59626927  0.55568239  0.95506963  1.0
  O  O132  1  0.42997761  0.44877086  0.94727229  1.0
  O  O133  1  0.09565652  0.44159164  0.05306116  1.0
  O  O134  1  0.08984131  0.44922148  0.94622349  1.0
  O  O135  1  0.43430803  0.44394819  0.05299395  1.0
  O  O136  1  0.60136247  0.54461183  0.06044715  1.0
  O  O137  1  0.93454535  0.55102998  0.95078866  1.0
  O  O138  1  0.26594172  0.53291466  0.00457821  1.0
  O  O139  1  0.76242039  0.46308785  0.00079396  1.0
