# generated using pymatgen
data_ZnH17C12Br(NO)2
_symmetry_space_group_name_H-M   'P 1'
_cell_length_a   14.78697882
_cell_length_b   15.76180701
_cell_length_c   15.76278717
_cell_angle_alpha   119.99927354
_cell_angle_beta   90.00008926
_cell_angle_gamma   89.99993707
_symmetry_Int_Tables_number   1
_chemical_formula_structural   ZnH17C12Br(NO)2
_chemical_formula_sum   'Zn6 H102 C72 Br6 N12 O12'
_cell_volume   3181.64909140
_cell_formula_units_Z   6
loop_
 _symmetry_equiv_pos_site_id
 _symmetry_equiv_pos_as_xyz
  1  'x, y, z'
loop_
 _atom_site_type_symbol
 _atom_site_label
 _atom_site_symmetry_multiplicity
 _atom_site_fract_x
 _atom_site_fract_y
 _atom_site_fract_z
 _atom_site_occupancy
  Zn  Zn0  1  0.51832447  0.60626908  0.24656515  1.0
  Zn  Zn1  1  0.68482149  0.35960800  0.60628595  1.0
  Zn  Zn2  1  0.85140198  0.75343324  0.35974016  1.0
  Zn  Zn3  1  0.01832371  0.39373213  0.75343548  1.0
  Zn  Zn4  1  0.18482102  0.64039240  0.39371388  1.0
  Zn  Zn5  1  0.35140256  0.24656564  0.64025915  1.0
  H  H6  1  0.55819811  0.86654317  0.48094988  1.0
  H  H7  1  0.72520790  0.38547536  0.86645204  1.0
  H  H8  1  0.89161522  0.51907045  0.38556763  1.0
  H  H9  1  0.05820132  0.13345729  0.51905233  1.0
  H  H10  1  0.22520770  0.61452430  0.13354748  1.0
  H  H11  1  0.39161481  0.48092768  0.61443137  1.0
  H  H12  1  0.59850734  0.75785944  0.55012148  1.0
  H  H13  1  0.76548659  0.20770376  0.75787743  1.0
  H  H14  1  0.93198577  0.45009245  0.20780342  1.0
  H  H15  1  0.09850761  0.24213954  0.44987878  1.0
  H  H16  1  0.26548704  0.79229736  0.24212224  1.0
  H  H17  1  0.43198625  0.54990713  0.79219573  1.0
  H  H18  1  0.53938233  0.65986831  0.45207126  1.0
  H  H19  1  0.70652315  0.20768819  0.65975878  1.0
  H  H20  1  0.87284787  0.54815009  0.20788320  1.0
  H  H21  1  0.03938264  0.34013216  0.54792903  1.0
  H  H22  1  0.20652309  0.79231220  0.34024044  1.0
  H  H23  1  0.37284779  0.45184951  0.79211650  1.0
  H  H24  1  0.39499041  0.76127226  0.51232260  1.0
  H  H25  1  0.56195142  0.24854025  0.76067532  1.0
  H  H26  1  0.72840532  0.48765389  0.24856535  1.0
  H  H27  1  0.89499151  0.23872660  0.48767930  1.0
  H  H28  1  0.06195191  0.75145949  0.23932400  1.0
  H  H29  1  0.22840510  0.51234577  0.75143290  1.0
  H  H30  1  0.42938937  0.78527934  0.25742109  1.0
  H  H31  1  0.59641876  0.52793152  0.78533468  1.0
  H  H32  1  0.76253881  0.74255751  0.52787202  1.0
  H  H33  1  0.92938821  0.21471952  0.74257833  1.0
  H  H34  1  0.09641887  0.47206819  0.21466531  1.0
  H  H35  1  0.26253842  0.25744141  0.47212782  1.0
  H  H36  1  0.54390567  0.82151065  0.28590352  1.0
  H  H37  1  0.71094252  0.53550190  0.82151254  1.0
  H  H38  1  0.87708218  0.71423865  0.53576711  1.0
  H  H39  1  0.04390442  0.17848688  0.71409530  1.0
  H  H40  1  0.21094325  0.46449924  0.17848706  1.0
  H  H41  1  0.37708174  0.28576169  0.46423297  1.0
  H  H42  1  0.37243421  0.72814255  0.64724623  1.0
  H  H43  1  0.53955408  0.08059506  0.72789897  1.0
  H  H44  1  0.70627024  0.35262451  0.08048625  1.0
  H  H45  1  0.87243301  0.27185778  0.35275701  1.0
  H  H46  1  0.03955376  0.91940541  0.27210132  1.0
  H  H47  1  0.20627014  0.64737443  0.91951225  1.0
  H  H48  1  0.49112311  0.71532839  0.65652709  1.0
  H  H49  1  0.65826326  0.05864746  0.71533970  1.0
  H  H50  1  0.82502201  0.34347494  0.05873775  1.0
  H  H51  1  0.99112324  0.28467190  0.34347440  1.0
  H  H52  1  0.15826293  0.94135296  0.28466010  1.0
  H  H53  1  0.32502125  0.65652396  0.94126090  1.0
  H  H54  1  0.43195818  0.63010305  0.54904249  1.0
  H  H55  1  0.59920310  0.08065421  0.62988184  1.0
  H  H56  1  0.76581920  0.45087186  0.08074915  1.0
  H  H57  1  0.93195838  0.36989800  0.45096183  1.0
  H  H58  1  0.09920362  0.91934550  0.37011752  1.0
  H  H59  1  0.26581854  0.54912778  0.91924978  1.0
  H  H60  1  0.39128857  0.90225839  0.68119314  1.0
  H  H61  1  0.55785200  0.22107408  0.90187290  1.0
  H  H62  1  0.72476097  0.31887926  0.22089047  1.0
  H  H63  1  0.89128684  0.09774268  0.31880859  1.0
  H  H64  1  0.05785223  0.77892638  0.09812614  1.0
  H  H65  1  0.22476127  0.68112113  0.77910878  1.0
  H  H66  1  0.46378403  0.92908451  0.60847435  1.0
  H  H67  1  0.63037388  0.32060421  0.92873388  1.0
  H  H68  1  0.79719433  0.39165869  0.32048453  1.0
  H  H69  1  0.96378313  0.07091432  0.39152574  1.0
  H  H70  1  0.13037350  0.67939623  0.07126526  1.0
  H  H71  1  0.29719456  0.60834167  0.67951481  1.0
  H  H72  1  0.51082348  0.89603024  0.69157563  1.0
  H  H73  1  0.67738014  0.20451456  0.89603223  1.0
  H  H74  1  0.84431074  0.30852002  0.20437559  1.0
  H  H75  1  0.01082232  0.10396804  0.30842352  1.0
  H  H76  1  0.17738036  0.79548586  0.10396760  1.0
  H  H77  1  0.34431173  0.69147960  0.79562408  1.0
  H  H78  1  0.56335721  0.99620083  0.37263972  1.0
  H  H79  1  0.73041786  0.62349824  0.99614757  1.0
  H  H80  1  0.89677328  0.62734849  0.62350499  1.0
  H  H81  1  0.06335400  0.00379817  0.62736050  1.0
  H  H82  1  0.23041840  0.37650288  0.00385205  1.0
  H  H83  1  0.39677259  0.37265183  0.37649765  1.0
  H  H84  1  0.32763170  0.87569162  0.43904909  1.0
  H  H85  1  0.49449138  0.43688601  0.87583159  1.0
  H  H86  1  0.66071277  0.56117225  0.43711081  1.0
  H  H87  1  0.82763170  0.12430873  0.56094838  1.0
  H  H88  1  0.99449130  0.56311501  0.12416773  1.0
  H  H89  1  0.16071029  0.43882671  0.56288826  1.0
  H  H90  1  0.28396490  0.04542481  0.56021023  1.0
  H  H91  1  0.45096579  0.48544865  0.04560614  1.0
  H  H92  1  0.61733291  0.43978043  0.48550484  1.0
  H  H93  1  0.78396354  0.95457483  0.43978746  1.0
  H  H94  1  0.95096463  0.51455092  0.95439366  1.0
  H  H95  1  0.11733273  0.56022073  0.51449654  1.0
  H  H96  1  0.51218991  0.16058511  0.50102388  1.0
  H  H97  1  0.67931195  0.65961124  0.16056733  1.0
  H  H98  1  0.84580025  0.49887574  0.65948590  1.0
  H  H99  1  0.01218735  0.83941391  0.49897628  1.0
  H  H100  1  0.17931208  0.34038990  0.83943286  1.0
  H  H101  1  0.34580052  0.50112608  0.34051741  1.0
  H  H102  1  0.42667089  0.74341290  0.38355094  1.0
  H  H103  1  0.59347637  0.35994117  0.74366297  1.0
  H  H104  1  0.75994119  0.61640576  0.35995503  1.0
  H  H105  1  0.92667218  0.25658815  0.61644957  1.0
  H  H106  1  0.09347567  0.64005927  0.25633675  1.0
  H  H107  1  0.25994093  0.38359390  0.64004581  1.0
  C  C108  1  0.55731017  0.78612046  0.43571509  1.0
  C  C109  1  0.72422320  0.35032899  0.78603665  1.0
  C  C110  1  0.89065554  0.56436876  0.35045130  1.0
  C  C111  1  0.05730999  0.21388073  0.56428622  1.0
  C  C112  1  0.22422377  0.64967214  0.21396297  1.0
  C  C113  1  0.39065591  0.43563084  0.64954780  1.0
  C  C114  1  0.54042716  0.74010193  0.50013929  1.0
  C  C115  1  0.70741520  0.23985583  0.73999238  1.0
  C  C116  1  0.87386436  0.50002110  0.23998809  1.0
  C  C117  1  0.04042884  0.25989635  0.49986054  1.0
  C  C118  1  0.20741572  0.76014237  0.26000702  1.0
  C  C119  1  0.37386349  0.49997850  0.76001162  1.0
  C  C120  1  0.45301244  0.77274631  0.56099156  1.0
  C  C121  1  0.61994775  0.21153487  0.77245236  1.0
  C  C122  1  0.78651658  0.43905796  0.21156702  1.0
  C  C123  1  0.95301279  0.22725326  0.43901079  1.0
  C  C124  1  0.11994750  0.78846557  0.22754676  1.0
  C  C125  1  0.28651636  0.56094094  0.78843221  1.0
  C  C126  1  0.64946353  0.75219961  0.38485091  1.0
  C  C127  1  0.81630080  0.36736431  0.75202220  1.0
  C  C128  1  0.98277035  0.61531320  0.36734979  1.0
  C  C129  1  0.14946474  0.24780521  0.61515298  1.0
  C  C130  1  0.31630009  0.63263531  0.24797807  1.0
  C  C131  1  0.48277008  0.38468490  0.63264932  1.0
  C  C132  1  0.47852452  0.81871638  0.31767439  1.0
  C  C133  1  0.64549577  0.50104127  0.81874735  1.0
  C  C134  1  0.81173210  0.68235840  0.50114563  1.0
  C  C135  1  0.97852398  0.18128244  0.68232508  1.0
  C  C136  1  0.14549714  0.49895989  0.18125153  1.0
  C  C137  1  0.31173101  0.31764050  0.49885427  1.0
  C  C138  1  0.43617338  0.70777086  0.60601242  1.0
  C  C139  1  0.60330541  0.10148421  0.70757892  1.0
  C  C140  1  0.76995735  0.39394395  0.10150676  1.0
  C  C141  1  0.93617290  0.29222946  0.39399091  1.0
  C  C142  1  0.10330582  0.89851550  0.29242108  1.0
  C  C143  1  0.26995726  0.60605643  0.89849192  1.0
  C  C144  1  0.45495267  0.88103467  0.63971731  1.0
  C  C145  1  0.62159657  0.24128780  0.88078058  1.0
  C  C146  1  0.78840953  0.36036942  0.24117668  1.0
  C  C147  1  0.95495166  0.11896563  0.36028350  1.0
  C  C148  1  0.12159618  0.75871264  0.11921854  1.0
  C  C149  1  0.28840985  0.63963022  0.75882229  1.0
  C  C150  1  0.44912772  0.92087520  0.39273850  1.0
  C  C151  1  0.61610376  0.52821124  0.92093600  1.0
  C  C152  1  0.78239961  0.60731314  0.52829269  1.0
  C  C153  1  0.94912649  0.07912437  0.60726003  1.0
  C  C154  1  0.11610432  0.47178993  0.07906348  1.0
  C  C155  1  0.28239771  0.39268723  0.47170853  1.0
  C  C156  1  0.50036330  0.00296750  0.41157115  1.0
  C  C157  1  0.66741153  0.59141291  0.00297557  1.0
  C  C158  1  0.83376455  0.58841734  0.59141943  1.0
  C  C159  1  0.00036138  0.99703225  0.58842935  1.0
  C  C160  1  0.16741183  0.40858824  0.99702461  1.0
  C  C161  1  0.33376369  0.41158373  0.40858222  1.0
  C  C162  1  0.37021035  0.93613883  0.44783426  1.0
  C  C163  1  0.53714446  0.48846660  0.93624098  1.0
  C  C164  1  0.70341998  0.55227412  0.48861273  1.0
  C  C165  1  0.87021040  0.06386150  0.55216517  1.0
  C  C166  1  0.03714495  0.51153387  0.06375867  1.0
  C  C167  1  0.20341809  0.44772556  0.51138740  1.0
  C  C168  1  0.34547034  0.03080699  0.51708377  1.0
  C  C169  1  0.51244485  0.51390832  0.03091922  1.0
  C  C170  1  0.67881741  0.48293776  0.51395072  1.0
  C  C171  1  0.84546836  0.96919335  0.48291436  1.0
  C  C172  1  0.01244434  0.48609290  0.96908077  1.0
  C  C173  1  0.17881656  0.51706265  0.48605101  1.0
  C  C174  1  0.47189164  0.09575941  0.48293851  1.0
  C  C175  1  0.63893924  0.61290403  0.09579244  1.0
  C  C176  1  0.80538964  0.51699275  0.61282352  1.0
  C  C177  1  0.97188911  0.90424015  0.51706069  1.0
  C  C178  1  0.13893942  0.38709713  0.90420707  1.0
  C  C179  1  0.30538934  0.48300907  0.38717910  1.0
  Br  Br180  1  0.52220839  0.46682049  0.26733540  1.0
  Br  Br181  1  0.68912255  0.19913977  0.46726041  1.0
  Br  Br182  1  0.85524240  0.73193010  0.19924586  1.0
  Br  Br183  1  0.02220541  0.53318145  0.73266686  1.0
  Br  Br184  1  0.18912077  0.80086064  0.53273753  1.0
  Br  Br185  1  0.35523917  0.26805853  0.80074960  1.0
  N  N186  1  0.48792205  0.75262896  0.35843565  1.0
  N  N187  1  0.65474648  0.39416573  0.75267702  1.0
  N  N188  1  0.82117413  0.64157688  0.39429768  1.0
  N  N189  1  0.98792272  0.24737134  0.64156584  1.0
  N  N190  1  0.15474648  0.60583470  0.24732278  1.0
  N  N191  1  0.32117452  0.35842275  0.60570260  1.0
  N  N192  1  0.39529861  0.10962828  0.53442944  1.0
  N  N193  1  0.56232795  0.57534185  0.10969983  1.0
  N  N194  1  0.72877697  0.46551263  0.57528645  1.0
  N  N195  1  0.89529669  0.89037058  0.46556930  1.0
  N  N196  1  0.06232874  0.42465862  0.89030049  1.0
  N  N197  1  0.22877735  0.53448850  0.42471508  1.0
  O  O198  1  0.65290844  0.66747302  0.30871238  1.0
  O  O199  1  0.81963272  0.35853374  0.66719683  1.0
  O  O200  1  0.98611581  0.69137186  0.35861358  1.0
  O  O201  1  0.15290765  0.33253107  0.69128861  1.0
  O  O202  1  0.31963282  0.64146515  0.33280117  1.0
  O  O203  1  0.48611700  0.30862843  0.64138663  1.0
  O  O204  1  0.71673826  0.80838445  0.42362241  1.0
  O  O205  1  0.88359585  0.38508063  0.80825173  1.0
  O  O206  1  0.05009103  0.57665584  0.38483770  1.0
  O  O207  1  0.21674015  0.19161668  0.57637973  1.0
  O  O208  1  0.38359643  0.61491970  0.19174835  1.0
  O  O209  1  0.55009144  0.42334242  0.61516086  1.0
