# generated using pymatgen
data_NdH3(C3O2)3
_symmetry_space_group_name_H-M   'P 1'
_cell_length_a   10.54552518
_cell_length_b   10.54554128
_cell_length_c   13.91892260
_cell_angle_alpha   89.99990387
_cell_angle_beta   89.99997299
_cell_angle_gamma   89.99973823
_symmetry_Int_Tables_number   1
_chemical_formula_structural   NdH3(C3O2)3
_chemical_formula_sum   'Nd4 H12 C36 O24'
_cell_volume   1547.89931797
_cell_formula_units_Z   4
loop_
 _symmetry_equiv_pos_site_id
 _symmetry_equiv_pos_as_xyz
  1  'x, y, z'
loop_
 _atom_site_type_symbol
 _atom_site_label
 _atom_site_symmetry_multiplicity
 _atom_site_fract_x
 _atom_site_fract_y
 _atom_site_fract_z
 _atom_site_occupancy
  Nd  Nd0  1  0.12047758  0.12047850  0.87499740  1.0
  Nd  Nd1  1  0.87952213  0.87952133  0.37499975  1.0
  Nd  Nd2  1  0.87951999  0.12048083  0.62500162  1.0
  Nd  Nd3  1  0.12047988  0.87951860  0.12500137  1.0
  H  H4  1  0.11691817  0.00000051  0.50000006  1.0
  H  H5  1  0.88308121  0.00000122  0.00000002  1.0
  H  H6  1  0.99999966  0.11691928  0.25000203  1.0
  H  H7  1  0.00000059  0.88308234  0.74999930  1.0
  H  H8  1  0.47046888  0.06881441  0.64589200  1.0
  H  H9  1  0.52953193  0.93118498  0.14589225  1.0
  H  H10  1  0.93119237  0.47046585  0.39589458  1.0
  H  H11  1  0.06880639  0.52953488  0.89589388  1.0
  H  H12  1  0.47046890  0.93118488  0.35410881  1.0
  H  H13  1  0.52952988  0.06881310  0.85410853  1.0
  H  H14  1  0.93119217  0.52953608  0.60410534  1.0
  H  H15  1  0.06880772  0.47046435  0.10410635  1.0
  C  C16  1  0.21663324  0.06974806  0.67236248  1.0
  C  C17  1  0.78336755  0.93025032  0.17236121  1.0
  C  C18  1  0.93025605  0.21663058  0.42236303  1.0
  C  C19  1  0.06974459  0.78337009  0.92236201  1.0
  C  C20  1  0.21663328  0.93025240  0.32763841  1.0
  C  C21  1  0.78336647  0.06974659  0.82763661  1.0
  C  C22  1  0.93025281  0.78336945  0.57763762  1.0
  C  C23  1  0.06974425  0.21663008  0.07763750  1.0
  C  C24  1  0.28600400  0.03609681  0.58276719  1.0
  C  C25  1  0.71399495  0.96390177  0.08276662  1.0
  C  C26  1  0.96390526  0.28600115  0.33276696  1.0
  C  C27  1  0.03609543  0.71399877  0.83276676  1.0
  C  C28  1  0.28600478  0.96390238  0.41723368  1.0
  C  C29  1  0.71399775  0.03609641  0.91723338  1.0
  C  C30  1  0.96390323  0.71399873  0.66723223  1.0
  C  C31  1  0.03609566  0.28600346  0.16723204  1.0
  C  C32  1  0.22004533  0.00000028  0.50000005  1.0
  C  C33  1  0.77995406  0.99999955  0.00000004  1.0
  C  C34  1  0.00000181  0.22004477  0.24999927  1.0
  C  C35  1  0.00000227  0.77995667  0.74999883  1.0
  C  C36  1  0.41881578  0.03841407  0.58208393  1.0
  C  C37  1  0.58118222  0.96158451  0.08208269  1.0
  C  C38  1  0.96158834  0.41881179  0.33208507  1.0
  C  C39  1  0.03841046  0.58118718  0.83208360  1.0
  C  C40  1  0.41881657  0.96158451  0.41791762  1.0
  C  C41  1  0.58118502  0.03841428  0.91791521  1.0
  C  C42  1  0.96158786  0.58118715  0.66791556  1.0
  C  C43  1  0.03841104  0.41881408  0.16791664  1.0
  C  C44  1  0.48484067  0.99999955  0.50000008  1.0
  C  C45  1  0.51515928  0.00000016  0.99999937  1.0
  C  C46  1  0.00000120  0.48483724  0.25000270  1.0
  C  C47  1  0.00000049  0.51516286  0.75000025  1.0
  C  C48  1  0.62686907  0.99999935  0.49999925  1.0
  C  C49  1  0.37313057  0.99999925  0.99999857  1.0
  C  C50  1  0.00000277  0.62686694  0.25000045  1.0
  C  C51  1  0.00000176  0.37313412  0.75000106  1.0
  O  O52  1  0.09519592  0.08231763  0.67078407  1.0
  O  O53  1  0.90480582  0.91768170  0.17078277  1.0
  O  O54  1  0.91768227  0.09519446  0.42078468  1.0
  O  O55  1  0.08231836  0.90480717  0.92078350  1.0
  O  O56  1  0.09519697  0.91768338  0.32921543  1.0
  O  O57  1  0.90480373  0.08231845  0.82921357  1.0
  O  O58  1  0.91768132  0.90480848  0.57921740  1.0
  O  O59  1  0.08231858  0.09519295  0.07922103  1.0
  O  O60  1  0.27822898  0.08290600  0.75016087  1.0
  O  O61  1  0.72177366  0.91709411  0.25015963  1.0
  O  O62  1  0.91710433  0.27822623  0.50016355  1.0
  O  O63  1  0.08289372  0.72177443  0.00016207  1.0
  O  O64  1  0.27822913  0.91709607  0.24983857  1.0
  O  O65  1  0.72176877  0.08290309  0.74983821  1.0
  O  O66  1  0.91709953  0.72177577  0.49983853  1.0
  O  O67  1  0.08288778  0.27822094  0.99983743  1.0
  O  O68  1  0.68234736  0.08574346  0.54858844  1.0
  O  O69  1  0.31765350  0.91425330  0.04858879  1.0
  O  O70  1  0.91425866  0.68234891  0.29859022  1.0
  O  O71  1  0.08574774  0.31765583  0.79859266  1.0
  O  O72  1  0.68234740  0.91425391  0.45140798  1.0
  O  O73  1  0.31764942  0.08574385  0.95140919  1.0
  O  O74  1  0.91425748  0.31765499  0.70141258  1.0
  O  O75  1  0.08574804  0.68234237  0.20140972  1.0
