# generated using pymatgen
data_ZnH28C30N(ClO2)2
_symmetry_space_group_name_H-M   'P 1'
_cell_length_a   16.58405586
_cell_length_b   17.58107027
_cell_length_c   17.77373269
_cell_angle_alpha   90.71448603
_cell_angle_beta   91.97626429
_cell_angle_gamma   95.27036099
_symmetry_Int_Tables_number   1
_chemical_formula_structural   ZnH28C30N(ClO2)2
_chemical_formula_sum   'Zn2 H56 C60 N2 Cl4 O8'
_cell_volume   5156.59176678
_cell_formula_units_Z   2
loop_
 _symmetry_equiv_pos_site_id
 _symmetry_equiv_pos_as_xyz
  1  'x, y, z'
loop_
 _atom_site_type_symbol
 _atom_site_label
 _atom_site_symmetry_multiplicity
 _atom_site_fract_x
 _atom_site_fract_y
 _atom_site_fract_z
 _atom_site_occupancy
  Zn  Zn0  1  0.40762958  0.49621253  0.49886122  1.0
  Zn  Zn1  1  0.58784693  0.50379502  0.50190863  1.0
  H  H2  1  0.99701976  0.48222792  0.58279380  1.0
  H  H3  1  0.99901642  0.51929287  0.41477200  1.0
  H  H4  1  0.44219274  0.00609724  0.42771859  1.0
  H  H5  1  0.54765800  0.99465192  0.57097844  1.0
  H  H6  1  0.38713829  0.47699128  0.88681093  1.0
  H  H7  1  0.64468531  0.46267673  0.87287349  1.0
  H  H8  1  0.38494130  0.50831317  0.10527697  1.0
  H  H9  1  0.64395112  0.55208576  0.14103997  1.0
  H  H10  1  0.71330169  0.58050319  0.66252350  1.0
  H  H11  1  0.65986553  0.61190137  0.58278173  1.0
  H  H12  1  0.75688559  0.65734312  0.60927857  1.0
  H  H13  1  0.89154305  0.65301407  0.61378444  1.0
  H  H14  1  0.95320028  0.57866350  0.63453480  1.0
  H  H15  1  0.86133312  0.58498772  0.68192197  1.0
  H  H16  1  0.71334224  0.43415567  0.34443223  1.0
  H  H17  1  0.63750934  0.40817205  0.40886963  1.0
  H  H18  1  0.71897027  0.35070138  0.39793175  1.0
  H  H19  1  0.83754424  0.33745290  0.41515928  1.0
  H  H20  1  0.93496431  0.38623339  0.43173577  1.0
  H  H21  1  0.87171905  0.41168307  0.35508356  1.0
  H  H22  1  0.11589865  0.58295799  0.64313617  1.0
  H  H23  1  0.06405209  0.61868252  0.56409465  1.0
  H  H24  1  0.16326873  0.65843058  0.59152978  1.0
  H  H25  1  0.29987425  0.64620962  0.59020207  1.0
  H  H26  1  0.35199865  0.56533156  0.61084662  1.0
  H  H27  1  0.26100164  0.57931478  0.65636248  1.0
  H  H28  1  0.12961215  0.42556252  0.31299496  1.0
  H  H29  1  0.04120627  0.41839352  0.36700498  1.0
  H  H30  1  0.11263212  0.35001391  0.37642298  1.0
  H  H31  1  0.24749593  0.34122140  0.39943281  1.0
  H  H32  1  0.33988268  0.40015960  0.40220838  1.0
  H  H33  1  0.26441772  0.41226552  0.33116261  1.0
  H  H34  1  0.30061596  0.26478600  0.47571294  1.0
  H  H35  1  0.34753014  0.31580573  0.55421152  1.0
  H  H36  1  0.30072002  0.22140737  0.56486417  1.0
  H  H37  1  0.30469214  0.09112381  0.55156165  1.0
  H  H38  1  0.33406307  0.04263361  0.47096902  1.0
  H  H39  1  0.28627434  0.12855347  0.46144842  1.0
  H  H40  1  0.68268664  0.22933721  0.57311031  1.0
  H  H41  1  0.63976776  0.31785493  0.58449977  1.0
  H  H42  1  0.67971571  0.29423629  0.49797245  1.0
  H  H43  1  0.68361610  0.15324212  0.47186383  1.0
  H  H44  1  0.62815029  0.06185938  0.46515781  1.0
  H  H45  1  0.66535512  0.09937682  0.55363035  1.0
  H  H46  1  0.33416966  0.89195296  0.43099962  1.0
  H  H47  1  0.36030903  0.93163244  0.52148585  1.0
  H  H48  1  0.30933748  0.83841038  0.51163177  1.0
  H  H49  1  0.31756296  0.71005293  0.49541373  1.0
  H  H50  1  0.37033314  0.66559376  0.42488756  1.0
  H  H51  1  0.32933150  0.75405414  0.40732345  1.0
  H  H52  1  0.70872614  0.87744258  0.54664147  1.0
  H  H53  1  0.65632296  0.96085669  0.54391037  1.0
  H  H54  1  0.69035233  0.92233443  0.46013261  1.0
  H  H55  1  0.70605565  0.79192413  0.44841867  1.0
  H  H56  1  0.66358478  0.69512804  0.45085002  1.0
  H  H57  1  0.70095290  0.74332199  0.53465396  1.0
  C  C58  1  0.49608090  0.35399984  0.50727616  1.0
  C  C59  1  0.48821284  0.51627022  0.35500461  1.0
  C  C60  1  0.50946881  0.64628992  0.49378347  1.0
  C  C61  1  0.49556177  0.48334572  0.64582580  1.0
  C  C62  1  0.75219187  0.45574115  0.45931315  1.0
  C  C63  1  0.83632041  0.44981747  0.46473553  1.0
  C  C64  1  0.88331981  0.49511798  0.51902836  1.0
  C  C65  1  0.84432395  0.54312464  0.56718699  1.0
  C  C66  1  0.76048327  0.54744290  0.55715244  1.0
  C  C67  1  0.97214378  0.49396539  0.52676326  1.0
  C  C68  1  0.02380314  0.50766137  0.47085187  1.0
  C  C69  1  0.15164245  0.45875850  0.42994753  1.0
  C  C70  1  0.11250153  0.50577536  0.47892644  1.0
  C  C71  1  0.15920150  0.54898345  0.53485922  1.0
  C  C72  1  0.24287586  0.54131194  0.54161377  1.0
  C  C73  1  0.23544349  0.45397861  0.44008891  1.0
  C  C74  1  0.49188648  0.26867024  0.51662968  1.0
  C  C75  1  0.56389231  0.23073428  0.52175269  1.0
  C  C76  1  0.55989327  0.15137348  0.50689656  1.0
  C  C77  1  0.48385784  0.10880900  0.49512516  1.0
  C  C78  1  0.41189164  0.14547330  0.50087329  1.0
  C  C79  1  0.41555800  0.22490401  0.51299710  1.0
  C  C80  1  0.47774022  0.02584731  0.47845692  1.0
  C  C81  1  0.51231514  0.97377102  0.52049311  1.0
  C  C82  1  0.58452237  0.85777599  0.50360127  1.0
  C  C83  1  0.51012063  0.89101409  0.50440635  1.0
  C  C84  1  0.43683038  0.84508836  0.48834415  1.0
  C  C85  1  0.43807871  0.76584714  0.47638917  1.0
  C  C86  1  0.51197500  0.73163129  0.48431422  1.0
  C  C87  1  0.58622143  0.77879198  0.49054057  1.0
  C  C88  1  0.50043996  0.46740296  0.72944673  1.0
  C  C89  1  0.43269007  0.46755156  0.77585593  1.0
  C  C90  1  0.44089189  0.47369327  0.85394749  1.0
  C  C91  1  0.51786678  0.47716721  0.89011129  1.0
  C  C92  1  0.58503974  0.46617186  0.84632966  1.0
  C  C93  1  0.57548569  0.46044698  0.76833997  1.0
  C  C94  1  0.52466845  0.49185267  0.96861055  1.0
  C  C95  1  0.52402533  0.50836598  0.03550590  1.0
  C  C96  1  0.51617009  0.52301057  0.11322322  1.0
  C  C97  1  0.43832373  0.51821394  0.14265628  1.0
  C  C98  1  0.42885223  0.52472800  0.21990069  1.0
  C  C99  1  0.49564698  0.53291767  0.27194209  1.0
  C  C100  1  0.57242703  0.54775933  0.23961677  1.0
  C  C101  1  0.58331965  0.54217331  0.16258657  1.0
  C  C102  1  0.72005440  0.60216342  0.60508602  1.0
  C  C103  1  0.89025393  0.59197303  0.62741031  1.0
  C  C104  1  0.70229383  0.40960981  0.40024976  1.0
  C  C105  1  0.87238638  0.39365412  0.41422287  1.0
  C  C106  1  0.12348952  0.60507607  0.58580993  1.0
  C  C107  1  0.29194455  0.58497846  0.60283280  1.0
  C  C108  1  0.10603868  0.41116903  0.36867500  1.0
  C  C109  1  0.27487608  0.39978707  0.39085067  1.0
  C  C110  1  0.33733823  0.25919571  0.52774368  1.0
  C  C111  1  0.33036403  0.09957150  0.49553893  1.0
  C  C112  1  0.64572724  0.27033157  0.54560444  1.0
  C  C113  1  0.63806837  0.11451759  0.49901429  1.0
  C  C114  1  0.35619781  0.87854195  0.48813238  1.0
  C  C115  1  0.36012479  0.72087567  0.44979684  1.0
  C  C116  1  0.66365484  0.90700953  0.51451989  1.0
  C  C117  1  0.66836676  0.75008899  0.48048530  1.0
  N  N118  1  0.71562261  0.50392336  0.50455077  1.0
  N  N119  1  0.27989161  0.49492023  0.49482632  1.0
  Cl  Cl120  1  0.33348617  0.46059853  0.74078506  1.0
  Cl  Cl121  1  0.66095010  0.44016910  0.72103887  1.0
  Cl  Cl122  1  0.32932513  0.52191661  0.24706731  1.0
  Cl  Cl123  1  0.65841000  0.57760673  0.29419415  1.0
  O  O124  1  0.43456292  0.38302157  0.47865750  1.0
  O  O125  1  0.56315489  0.39316894  0.52443416  1.0
  O  O126  1  0.54709906  0.48571487  0.38539384  1.0
  O  O127  1  0.42360970  0.53014059  0.38691508  1.0
  O  O128  1  0.57226685  0.61264322  0.47812769  1.0
  O  O129  1  0.44604909  0.61205351  0.52059870  1.0
  O  O130  1  0.42880184  0.46403470  0.61024382  1.0
  O  O131  1  0.55781406  0.51834847  0.61878594  1.0
