# generated using pymatgen
data_Zn4H21C39N3O13
_symmetry_space_group_name_H-M   'P 1'
_cell_length_a   17.96561438
_cell_length_b   18.10905597
_cell_length_c   18.15112669
_cell_angle_alpha   118.65645321
_cell_angle_beta   119.44853713
_cell_angle_gamma   61.09791400
_symmetry_Int_Tables_number   1
_chemical_formula_structural   Zn4H21C39N3O13
_chemical_formula_sum   'Zn8 H42 C78 N6 O26'
_cell_volume   4269.09520729
_cell_formula_units_Z   2
loop_
 _symmetry_equiv_pos_site_id
 _symmetry_equiv_pos_as_xyz
  1  'x, y, z'
loop_
 _atom_site_type_symbol
 _atom_site_label
 _atom_site_symmetry_multiplicity
 _atom_site_fract_x
 _atom_site_fract_y
 _atom_site_fract_z
 _atom_site_occupancy
  Zn  Zn0  1  0.96180619  0.15174221  0.06207107  1.0
  Zn  Zn1  1  0.13027593  0.96936248  0.05691291  1.0
  Zn  Zn2  1  0.95818658  0.97925758  0.88394825  1.0
  Zn  Zn3  1  0.94330885  0.98307521  0.05568451  1.0
  Zn  Zn4  1  0.54699780  0.39160607  0.47403530  1.0
  Zn  Zn5  1  0.36602380  0.56021597  0.47481107  1.0
  Zn  Zn6  1  0.53728267  0.56520849  0.46364303  1.0
  Zn  Zn7  1  0.54609967  0.56447794  0.64560530  1.0
  H  H8  1  0.16262137  0.26184493  0.31242075  1.0
  H  H9  1  0.36870617  0.26195786  0.20954748  1.0
  H  H10  1  0.23039288  0.26941316  0.04900606  1.0
  H  H11  1  0.22673252  0.18875612  0.89190378  1.0
  H  H12  1  0.26649718  0.02334396  0.83302187  1.0
  H  H13  1  0.31405182  0.93980829  0.93333222  1.0
  H  H14  1  0.31606046  0.02078814  0.08939751  1.0
  H  H15  1  0.87760145  0.29609165  0.88123185  1.0
  H  H16  1  0.59139108  0.25706029  0.64956462  1.0
  H  H17  1  0.69061687  0.20807935  0.89898979  1.0
  H  H18  1  0.60895404  0.12825732  0.89615405  1.0
  H  H19  1  0.53061264  0.03300904  0.75099301  1.0
  H  H20  1  0.53932132  0.01439923  0.61049457  1.0
  H  H21  1  0.62080684  0.09477192  0.61317811  1.0
  H  H22  1  0.68769441  0.25950481  0.11622560  1.0
  H  H23  1  0.81646508  0.29860034  0.43588184  1.0
  H  H24  1  0.95516271  0.32496430  0.46222363  1.0
  H  H25  1  0.11842914  0.26646094  0.54394857  1.0
  H  H26  1  0.20399327  0.10566413  0.48989881  1.0
  H  H27  1  0.12426301  0.00384369  0.35395429  1.0
  H  H28  1  0.96207678  0.06240241  0.27306233  1.0
  H  H29  1  0.14425158  0.90751465  0.74598589  1.0
  H  H30  1  0.36764496  0.62191702  0.78383287  1.0
  H  H31  1  0.11723810  0.72160919  0.83251296  1.0
  H  H32  1  0.12194144  0.63312115  0.90517614  1.0
  H  H33  1  0.27026585  0.54905034  0.99478471  1.0
  H  H34  1  0.41252826  0.55914337  0.01508016  1.0
  H  H35  1  0.40807642  0.64721271  0.94113369  1.0
  H  H36  1  0.24758956  0.83261798  0.41545114  1.0
  H  H37  1  0.20734061  0.70351065  0.09642573  1.0
  H  H38  1  0.17842527  0.56189621  0.10406293  1.0
  H  H39  1  0.23645572  0.39800847  0.03634153  1.0
  H  H40  1  0.40261736  0.31904741  0.07448056  1.0
  H  H41  1  0.51006392  0.40506608  0.17967513  1.0
  H  H42  1  0.45146037  0.56859526  0.24626673  1.0
  H  H43  1  0.82459856  0.61312102  0.69013669  1.0
  H  H44  1  0.68295948  0.93087796  0.82607433  1.0
  H  H45  1  0.54444725  0.91061942  0.83406733  1.0
  H  H46  1  0.37769535  0.97845129  0.77913371  1.0
  H  H47  1  0.29343106  0.95531923  0.61640543  1.0
  H  H48  1  0.37838129  0.86402111  0.50910925  1.0
  H  H49  1  0.54411214  0.79519578  0.56382538  1.0
  C  C50  1  0.15135598  0.14742243  0.14911783  1.0
  C  C51  1  0.21321655  0.20212377  0.20346098  1.0
  C  C52  1  0.20828742  0.26047443  0.28809263  1.0
  C  C53  1  0.31220224  0.31478230  0.31264226  1.0
  C  C54  1  0.32187864  0.25968573  0.22947971  1.0
  C  C55  1  0.27047281  0.20227328  0.17160325  1.0
  C  C56  1  0.27261039  0.15061137  0.07940573  1.0
  C  C57  1  0.24905376  0.19702874  0.02333046  1.0
  C  C58  1  0.24681995  0.15165608  0.93514354  1.0
  C  C59  1  0.26939526  0.05906425  0.90228253  1.0
  C  C60  1  0.29518773  0.01216650  0.95823585  1.0
  C  C61  1  0.29654248  0.05749834  0.04619688  1.0
  C  C62  1  0.36691851  0.37685161  0.37442369  1.0
  C  C63  1  0.85008447  0.16337278  0.88042949  1.0
  C  C64  1  0.78635184  0.22208863  0.82321998  1.0
  C  C65  1  0.81361304  0.28679415  0.83063158  1.0
  C  C66  1  0.68936398  0.32481381  0.71418416  1.0
  C  C67  1  0.65587989  0.26262384  0.70138870  1.0
  C  C68  1  0.70292120  0.21163330  0.75894763  1.0
  C  C69  1  0.66118256  0.15685290  0.75622222  1.0
  C  C70  1  0.65857235  0.16450280  0.83579077  1.0
  C  C71  1  0.61198710  0.12019606  0.83403099  1.0
  C  C72  1  0.56810926  0.06690062  0.75284926  1.0
  C  C73  1  0.57224513  0.05719036  0.67365995  1.0
  C  C74  1  0.61784137  0.10233219  0.67511993  1.0
  C  C75  1  0.63567154  0.38307008  0.65535098  1.0
  C  C76  1  0.86339111  0.16562783  0.16040124  1.0
  C  C77  1  0.81059849  0.22333008  0.22313773  1.0
  C  C78  1  0.71857845  0.26785176  0.18762034  1.0
  C  C79  1  0.70061693  0.33140294  0.32327929  1.0
  C  C80  1  0.79124670  0.28965598  0.36493021  1.0
  C  C81  1  0.84983780  0.23595659  0.31544013  1.0
  C  C82  1  0.94739617  0.19813416  0.36145729  1.0
  C  C83  1  0.99243374  0.25452160  0.43898463  1.0
  C  C84  1  0.08425707  0.22161491  0.48460050  1.0
  C  C85  1  0.13218135  0.13157873  0.45397770  1.0
  C  C86  1  0.08798482  0.07467972  0.37766548  1.0
  C  C87  1  0.99619834  0.10778785  0.33142357  1.0
  C  C88  1  0.63905840  0.38928869  0.37783174  1.0
  C  C89  1  0.14025396  0.87979744  0.87565564  1.0
  C  C90  1  0.19779478  0.81671305  0.81836157  1.0
  C  C91  1  0.19297965  0.84356686  0.75484505  1.0
  C  C92  1  0.30698486  0.71891690  0.71691375  1.0
  C  C93  1  0.31779481  0.68642980  0.77858627  1.0
  C  C94  1  0.26020023  0.73366841  0.82891139  1.0
  C  C95  1  0.26252581  0.69053644  0.88185788  1.0
  C  C96  1  0.18213592  0.68731510  0.87365253  1.0
  C  C97  1  0.18490133  0.63673719  0.91409963  1.0
  C  C98  1  0.26777243  0.58961648  0.96410142  1.0
  C  C99  1  0.34789788  0.59463049  0.97480572  1.0
  C  C100  1  0.34538647  0.64407006  0.93338072  1.0
  C  C101  1  0.36384155  0.66166750  0.65742859  1.0
  C  C102  1  0.34950792  0.65789371  0.37401430  1.0
  C  C103  1  0.28791079  0.71238587  0.31216993  1.0
  C  C104  1  0.24117684  0.80234024  0.34497508  1.0
  C  C105  1  0.17706531  0.81909601  0.20743947  1.0
  C  C106  1  0.21775633  0.72932903  0.16751027  1.0
  C  C107  1  0.27334672  0.67320207  0.22010570  1.0
  C  C108  1  0.31104271  0.57598128  0.17942138  1.0
  C  C109  1  0.25096816  0.52723093  0.11957145  1.0
  C  C110  1  0.28383097  0.43521393  0.08211712  1.0
  C  C111  1  0.37693983  0.39109693  0.10345984  1.0
  C  C112  1  0.43720768  0.43917230  0.16220060  1.0
  C  C113  1  0.40433152  0.53126615  0.20027085  1.0
  C  C114  1  0.12165844  0.88069551  0.15192409  1.0
  C  C115  1  0.64202665  0.65541906  0.63992475  1.0
  C  C116  1  0.69713346  0.71690249  0.69600418  1.0
  C  C117  1  0.79108339  0.68387113  0.71821358  1.0
  C  C118  1  0.80434036  0.82050342  0.81158034  1.0
  C  C119  1  0.71131944  0.85988284  0.79474864  1.0
  C  C120  1  0.65502421  0.80821509  0.73278481  1.0
  C  C121  1  0.55546743  0.84816957  0.70264340  1.0
  C  C122  1  0.50786320  0.90081896  0.76289140  1.0
  C  C123  1  0.41405296  0.93870314  0.73177461  1.0
  C  C124  1  0.36677628  0.92566640  0.64054248  1.0
  C  C125  1  0.41395999  0.87410681  0.58037137  1.0
  C  C126  1  0.50752708  0.83509100  0.61102568  1.0
  C  C127  1  0.86391476  0.87804213  0.87315163  1.0
  N  N128  1  0.25564872  0.31656656  0.34201914  1.0
  N  N129  1  0.76608667  0.33880715  0.77888237  1.0
  N  N130  1  0.66412507  0.32273128  0.23604573  1.0
  N  N131  1  0.24469671  0.79587170  0.70341466  1.0
  N  N132  1  0.18586317  0.85537074  0.29407646  1.0
  N  N133  1  0.84459551  0.73448512  0.77338551  1.0
  O  O134  1  0.99814184  0.02158941  0.01522133  1.0
  O  O135  1  0.18682862  0.06348816  0.13315147  1.0
  O  O136  1  0.06758316  0.19183919  0.12634080  1.0
  O  O137  1  0.32704799  0.45500601  0.41617532  1.0
  O  O138  1  0.44930017  0.34424169  0.37849444  1.0
  O  O139  1  0.86834672  0.07986907  0.84004812  1.0
  O  O140  1  0.88270665  0.20224323  0.96359313  1.0
  O  O141  1  0.63105012  0.46432889  0.69256284  1.0
  O  O142  1  0.59851705  0.34474515  0.57294474  1.0
  O  O143  1  0.86478547  0.08505816  0.12278084  1.0
  O  O144  1  0.89886387  0.20297155  0.14799336  1.0
  O  O145  1  0.59144956  0.46738574  0.37272640  1.0
  O  O146  1  0.64175799  0.35421715  0.42595347  1.0
  O  O147  1  0.17922003  0.89053367  0.95901296  1.0
  O  O148  1  0.05814390  0.91973702  0.83682328  1.0
  O  O149  1  0.32218822  0.64907796  0.57434169  1.0
  O  O150  1  0.44824158  0.62887477  0.69648284  1.0
  O  O151  1  0.43236165  0.65326117  0.40760277  1.0
  O  O152  1  0.31317164  0.62221454  0.38715051  1.0
  O  O153  1  0.03716166  0.91477978  0.13824097  1.0
  O  O154  1  0.16665758  0.89111893  0.12321103  1.0
  O  O155  1  0.63177060  0.61970082  0.55700502  1.0
  O  O156  1  0.61089558  0.64485658  0.68253597  1.0
  O  O157  1  0.86430232  0.91572355  0.95335645  1.0
  O  O158  1  0.90639107  0.88513227  0.83914332  1.0
  O  O159  1  0.49840416  0.52199869  0.51490105  1.0
