# generated using pymatgen
data_Zn2H50C49(N2O3)3
_symmetry_space_group_name_H-M   'P 1'
_cell_length_a   15.80927385
_cell_length_b   16.02823964
_cell_length_c   16.96317932
_cell_angle_alpha   85.72788621
_cell_angle_beta   89.81324191
_cell_angle_gamma   88.03074329
_symmetry_Int_Tables_number   1
_chemical_formula_structural   Zn2H50C49(N2O3)3
_chemical_formula_sum   'Zn2 H50 C49 N6 O9'
_cell_volume   4283.90632996
_cell_formula_units_Z   1
loop_
 _symmetry_equiv_pos_site_id
 _symmetry_equiv_pos_as_xyz
  1  'x, y, z'
loop_
 _atom_site_type_symbol
 _atom_site_label
 _atom_site_symmetry_multiplicity
 _atom_site_fract_x
 _atom_site_fract_y
 _atom_site_fract_z
 _atom_site_occupancy
  Zn  Zn0  1  0.50281559  0.59718370  0.50061844  1.0
  Zn  Zn1  1  0.50292585  0.41645974  0.49891390  1.0
  H  H2  1  0.07371509  0.55535992  0.38442741  1.0
  H  H3  1  0.93790362  0.63161877  0.48660465  1.0
  H  H4  1  0.06454518  0.45616155  0.62499068  1.0
  H  H5  1  0.53286729  0.61189259  0.74669783  1.0
  H  H6  1  0.51024330  0.60331505  0.89407980  1.0
  H  H7  1  0.53454815  0.63255795  0.10047812  1.0
  H  H8  1  0.52931174  0.63610889  0.24910561  1.0
  H  H9  1  0.52151187  0.34508716  0.74744283  1.0
  H  H10  1  0.49667277  0.33619041  0.89538294  1.0
  H  H11  1  0.93297384  0.60331756  0.38796914  1.0
  H  H12  1  0.38131341  0.41641309  0.26219561  1.0
  H  H13  1  0.55791993  0.91260283  0.42557161  1.0
  H  H14  1  0.54443787  0.13063734  0.37892209  1.0
  H  H15  1  0.42911238  0.70380274  0.61064380  1.0
  H  H16  1  0.42530262  0.12115469  0.60841320  1.0
  H  H17  1  0.41102039  0.85667366  0.63619807  1.0
  H  H18  1  0.43501111  0.27881514  0.60360594  1.0
  H  H19  1  0.93738723  0.36855351  0.45085048  1.0
  H  H20  1  0.96569976  0.44095756  0.37244095  1.0
  H  H21  1  0.10591490  0.40986399  0.41574935  1.0
  H  H22  1  0.07279384  0.36704050  0.50929041  1.0
  H  H23  1  0.90041354  0.52852403  0.59982202  1.0
  H  H24  1  0.92686382  0.42206027  0.58901132  1.0
  H  H25  1  0.04273177  0.56438975  0.60643965  1.0
  H  H26  1  0.20799026  0.77698674  0.50206311  1.0
  H  H27  1  0.10952173  0.82887411  0.47732064  1.0
  H  H28  1  0.14129449  0.81296103  0.57793090  1.0
  H  H29  1  0.03332338  0.70869695  0.54831244  1.0
  H  H30  1  0.13222803  0.65824043  0.57226949  1.0
  H  H31  1  0.16712770  0.65018378  0.43095939  1.0
  H  H32  1  0.07186074  0.70426137  0.40236508  1.0
  H  H33  1  0.26523131  0.34988256  0.97844244  1.0
  H  H34  1  0.20379483  0.33576624  0.06609405  1.0
  H  H35  1  0.17509944  0.41627972  0.99240297  1.0
  H  H36  1  0.24736808  0.47826059  0.10508949  1.0
  H  H37  1  0.30806793  0.49081806  0.01789354  1.0
  H  H38  1  0.39737213  0.36271329  0.06450538  1.0
  H  H39  1  0.33719924  0.35467189  0.15318531  1.0
  H  H40  1  0.71129166  0.64924127  0.32614131  1.0
  H  H41  1  0.71393536  0.74989482  0.27458898  1.0
  H  H42  1  0.79795790  0.71409861  0.33940124  1.0
  H  H43  1  0.70323524  0.81523132  0.40745660  1.0
  H  H44  1  0.69789844  0.71311440  0.45519333  1.0
  H  H45  1  0.56641250  0.69003979  0.37545169  1.0
  H  H46  1  0.56985829  0.79496815  0.33535364  1.0
  H  H47  1  0.55082053  0.23423157  0.27596713  1.0
  H  H48  1  0.64907242  0.22191838  0.32884414  1.0
  H  H49  1  0.67665922  0.37460231  0.29263736  1.0
  H  H50  1  0.66675304  0.31719049  0.20685239  1.0
  H  H51  1  0.58134196  0.38353366  0.23621394  1.0
  C  C52  1  0.46327257  0.52007939  0.35219817  1.0
  C  C53  1  0.05631554  0.57613067  0.44307998  1.0
  C  C54  1  0.08574691  0.50172972  0.50301816  1.0
  C  C55  1  0.03592639  0.50357580  0.58205527  1.0
  C  C56  1  0.94205896  0.48630785  0.56789160  1.0
  C  C57  1  0.17575638  0.50272689  0.51793569  1.0
  C  C58  1  0.83161104  0.49854384  0.46700065  1.0
  C  C59  1  0.75473621  0.50000267  0.46325219  1.0
  C  C60  1  0.45768168  0.52418908  0.26398149  1.0
  C  C61  1  0.41541645  0.46315252  0.22569175  1.0
  C  C62  1  0.41607399  0.46003574  0.14362099  1.0
  C  C63  1  0.66338610  0.50495217  0.46890894  1.0
  C  C64  1  0.46430689  0.52090158  0.09960146  1.0
  C  C65  1  0.50142901  0.58566663  0.13759467  1.0
  C  C66  1  0.49882363  0.58747547  0.21911146  1.0
  C  C67  1  0.51241625  0.54754342  0.86111205  1.0
  C  C68  1  0.52512738  0.55198815  0.78018721  1.0
  C  C69  1  0.50052796  0.46921921  0.90218789  1.0
  C  C70  1  0.52692354  0.47909697  0.73877095  1.0
  C  C71  1  0.51864528  0.40097866  0.78029745  1.0
  C  C72  1  0.50506633  0.39599251  0.86165088  1.0
  C  C73  1  0.45928534  0.24258692  0.55594361  1.0
  C  C74  1  0.53147429  0.48660169  0.65028138  1.0
  C  C75  1  0.45372073  0.15626389  0.55841489  1.0
  C  C76  1  0.48623332  0.11600660  0.49339503  1.0
  C  C77  1  0.52099733  0.16265685  0.42929681  1.0
  C  C78  1  0.52543966  0.24950176  0.43270998  1.0
  C  C79  1  0.52856702  0.86755131  0.46736362  1.0
  C  C80  1  0.53645269  0.78221169  0.45672849  1.0
  C  C81  1  0.48253917  0.89568455  0.53127273  1.0
  C  C82  1  0.45649571  0.75271599  0.57132701  1.0
  C  C83  1  0.44654018  0.83683273  0.58535537  1.0
  C  C84  1  0.34259924  0.50858764  0.53146060  1.0
  C  C85  1  0.95893250  0.58380356  0.44677984  1.0
  C  C86  1  0.96961742  0.42746016  0.43688310  1.0
  C  C87  1  0.06259614  0.42017854  0.46511983  1.0
  C  C88  1  0.25147059  0.50571433  0.52900150  1.0
  C  C89  1  0.92255185  0.49882297  0.47793947  1.0
  C  C90  1  0.10042793  0.65953703  0.44827378  1.0
  C  C91  1  0.09888585  0.70000719  0.52726679  1.0
  C  C92  1  0.14165450  0.78444011  0.52094569  1.0
  C  C93  1  0.36095820  0.39894649  0.10612926  1.0
  C  C94  1  0.28486932  0.44359709  0.06255325  1.0
  C  C95  1  0.22912186  0.38309302  0.02277061  1.0
  C  C96  1  0.58594613  0.75270170  0.38785026  1.0
  C  C97  1  0.68252114  0.75126627  0.40027708  1.0
  C  C98  1  0.72903290  0.71434772  0.33115291  1.0
  C  C99  1  0.59834155  0.26724810  0.30825505  1.0
  C  C100  1  0.63284351  0.34031708  0.25796823  1.0
  N  N101  1  0.48034309  0.52652588  0.01787478  1.0
  N  N102  1  0.48306577  0.45853171  0.98411724  1.0
  N  N103  1  0.49508448  0.28810588  0.49539797  1.0
  N  N104  1  0.48841199  0.02893416  0.48410914  1.0
  N  N105  1  0.47313950  0.98209171  0.54526018  1.0
  N  N106  1  0.50009728  0.72583886  0.50895549  1.0
  O  O107  1  0.48547179  0.58642083  0.38253706  1.0
  O  O108  1  0.44863209  0.45064001  0.38990643  1.0
  O  O109  1  0.63131738  0.57588602  0.48429549  1.0
  O  O110  1  0.62366477  0.43858275  0.45938347  1.0
  O  O111  1  0.52013394  0.56037770  0.61763251  1.0
  O  O112  1  0.54330231  0.41989548  0.61485514  1.0
  O  O113  1  0.37394912  0.58052507  0.51775032  1.0
  O  O114  1  0.38294059  0.43880826  0.54494909  1.0
  O  O115  1  0.55859638  0.30110944  0.37647698  1.0
