# generated using pymatgen
data_Zn4H6C12N6O7
_symmetry_space_group_name_H-M   'P 1'
_cell_length_a   14.34097367
_cell_length_b   14.34092424
_cell_length_c   14.34093092
_cell_angle_alpha   60.00003926
_cell_angle_beta   60.00019249
_cell_angle_gamma   60.00016477
_symmetry_Int_Tables_number   1
_chemical_formula_structural   Zn4H6C12N6O7
_chemical_formula_sum   'Zn8 H12 C24 N12 O14'
_cell_volume   2085.54433871
_cell_formula_units_Z   2
loop_
 _symmetry_equiv_pos_site_id
 _symmetry_equiv_pos_as_xyz
  1  'x, y, z'
loop_
 _atom_site_type_symbol
 _atom_site_label
 _atom_site_symmetry_multiplicity
 _atom_site_fract_x
 _atom_site_fract_y
 _atom_site_fract_z
 _atom_site_occupancy
  Zn  Zn0  1  0.41706346  0.19431230  0.19431211  1.0
  Zn  Zn1  1  0.19431318  0.19430810  0.41707038  1.0
  Zn  Zn2  1  0.19431299  0.19430804  0.19430812  1.0
  Zn  Zn3  1  0.19431396  0.41707001  0.19430794  1.0
  Zn  Zn4  1  0.80589782  0.80590031  0.58230115  1.0
  Zn  Zn5  1  0.58230891  0.80589706  0.80589735  1.0
  Zn  Zn6  1  0.80589704  0.58230182  0.80590027  1.0
  Zn  Zn7  1  0.80589801  0.80590037  0.80590088  1.0
  H  H8  1  0.62015619  0.03187351  0.31854626  1.0
  H  H9  1  0.31854530  0.02942502  0.62015389  1.0
  H  H10  1  0.02942376  0.31854533  0.03187462  1.0
  H  H11  1  0.03187493  0.62015573  0.02942421  1.0
  H  H12  1  0.62015608  0.31854673  0.02942501  1.0
  H  H13  1  0.31854508  0.62015445  0.03187410  1.0
  H  H14  1  0.02942583  0.03187323  0.62015483  1.0
  H  H15  1  0.03187318  0.02942599  0.31854604  1.0
  H  H16  1  0.62015595  0.02942489  0.03187376  1.0
  H  H17  1  0.31854478  0.03187422  0.02942668  1.0
  H  H18  1  0.02942500  0.62015447  0.31854534  1.0
  H  H19  1  0.03187358  0.31854630  0.62015419  1.0
  C  C20  1  0.49928403  0.00071518  0.49928334  1.0
  C  C21  1  0.00071693  0.49928231  0.00071791  1.0
  C  C22  1  0.49928383  0.49928311  0.00071740  1.0
  C  C23  1  0.00071626  0.00071708  0.49928364  1.0
  C  C24  1  0.49928359  0.00071666  0.00071686  1.0
  C  C25  1  0.00071564  0.49928302  0.49928277  1.0
  C  C26  1  0.53404752  0.04377556  0.37959287  1.0
  C  C27  1  0.37959201  0.04258278  0.53404931  1.0
  C  C28  1  0.04258333  0.37959245  0.04377719  1.0
  C  C29  1  0.04377646  0.53404667  0.04258459  1.0
  C  C30  1  0.53404739  0.37959363  0.04258414  1.0
  C  C31  1  0.37959182  0.53404985  0.04377546  1.0
  C  C32  1  0.04258445  0.04377574  0.53404816  1.0
  C  C33  1  0.04377566  0.04258468  0.37959159  1.0
  C  C34  1  0.53404723  0.04258381  0.04377628  1.0
  C  C35  1  0.37959159  0.04377512  0.04258354  1.0
  C  C36  1  0.04258370  0.53404829  0.37959138  1.0
  C  C37  1  0.04377510  0.37959161  0.53404805  1.0
  C  C38  1  0.57151912  0.92847878  0.57152138  1.0
  C  C39  1  0.92847834  0.57152053  0.92848109  1.0
  C  C40  1  0.57151926  0.57152156  0.92847982  1.0
  C  C41  1  0.92847821  0.92848097  0.57152034  1.0
  C  C42  1  0.57151943  0.92847968  0.92848017  1.0
  C  C43  1  0.92847804  0.57152124  0.57151940  1.0
  N  N44  1  0.44212550  0.10637131  0.34588672  1.0
  N  N45  1  0.34588907  0.10561658  0.44212251  1.0
  N  N46  1  0.10561745  0.34588668  0.10637163  1.0
  N  N47  1  0.10637244  0.44212358  0.10561670  1.0
  N  N48  1  0.44212541  0.34588766  0.10561629  1.0
  N  N49  1  0.34588894  0.44212309  0.10637127  1.0
  N  N50  1  0.10561848  0.10637168  0.44212356  1.0
  N  N51  1  0.10637334  0.10561758  0.34588675  1.0
  N  N52  1  0.44212529  0.10561680  0.10637101  1.0
  N  N53  1  0.34588793  0.10637204  0.10561724  1.0
  N  N54  1  0.10561770  0.44212327  0.34588660  1.0
  N  N55  1  0.10637269  0.34588634  0.44212299  1.0
  O  O56  1  0.24999920  0.25000038  0.25000010  1.0
  O  O57  1  0.75000258  0.74999998  0.74999915  1.0
  O  O58  1  0.67961188  0.90024923  0.52010802  1.0
  O  O59  1  0.52010829  0.90002817  0.67961360  1.0
  O  O60  1  0.90002676  0.52010872  0.90025120  1.0
  O  O61  1  0.90024888  0.67961301  0.90003073  1.0
  O  O62  1  0.67961288  0.52010823  0.90002746  1.0
  O  O63  1  0.52010837  0.67961468  0.90025028  1.0
  O  O64  1  0.90002674  0.90025190  0.67961342  1.0
  O  O65  1  0.90024951  0.90002860  0.52010870  1.0
  O  O66  1  0.67961221  0.90002791  0.90025242  1.0
  O  O67  1  0.52010933  0.90025018  0.90002681  1.0
  O  O68  1  0.90002735  0.67961337  0.52010741  1.0
  O  O69  1  0.90024860  0.52010873  0.67961275  1.0
