# generated using pymatgen
data_Zn3H9C25S5O27F7
_symmetry_space_group_name_H-M   'P 1'
_cell_length_a   18.39528827
_cell_length_b   18.68860693
_cell_length_c   18.74899459
_cell_angle_alpha   109.74109694
_cell_angle_beta   108.82141339
_cell_angle_gamma   108.96586755
_symmetry_Int_Tables_number   1
_chemical_formula_structural   Zn3H9C25S5O27F7
_chemical_formula_sum   'Zn6 H18 C50 S10 O54 F14'
_cell_volume   5015.00034824
_cell_formula_units_Z   2
loop_
 _symmetry_equiv_pos_site_id
 _symmetry_equiv_pos_as_xyz
  1  'x, y, z'
loop_
 _atom_site_type_symbol
 _atom_site_label
 _atom_site_symmetry_multiplicity
 _atom_site_fract_x
 _atom_site_fract_y
 _atom_site_fract_z
 _atom_site_occupancy
  Zn  Zn0  1  0.93458502  0.44209157  0.00202234  1.0
  Zn  Zn1  1  0.05934203  0.56048531  0.99294156  1.0
  Zn  Zn2  1  0.49867285  0.44081259  0.44178860  1.0
  Zn  Zn3  1  0.49140321  0.56844612  0.56424501  1.0
  Zn  Zn4  1  0.07096612  0.99912554  0.57365161  1.0
  Zn  Zn5  1  0.94401065  0.99489938  0.44317244  1.0
  H  H6  1  0.09609137  0.37529115  0.84719502  1.0
  H  H7  1  0.89962828  0.79577917  0.91387282  1.0
  H  H8  1  0.92535251  0.98790319  0.72499623  1.0
  H  H9  1  0.81507925  0.29642727  0.81304199  1.0
  H  H10  1  0.36871472  0.75443888  0.41396897  1.0
  H  H11  1  0.02631635  0.25681348  0.07821173  1.0
  H  H12  1  0.01274918  0.50492327  0.19559121  1.0
  H  H13  1  0.36698627  0.14470833  0.61813425  1.0
  H  H14  1  0.70084039  0.57107234  0.90493727  1.0
  H  H15  1  0.71450967  0.27202387  0.67050928  1.0
  H  H16  1  0.11993545  0.26384860  0.75385421  1.0
  H  H17  1  0.25970491  0.35824573  0.19870916  1.0
  H  H18  1  0.72028333  0.39372003  0.77040475  1.0
  H  H19  1  0.03925982  0.73965368  0.41430362  1.0
  H  H20  1  0.22379633  0.39976358  0.52780466  1.0
  H  H21  1  0.10382574  0.26930694  0.50684727  1.0
  H  H22  1  0.37121705  0.26309678  0.50586638  1.0
  H  H23  1  0.90333558  0.51619873  0.62184659  1.0
  C  C24  1  0.96465050  0.35830105  0.87361176  1.0
  C  C25  1  0.96453176  0.28562269  0.80733983  1.0
  C  C26  1  0.27316440  0.58339473  0.24860361  1.0
  C  C27  1  0.89391094  0.52184263  0.88629939  1.0
  C  C28  1  0.33399564  0.57468641  0.30813374  1.0
  C  C29  1  0.32954720  0.49440819  0.29269275  1.0
  C  C30  1  0.26352157  0.42133566  0.21325323  1.0
  C  C31  1  0.20251446  0.42844334  0.15289657  1.0
  C  C32  1  0.20647714  0.50937457  0.16862882  1.0
  C  C33  1  0.02812689  0.75140467  0.20984075  1.0
  C  C34  1  0.03867340  0.82170815  0.27860052  1.0
  C  C35  1  0.69259960  0.49828652  0.67663996  1.0
  C  C36  1  0.04210351  0.81833380  0.35266814  1.0
  C  C37  1  0.03386858  0.74238213  0.35581619  1.0
  C  C38  1  0.01619936  0.66960393  0.28465393  1.0
  C  C39  1  0.99319049  0.59838473  0.12871476  1.0
  C  C40  1  0.01211059  0.67212799  0.20875329  1.0
  C  C41  1  0.37509859  0.41158516  0.52241437  1.0
  C  C42  1  0.61688729  0.49229141  0.60288266  1.0
  C  C43  1  0.60687908  0.64371406  0.52220833  1.0
  C  C44  1  0.38861630  0.48512164  0.36120550  1.0
  C  C45  1  0.86653296  0.87328814  0.47496956  1.0
  C  C46  1  0.76210155  0.60064840  0.74955938  1.0
  C  C47  1  0.00822472  0.09701554  0.64352410  1.0
  C  C48  1  0.10283465  0.12382846  0.49855241  1.0
  C  C49  1  0.04510092  0.89025669  0.42249635  1.0
  C  C50  1  0.23057425  0.34226108  0.52047712  1.0
  C  C51  1  0.13772419  0.51432181  0.10237054  1.0
  C  C52  1  0.16409572  0.26979326  0.50960443  1.0
  C  C53  1  0.17341868  0.19666078  0.50286766  1.0
  C  C54  1  0.25060709  0.19653558  0.50467864  1.0
  C  C55  1  0.31436253  0.26616599  0.50963930  1.0
  C  C56  1  0.30523426  0.33979353  0.51896066  1.0
  C  C57  1  0.74026704  0.44734014  0.64490909  1.0
  C  C58  1  0.76184266  0.74817599  0.56992648  1.0
  C  C59  1  0.82426169  0.79563293  0.55389894  1.0
  C  C60  1  0.79929405  0.81037297  0.48294045  1.0
  C  C61  1  0.70846976  0.76993339  0.42630598  1.0
  C  C62  1  0.64686138  0.71891786  0.44083052  1.0
  C  C63  1  0.72825030  0.45933166  0.79551554  1.0
  C  C64  1  0.67237786  0.70818483  0.51325423  1.0
  C  C65  1  0.65410616  0.45856625  0.72523936  1.0
  C  C66  1  0.83224016  0.61513078  0.83525524  1.0
  C  C67  1  0.82468735  0.47884634  0.72911333  1.0
  C  C68  1  0.04426455  0.30777360  0.80571079  1.0
  C  C69  1  0.82153995  0.52344054  0.81635225  1.0
  C  C70  1  0.05784761  0.24553974  0.75495168  1.0
  C  C71  1  0.99244594  0.15828759  0.70559411  1.0
  C  C72  1  0.91219970  0.13433891  0.70721723  1.0
  C  C73  1  0.89637275  0.19824047  0.75487029  1.0
  S  S74  1  0.76492963  0.46342959  0.55295527  1.0
  S  S75  1  0.67453852  0.31610540  0.57878913  1.0
  S  S76  1  0.95097890  0.71406856  0.87500951  1.0
  S  S77  1  0.83437699  0.01940607  0.65476304  1.0
  S  S78  1  0.78449094  0.16625769  0.73720030  1.0
  S  S79  1  0.28166291  0.68961886  0.27777490  1.0
  S  S80  1  0.12235996  0.32901248  0.05397048  1.0
  S  S81  1  0.99773538  0.57622565  0.29972342  1.0
  S  S82  1  0.27112902  0.10691464  0.49334759  1.0
  S  S83  1  0.82464865  0.66810738  0.93969240  1.0
  O  O84  1  0.91286193  0.33818594  0.90562745  1.0
  O  O85  1  0.84013852  0.89877537  0.42077870  1.0
  O  O86  1  0.06862898  0.07880041  0.67360163  1.0
  O  O87  1  0.01717229  0.43510134  0.89717413  1.0
  O  O88  1  0.96189032  0.07396993  0.56523009  1.0
  O  O89  1  0.12798854  0.09999918  0.55324709  1.0
  O  O90  1  0.02315077  0.09429983  0.44240668  1.0
  O  O91  1  0.09340981  0.91394955  0.50186412  1.0
  O  O92  1  0.99542187  0.91959369  0.39574405  1.0
  O  O93  1  0.86729766  0.46857764  0.91124719  1.0
  O  O94  1  0.97276059  0.57023065  0.90741217  1.0
  O  O95  1  0.39512916  0.49060799  0.56992934  1.0
  O  O96  1  0.93862483  0.51980952  0.10589718  1.0
  O  O97  1  0.03017896  0.61574359  0.08604664  1.0
  O  O98  1  0.05976890  0.47040973  0.08565680  1.0
  O  O99  1  0.16235504  0.56005196  0.06873486  1.0
  O  O100  1  0.41042239  0.38820566  0.47735187  1.0
  O  O101  1  0.70111678  0.38740289  0.47124339  1.0
  O  O102  1  0.78143767  0.54868513  0.56718865  1.0
  O  O103  1  0.85415489  0.45891699  0.57439751  1.0
  O  O104  1  0.00376964  0.73952356  0.96357678  1.0
  O  O105  1  0.98181179  0.69726545  0.81375389  1.0
  O  O106  1  0.59587444  0.44132997  0.52584192  1.0
  O  O107  1  0.91997818  0.78264218  0.86972427  1.0
  O  O108  1  0.79543350  0.00710163  0.70784683  1.0
  O  O109  1  0.78467323  0.98294149  0.56327883  1.0
  O  O110  1  0.90294781  0.98259032  0.66740933  1.0
  O  O111  1  0.72619176  0.10647824  0.64658074  1.0
  O  O112  1  0.77442041  0.15107959  0.80412716  1.0
  O  O113  1  0.78028503  0.25490447  0.74933985  1.0
  O  O114  1  0.35433568  0.74022643  0.27135622  1.0
  O  O115  1  0.19500127  0.67675128  0.23416198  1.0
  O  O116  1  0.30504228  0.72785550  0.37737989  1.0
  O  O117  1  0.58134543  0.53636816  0.62566067  1.0
  O  O118  1  0.10596991  0.34861223  0.98467427  1.0
  O  O119  1  0.14740733  0.26348129  0.05294396  1.0
  O  O120  1  0.03417707  0.30276857  0.06260417  1.0
  O  O121  1  0.04604853  0.60832770  0.39099296  1.0
  O  O122  1  0.90502387  0.51559600  0.25059831  1.0
  O  O123  1  0.04865380  0.53513938  0.25931259  1.0
  O  O124  1  0.18961920  0.02730750  0.43615730  1.0
  O  O125  1  0.34572813  0.12241782  0.47898800  1.0
  O  O126  1  0.30274297  0.11785695  0.58955361  1.0
  O  O127  1  0.86690005  0.63999459  0.99447657  1.0
  O  O128  1  0.58416019  0.56550243  0.47415844  1.0
  O  O129  1  0.85367455  0.75904795  0.96700020  1.0
  O  O130  1  0.72521602  0.63200309  0.91713145  1.0
  O  O131  1  0.58694152  0.28847905  0.51883722  1.0
  O  O132  1  0.73381043  0.29378483  0.55474075  1.0
  O  O133  1  0.66752155  0.28660653  0.64795692  1.0
  O  O134  1  0.58010722  0.67102992  0.57551432  1.0
  O  O135  1  0.41342566  0.42873676  0.33680627  1.0
  O  O136  1  0.40692701  0.53239653  0.43783377  1.0
  O  O137  1  0.94642391  0.89996552  0.52496007  1.0
  F  F138  1  0.71525971  0.47580105  0.86796862  1.0
  F  F139  1  0.56032102  0.67805347  0.38250578  1.0
  F  F140  1  0.61882211  0.50399439  0.76248733  1.0
  F  F141  1  0.71942183  0.64514655  0.77067152  1.0
  F  F142  1  0.89828429  0.53709864  0.73596140  1.0
  F  F143  1  0.84019916  0.41112363  0.72871768  1.0
  F  F144  1  0.80321336  0.63657614  0.71219325  1.0
  F  F145  1  0.40007117  0.64701698  0.38282862  1.0
  F  F146  1  0.03055038  0.76298618  0.14375241  1.0
  F  F147  1  0.04602676  0.89160433  0.26986127  1.0
  F  F148  1  0.78917554  0.73875568  0.64051815  1.0
  F  F149  1  0.58469946  0.37566799  0.66930038  1.0
  F  F150  1  0.90877161  0.82774719  0.61116122  1.0
  F  F151  1  0.67756155  0.77779101  0.35557175  1.0
