# generated using pymatgen
data_AlH18C24(NO)6
_symmetry_space_group_name_H-M   'P 1'
_cell_length_a   3.95251712
_cell_length_b   29.17566457
_cell_length_c   29.17686072
_cell_angle_alpha   60.00200323
_cell_angle_beta   89.99795222
_cell_angle_gamma   89.99283490
_symmetry_Int_Tables_number   1
_chemical_formula_structural   AlH18C24(NO)6
_chemical_formula_sum   'Al2 H36 C48 N12 O12'
_cell_volume   2913.88544099
_cell_formula_units_Z   2
loop_
 _symmetry_equiv_pos_site_id
 _symmetry_equiv_pos_as_xyz
  1  'x, y, z'
loop_
 _atom_site_type_symbol
 _atom_site_label
 _atom_site_symmetry_multiplicity
 _atom_site_fract_x
 _atom_site_fract_y
 _atom_site_fract_z
 _atom_site_occupancy
  Al  Al0  1  0.99996274  0.49999012  0.00003157  1.0
  Al  Al1  1  0.00033571  0.16665622  0.66668586  1.0
  H  H2  1  0.79008290  0.35276353  0.41952554  1.0
  H  H3  1  0.21020386  0.22775373  0.41952166  1.0
  H  H4  1  0.21113182  0.43901957  0.24720023  1.0
  H  H5  1  0.78888987  0.31380710  0.24721038  1.0
  H  H6  1  0.79022782  0.22775726  0.85276072  1.0
  H  H7  1  0.21024414  0.35276568  0.72774270  1.0
  H  H8  1  0.21120098  0.31380196  0.93901482  1.0
  H  H9  1  0.78876060  0.43903243  0.81380780  1.0
  H  H10  1  0.79018870  0.91951016  0.72767782  1.0
  H  H11  1  0.21027148  0.91947760  0.85270993  1.0
  H  H12  1  0.21135190  0.74714046  0.81373394  1.0
  H  H13  1  0.78888185  0.74720644  0.93892690  1.0
  H  H14  1  0.89233576  0.28586872  0.56005938  1.0
  H  H15  1  0.00152820  0.33882584  0.49972977  1.0
  H  H16  1  0.10831386  0.15408034  0.56005771  1.0
  H  H17  1  0.99918601  0.16145975  0.49971651  1.0
  H  H18  1  0.10836493  0.51263212  0.10667156  1.0
  H  H19  1  0.99972667  0.50528546  0.16700900  1.0
  H  H20  1  0.89159753  0.38069833  0.10668418  1.0
  H  H21  1  0.00027493  0.32772072  0.16702113  1.0
  H  H22  1  0.89230960  0.15408856  0.78588429  1.0
  H  H23  1  0.00163483  0.16146668  0.83883769  1.0
  H  H24  1  0.10816275  0.28587806  0.65409961  1.0
  H  H25  1  0.99908009  0.33883906  0.66146798  1.0
  H  H26  1  0.10845032  0.38069915  0.01265064  1.0
  H  H27  1  0.99982563  0.32771685  0.00530226  1.0
  H  H28  1  0.89144148  0.51263042  0.88073501  1.0
  H  H29  1  0.00008276  0.50529374  0.82775214  1.0
  H  H30  1  0.89246655  0.06004298  0.65408153  1.0
  H  H31  1  0.00164392  0.99971525  0.66143611  1.0
  H  H32  1  0.10839502  0.06001342  0.78588682  1.0
  H  H33  1  0.99923378  0.99968143  0.83883224  1.0
  H  H34  1  0.10845586  0.60660710  0.88073363  1.0
  H  H35  1  0.99988308  0.66693233  0.82771300  1.0
  H  H36  1  0.89143885  0.60667285  0.01262839  1.0
  H  H37  1  0.00013806  0.66701211  0.00524969  1.0
  C  C38  1  0.49994869  0.58303263  0.95849782  1.0
  C  C39  1  0.49999293  0.45846373  0.08307548  1.0
  C  C40  1  0.49997587  0.45846441  0.95850334  1.0
  C  C41  1  0.50023973  0.20818317  0.58367440  1.0
  C  C42  1  0.50021633  0.20815857  0.70820459  1.0
  C  C43  1  0.50027891  0.08364828  0.70816143  1.0
  C  C44  1  0.50022419  0.23708552  0.52588011  1.0
  C  C45  1  0.67059089  0.28713101  0.49674360  1.0
  C  C46  1  0.66017458  0.31488683  0.44131112  1.0
  C  C47  1  0.50008716  0.29321350  0.41364156  1.0
  C  C48  1  0.34011879  0.24385865  0.44130748  1.0
  C  C49  1  0.33003167  0.21615796  0.49674385  1.0
  C  C50  1  0.50009708  0.32128296  0.35748290  1.0
  C  C51  1  0.50011785  0.34542821  0.30920563  1.0
  C  C52  1  0.50002151  0.37348818  0.25306321  1.0
  C  C53  1  0.34065918  0.42289593  0.22540202  1.0
  C  C54  1  0.33025557  0.45056012  0.16997389  1.0
  C  C55  1  0.50001859  0.42956835  0.14086819  1.0
  C  C56  1  0.66980478  0.37947983  0.16998260  1.0
  C  C57  1  0.65942420  0.35173331  0.22540988  1.0
  C  C58  1  0.50022772  0.23706891  0.73708796  1.0
  C  C59  1  0.67064408  0.21615813  0.78712957  1.0
  C  C60  1  0.66036398  0.24384132  0.81487196  1.0
  C  C61  1  0.50017107  0.29318353  0.79318583  1.0
  C  C62  1  0.34016845  0.31487878  0.74383723  1.0
  C  C63  1  0.33003878  0.28713886  0.71615178  1.0
  C  C64  1  0.50013232  0.32127922  0.82125673  1.0
  C  C65  1  0.50007305  0.34541551  0.84540570  1.0
  C  C66  1  0.49996854  0.37349392  0.87348648  1.0
  C  C67  1  0.34066326  0.35173074  0.92290392  1.0
  C  C68  1  0.33027688  0.37949107  0.95057429  1.0
  C  C69  1  0.50000748  0.42958119  0.92959384  1.0
  C  C70  1  0.66973692  0.45056586  0.87950602  1.0
  C  C71  1  0.65932387  0.42290785  0.85173627  1.0
  C  C72  1  0.50027293  0.02585546  0.73704702  1.0
  C  C73  1  0.67062971  0.99672729  0.71611532  1.0
  C  C74  1  0.66024970  0.94129518  0.74377367  1.0
  C  C75  1  0.50012985  0.91362187  0.79311311  1.0
  C  C76  1  0.34017376  0.94127590  0.81482227  1.0
  C  C77  1  0.33007062  0.99670563  0.78710530  1.0
  C  C78  1  0.50018651  0.85745408  0.82118147  1.0
  C  C79  1  0.50019970  0.80917923  0.84529158  1.0
  C  C80  1  0.50017285  0.75302988  0.87340190  1.0
  C  C81  1  0.34080080  0.72535973  0.85166619  1.0
  C  C82  1  0.33039042  0.66992369  0.87945989  1.0
  C  C83  1  0.50005841  0.64083029  0.92956553  1.0
  C  C84  1  0.66982077  0.66995881  0.95051966  1.0
  C  C85  1  0.65947980  0.72539105  0.92281892  1.0
  N  N86  1  0.82774294  0.31078817  0.52169040  1.0
  N  N87  1  0.17293996  0.16754448  0.52168345  1.0
  N  N88  1  0.17339796  0.49920010  0.14502796  1.0
  N  N89  1  0.82658181  0.35577884  0.14503977  1.0
  N  N90  1  0.82777705  0.16755101  0.81079919  1.0
  N  N91  1  0.17283540  0.31078906  0.66755948  1.0
  N  N92  1  0.17347982  0.35578153  0.99921407  1.0
  N  N93  1  0.82644137  0.49920256  0.85581423  1.0
  N  N94  1  0.82783943  0.02167713  0.66751929  1.0
  N  N95  1  0.17298791  0.02163747  0.81078708  1.0
  N  N96  1  0.17351962  0.64495532  0.85579057  1.0
  N  N97  1  0.82647766  0.64503424  0.99916893  1.0
  O  O98  1  0.26772370  0.44880292  0.99343693  1.0
  O  O99  1  0.26765089  0.55776180  0.94884743  1.0
  O  O100  1  0.26768571  0.49339255  0.05780475  1.0
  O  O101  1  0.73225921  0.49338631  0.94885414  1.0
  O  O102  1  0.73232325  0.44880486  0.05780446  1.0
  O  O103  1  0.73226307  0.55776758  0.99343170  1.0
  O  O104  1  0.26798670  0.10890823  0.71784111  1.0
  O  O105  1  0.26796200  0.17325389  0.60893919  1.0
  O  O106  1  0.26793161  0.21782042  0.67327575  1.0
  O  O107  1  0.73261021  0.10892041  0.67324219  1.0
  O  O108  1  0.73249518  0.17322608  0.71785854  1.0
  O  O109  1  0.73253485  0.21784142  0.60894463  1.0
