# generated using pymatgen
data_Zn4H8C38N6O29
_symmetry_space_group_name_H-M   'P 1'
_cell_length_a   10.76055451
_cell_length_b   10.86394861
_cell_length_c   19.52057588
_cell_angle_alpha   91.14475783
_cell_angle_beta   98.62015538
_cell_angle_gamma   98.25826792
_symmetry_Int_Tables_number   1
_chemical_formula_structural   Zn4H8C38N6O29
_chemical_formula_sum   'Zn4 H8 C38 N6 O29'
_cell_volume   2230.81303656
_cell_formula_units_Z   1
loop_
 _symmetry_equiv_pos_site_id
 _symmetry_equiv_pos_as_xyz
  1  'x, y, z'
loop_
 _atom_site_type_symbol
 _atom_site_label
 _atom_site_symmetry_multiplicity
 _atom_site_fract_x
 _atom_site_fract_y
 _atom_site_fract_z
 _atom_site_occupancy
  Zn  Zn0  1  0.37866426  0.55872573  0.55448100  1.0
  Zn  Zn1  1  0.59588961  0.59702038  0.45970265  1.0
  Zn  Zn2  1  0.37012408  0.36339678  0.42703967  1.0
  Zn  Zn3  1  0.58543736  0.37898685  0.56654012  1.0
  H  H4  1  0.28875887  0.11416884  0.77773462  1.0
  H  H5  1  0.76241423  0.28493644  0.35610579  1.0
  H  H6  1  0.34397147  0.80613228  0.35363598  1.0
  H  H7  1  0.49884946  0.90423651  0.28877608  1.0
  H  H8  1  0.82138169  0.83586734  0.89409352  1.0
  H  H9  1  0.57445354  0.87700050  0.73476125  1.0
  H  H10  1  0.83402809  0.56232005  0.09351927  1.0
  H  H11  1  0.52428875  0.16608728  0.96591756  1.0
  C  C12  1  0.81747369  0.48268269  0.51264660  1.0
  C  C13  1  0.57532668  0.52900339  0.98353460  1.0
  C  C14  1  0.47996575  0.53847041  0.02132653  1.0
  C  C15  1  0.14554108  0.44537977  0.46074867  1.0
  C  C16  1  0.48518565  0.52498888  0.24249707  1.0
  C  C17  1  0.00467164  0.43684207  0.45772127  1.0
  C  C18  1  0.95804638  0.48199708  0.51239264  1.0
  C  C19  1  0.48052732  0.00989210  0.47713920  1.0
  C  C20  1  0.51240765  0.94306828  0.53314797  1.0
  C  C21  1  0.50929507  0.80349628  0.52590071  1.0
  C  C22  1  0.47689247  0.14651551  0.48385323  1.0
  C  C23  1  0.54642826  0.51493238  0.90636662  1.0
  C  C24  1  0.48139429  0.51392143  0.31893763  1.0
  C  C25  1  0.48140729  0.46712708  0.68373695  1.0
  C  C26  1  0.49787599  0.48425020  0.76157391  1.0
  C  C27  1  0.45535942  0.38632943  0.80223150  1.0
  C  C28  1  0.48034732  0.40166432  0.87492094  1.0
  C  C29  1  0.37939285  0.27192088  0.76455721  1.0
  C  C30  1  0.43303741  0.74774832  0.10183976  1.0
  C  C31  1  0.92189559  0.38681664  0.39143549  1.0
  C  C32  1  0.03303280  0.53849010  0.57433198  1.0
  C  C33  1  0.44726151  0.94803112  0.40587391  1.0
  C  C34  1  0.58929385  0.61183043  0.86488521  1.0
  C  C35  1  0.54490139  0.98752944  0.60348479  1.0
  C  C36  1  0.57721815  0.33289169  0.24508136  1.0
  C  C37  1  0.42991644  0.73786776  0.25165217  1.0
  C  C38  1  0.35694323  0.55380223  0.98650141  1.0
  C  C39  1  0.67292463  0.72366200  0.90113787  1.0
  C  C40  1  0.55748286  0.32734504  0.09992315  1.0
  C  C41  1  0.59090806  0.70433340  0.74533160  1.0
  C  C42  1  0.71248988  0.53125818  0.01260573  1.0
  C  C43  1  0.44767611  0.29719649  0.92220392  1.0
  C  C44  1  0.56089160  0.59861030  0.79224883  1.0
  C  C45  1  0.52258656  0.43152680  0.13393999  1.0
  C  C46  1  0.52367206  0.42767687  0.20634211  1.0
  C  C47  1  0.45815764  0.63192010  0.20822767  1.0
  C  C48  1  0.46008297  0.63768760  0.13626399  1.0
  C  C49  1  0.48917568  0.53615058  0.09808950  1.0
  N  N50  1  0.41065580  0.83864422  0.07479861  1.0
  N  N51  1  0.08263981  0.58636276  0.62758267  1.0
  N  N52  1  0.57078064  0.00020260  0.66377877  1.0
  N  N53  1  0.63135388  0.26588448  0.28015955  1.0
  N  N54  1  0.25618008  0.57184613  0.96090086  1.0
  N  N55  1  0.58626037  0.23838792  0.07589548  1.0
  O  O56  1  0.48269255  0.47208250  0.49971478  1.0
  O  O57  1  0.55266678  0.59863787  0.35784034  1.0
  O  O58  1  0.56577733  0.41401194  0.66122958  1.0
  O  O59  1  0.41005313  0.41982634  0.33546345  1.0
  O  O60  1  0.39074987  0.51399525  0.64979156  1.0
  O  O61  1  0.35305898  0.26026662  0.70141226  1.0
  O  O62  1  0.33886451  0.18347784  0.80712237  1.0
  O  O63  1  0.94950109  0.41726534  0.33514716  1.0
  O  O64  1  0.81700745  0.31006102  0.40167566  1.0
  O  O65  1  0.50467172  0.98650196  0.35835292  1.0
  O  O66  1  0.35592788  0.85162241  0.40124433  1.0
  O  O67  1  0.42954948  0.74034774  0.55707242  1.0
  O  O68  1  0.34177300  0.72029853  0.28622997  1.0
  O  O69  1  0.50931674  0.84116360  0.25070623  1.0
  O  O70  1  0.66015335  0.76749690  0.95738765  1.0
  O  O71  1  0.76949159  0.76503828  0.86664112  1.0
  O  O72  1  0.63382123  0.69157972  0.69152048  1.0
  O  O73  1  0.55758554  0.81066836  0.76810363  1.0
  O  O74  1  0.79067854  0.50921215  0.97666923  1.0
  O  O75  1  0.74232536  0.56301784  0.08141838  1.0
  O  O76  1  0.35836289  0.28864576  0.95430765  1.0
  O  O77  1  0.53768999  0.22224032  0.92781491  1.0
  O  O78  1  0.53846169  0.20123678  0.53920730  1.0
  O  O79  1  0.76988198  0.55959824  0.47223701  1.0
  O  O80  1  0.18709187  0.36097615  0.42822601  1.0
  O  O81  1  0.76611282  0.41241859  0.55436729  1.0
  O  O82  1  0.21141887  0.53649443  0.49740132  1.0
  O  O83  1  0.58716240  0.76842333  0.48961845  1.0
  O  O84  1  0.40982942  0.19206094  0.43412652  1.0
