# generated using pymatgen
data_Al2H22C30N4O11
_symmetry_space_group_name_H-M   'P 1'
_cell_length_a   6.66488036
_cell_length_b   23.16704375
_cell_length_c   25.96673152
_cell_angle_alpha   100.94464500
_cell_angle_beta   89.99853928
_cell_angle_gamma   89.99928122
_symmetry_Int_Tables_number   1
_chemical_formula_structural   Al2H22C30N4O11
_chemical_formula_sum   'Al4 H44 C60 N8 O22'
_cell_volume   3936.48126708
_cell_formula_units_Z   2
loop_
 _symmetry_equiv_pos_site_id
 _symmetry_equiv_pos_as_xyz
  1  'x, y, z'
loop_
 _atom_site_type_symbol
 _atom_site_label
 _atom_site_symmetry_multiplicity
 _atom_site_fract_x
 _atom_site_fract_y
 _atom_site_fract_z
 _atom_site_occupancy
  Al  Al0  1  0.88662318  0.50045710  0.50044040  1.0
  Al  Al1  1  0.38662627  0.49953870  0.49955715  1.0
  Al  Al2  1  0.32529163  0.99932963  0.00027660  1.0
  Al  Al3  1  0.82529394  0.00066942  0.99972297  1.0
  H  H4  1  0.93696197  0.27051132  0.17106580  1.0
  H  H5  1  0.43660135  0.72955621  0.82891480  1.0
  H  H6  1  0.95851896  0.34603005  0.24469857  1.0
  H  H7  1  0.45829045  0.65401196  0.75530426  1.0
  H  H8  1  0.44274622  0.28292928  0.28347269  1.0
  H  H9  1  0.94274980  0.71699632  0.71657083  1.0
  H  H10  1  0.33987335  0.33302747  0.24726804  1.0
  H  H11  1  0.83963997  0.66691199  0.75275582  1.0
  H  H12  1  0.31690900  0.25812614  0.17314872  1.0
  H  H13  1  0.81662601  0.74181074  0.82687885  1.0
  H  H14  1  0.42292973  0.20816726  0.20896631  1.0
  H  H15  1  0.92295418  0.79174304  0.79108601  1.0
  H  H16  1  0.95506616  0.23426785  0.33189573  1.0
  H  H17  1  0.45526601  0.76576039  0.66810322  1.0
  H  H18  1  0.21795628  0.22532323  0.33333333  1.0
  H  H19  1  0.71817384  0.77463723  0.66666667  1.0
  H  H20  1  0.93611537  0.15876734  0.25816680  1.0
  H  H21  1  0.43653720  0.84130084  0.74180478  1.0
  H  H22  1  0.80268634  0.30571595  0.27990011  1.0
  H  H23  1  0.30261110  0.69432871  0.72006818  1.0
  H  H24  1  0.78229217  0.22988084  0.20629561  1.0
  H  H25  1  0.28221984  0.77021134  0.79363628  1.0
  H  H26  1  0.19908201  0.15009034  0.25950133  1.0
  H  H27  1  0.69955756  0.84986818  0.74050237  1.0
  H  H28  1  0.40558523  0.09893601  0.89070688  1.0
  H  H29  1  0.90558687  0.90106933  0.10929522  1.0
  H  H30  1  0.42255503  0.16635784  0.82552504  1.0
  H  H31  1  0.92256367  0.83364690  0.17447654  1.0
  H  H32  1  0.77845313  0.17744355  0.82594530  1.0
  H  H33  1  0.27846384  0.82256150  0.17405932  1.0
  H  H34  1  0.76328229  0.11027217  0.89144971  1.0
  H  H35  1  0.26328755  0.88973510  0.10855698  1.0
  H  H36  1  0.44565497  0.37197182  0.58846453  1.0
  H  H37  1  0.94564011  0.62802952  0.41153767  1.0
  H  H38  1  0.82675441  0.41273689  0.62443415  1.0
  H  H39  1  0.32675545  0.58726612  0.37556580  1.0
  H  H40  1  0.83548334  0.34762233  0.69175469  1.0
  H  H41  1  0.33548370  0.65238140  0.30824676  1.0
  H  H42  1  0.58803501  0.30522245  0.63012759  1.0
  H  H43  1  0.08802142  0.69477791  0.36987414  1.0
  H  H44  1  0.63907940  0.42650836  0.47136169  1.0
  H  H45  1  0.13907038  0.57348771  0.52863496  1.0
  H  H46  1  0.57301344  0.07495033  0.02507841  1.0
  H  H47  1  0.07302594  0.92504909  0.97492265  1.0
  C  C48  1  0.63594373  0.56529827  0.43711724  1.0
  C  C49  1  0.13599739  0.43469928  0.56288021  1.0
  C  C50  1  0.63582698  0.57663392  0.57800784  1.0
  C  C51  1  0.13589358  0.42335906  0.42199041  1.0
  C  C52  1  0.94009289  0.30308702  0.25618922  1.0
  C  C53  1  0.43996567  0.69695029  0.74379139  1.0
  C  C54  1  0.31589281  0.29011927  0.25839967  1.0
  C  C55  1  0.81578920  0.70982962  0.74162751  1.0
  C  C56  1  0.30205961  0.24050831  0.20937112  1.0
  C  C57  1  0.80197299  0.75943588  0.79066009  1.0
  C  C58  1  0.07846900  0.12250892  0.12396758  1.0
  C  C59  1  0.57850981  0.87749575  0.87602793  1.0
  C  C60  1  0.12033925  0.29256809  0.29100175  1.0
  C  C61  1  0.62032299  0.70741993  0.70900132  1.0
  C  C62  1  0.92643073  0.25311214  0.20749466  1.0
  C  C63  1  0.42629051  0.74694585  0.79247348  1.0
  C  C64  1  0.09801770  0.20819741  0.20835933  1.0
  C  C65  1  0.59803159  0.79180649  0.79163486  1.0
  C  C66  1  0.07911068  0.18250130  0.25912290  1.0
  C  C67  1  0.57943006  0.81750557  0.74086672  1.0
  C  C68  1  0.09176756  0.23240594  0.30799922  1.0
  C  C69  1  0.59197542  0.76758963  0.69199228  1.0
  C  C70  1  0.08625333  0.16136143  0.16261188  1.0
  C  C71  1  0.58630566  0.83864450  0.83738358  1.0
  C  C72  1  0.12981399  0.33896077  0.33710959  1.0
  C  C73  1  0.62979082  0.66103047  0.66289459  1.0
  C  C74  1  0.13330117  0.37772320  0.37588938  1.0
  C  C75  1  0.63327902  0.62226758  0.62411673  1.0
  C  C76  1  0.26979769  0.11643395  0.87603877  1.0
  C  C77  1  0.76980915  0.88357355  0.12396709  1.0
  C  C78  1  0.27900664  0.15356247  0.83995215  1.0
  C  C79  1  0.77901014  0.84644155  0.16004972  1.0
  C  C80  1  0.10149147  0.17600133  0.82204778  1.0
  C  C81  1  0.60150618  0.82400207  0.17795424  1.0
  C  C82  1  0.91466832  0.15965838  0.84009314  1.0
  C  C83  1  0.41467065  0.84034701  0.15990929  1.0
  C  C84  1  0.90632510  0.12260839  0.87634876  1.0
  C  C85  1  0.40633540  0.87739961  0.12365765  1.0
  C  C86  1  0.08368722  0.10118714  0.89492015  1.0
  C  C87  1  0.58368188  0.89881918  0.10508513  1.0
  C  C88  1  0.13495470  0.28566851  0.71788477  1.0
  C  C89  1  0.63495938  0.71433051  0.28211348  1.0
  C  C90  1  0.11208969  0.21765637  0.78591002  1.0
  C  C91  1  0.61209814  0.78234268  0.21408800  1.0
  C  C92  1  0.31571370  0.32817484  0.64725106  1.0
  C  C93  1  0.81570724  0.67182778  0.35275093  1.0
  C  C94  1  0.31148954  0.36585271  0.61101467  1.0
  C  C95  1  0.81147064  0.63414891  0.38898657  1.0
  C  C96  1  0.13628436  0.39567725  0.60257112  1.0
  C  C97  1  0.63628543  0.60432485  0.39742946  1.0
  C  C98  1  0.96172628  0.38862425  0.63100266  1.0
  C  C99  1  0.46171491  0.61137735  0.36899903  1.0
  C  C100  1  0.96690162  0.35263073  0.66798817  1.0
  C  C101  1  0.46690134  0.64737292  0.33201308  1.0
  C  C102  1  0.14196580  0.32189139  0.67719783  1.0
  C  C103  1  0.64195903  0.67811033  0.32280311  1.0
  C  C104  1  0.57593784  0.92283333  0.92244090  1.0
  C  C105  1  0.07587659  0.07716988  0.07755778  1.0
  C  C106  1  0.57710531  0.93646604  0.06432141  1.0
  C  C107  1  0.07706625  0.06353938  0.93568157  1.0
  N  N108  1  0.93855834  0.23308646  0.76489121  1.0
  N  N109  1  0.43856244  0.76690213  0.23509772  1.0
  N  N110  1  0.95040499  0.26729497  0.73007732  1.0
  N  N111  1  0.45040263  0.73269451  0.26991191  1.0
  N  N112  1  0.30392583  0.27739740  0.74462579  1.0
  N  N113  1  0.80394180  0.72260751  0.25537864  1.0
  N  N114  1  0.29189617  0.24234476  0.77900764  1.0
  N  N115  1  0.79191551  0.75765910  0.22099570  1.0
  O  O116  1  0.46629340  0.55823439  0.55891506  1.0
  O  O117  1  0.96628824  0.44176425  0.44108699  1.0
  O  O118  1  0.80621182  0.55174456  0.45376177  1.0
  O  O119  1  0.30619302  0.44825071  0.54623795  1.0
  O  O120  1  0.80721169  0.55879794  0.55986528  1.0
  O  O121  1  0.30719920  0.44119131  0.44012855  1.0
  O  O122  1  0.96522946  0.45043551  0.54838858  1.0
  O  O123  1  0.46525462  0.54956284  0.45160603  1.0
  O  O124  1  0.63719739  0.46413301  0.49530655  1.0
  O  O125  1  0.13717738  0.53586178  0.50469012  1.0
  O  O126  1  0.74576750  0.95128732  0.04777752  1.0
  O  O127  1  0.24578447  0.04871179  0.95222499  1.0
  O  O128  1  0.40503774  0.93988378  0.94142335  1.0
  O  O129  1  0.90504057  0.06011856  0.05857680  1.0
  O  O130  1  0.40494367  0.94977432  0.04859572  1.0
  O  O131  1  0.90496660  0.05022820  0.95140325  1.0
  O  O132  1  0.24607151  0.05848030  0.05922685  1.0
  O  O133  1  0.74607461  0.94151910  0.94076899  1.0
  O  O134  1  0.57445423  0.03570648  0.00387708  1.0
  O  O135  1  0.07447042  0.96429311  0.99612279  1.0
  O  O136  1  0.48229322  0.29625149  0.65340294  1.0
  O  O137  1  0.98227848  0.70375094  0.34660095  1.0
