# generated using pymatgen
data_ZnH7C26N6O14F5
_symmetry_space_group_name_H-M   'P 1'
_cell_length_a   17.23838132
_cell_length_b   18.36974661
_cell_length_c   19.50028380
_cell_angle_alpha   88.41023047
_cell_angle_beta   87.58874055
_cell_angle_gamma   84.27533683
_symmetry_Int_Tables_number   1
_chemical_formula_structural   ZnH7C26N6O14F5
_chemical_formula_sum   'Zn2 H14 C52 N12 O28 F10'
_cell_volume   6137.09234840
_cell_formula_units_Z   2
loop_
 _symmetry_equiv_pos_site_id
 _symmetry_equiv_pos_as_xyz
  1  'x, y, z'
loop_
 _atom_site_type_symbol
 _atom_site_label
 _atom_site_symmetry_multiplicity
 _atom_site_fract_x
 _atom_site_fract_y
 _atom_site_fract_z
 _atom_site_occupancy
  Zn  Zn0  1  0.49373928  0.42161447  0.51514050  1.0
  Zn  Zn1  1  0.49329059  0.57680873  0.49886516  1.0
  H  H2  1  0.27103694  0.60024793  0.40750112  1.0
  H  H3  1  0.75711831  0.37237513  0.50967255  1.0
  H  H4  1  0.98971773  0.59203523  0.42880635  1.0
  H  H5  1  0.00464946  0.42307053  0.43255533  1.0
  H  H6  1  0.89861757  0.37060355  0.47767479  1.0
  H  H7  1  0.13142735  0.61243023  0.37762298  1.0
  H  H8  1  0.45648634  0.37832696  0.29777864  1.0
  H  H9  1  0.59245524  0.54600681  0.72156817  1.0
  H  H10  1  0.60693509  0.31091451  0.46546446  1.0
  H  H11  1  0.61923444  0.66754828  0.50408801  1.0
  H  H12  1  0.62844857  0.17562881  0.44584756  1.0
  H  H13  1  0.64348762  0.79984202  0.50882603  1.0
  H  H14  1  0.53612619  0.05904040  0.60128254  1.0
  H  H15  1  0.53088232  0.93201615  0.38054371  1.0
  C  C16  1  0.47947768  0.52475277  0.63560648  1.0
  C  C17  1  0.50616155  0.48296113  0.37436741  1.0
  C  C18  1  0.64461338  0.48467133  0.49798431  1.0
  C  C19  1  0.34471456  0.50500895  0.49584792  1.0
  C  C20  1  0.72801373  0.48225400  0.47313336  1.0
  C  C21  1  0.25957806  0.51351154  0.48198861  1.0
  C  C22  1  0.75788622  0.54203346  0.43865935  1.0
  C  C23  1  0.20686292  0.47029489  0.51575666  1.0
  C  C24  1  0.83621110  0.54000887  0.41756735  1.0
  C  C25  1  0.12844641  0.47788135  0.49981862  1.0
  C  C26  1  0.88959084  0.47949741  0.43340617  1.0
  C  C27  1  0.09928896  0.52806696  0.44909414  1.0
  C  C28  1  0.85847040  0.41828030  0.46501673  1.0
  C  C29  1  0.15238264  0.57250268  0.41666893  1.0
  C  C30  1  0.77985736  0.41958406  0.48384401  1.0
  C  C31  1  0.23052760  0.56540933  0.43292664  1.0
  C  C32  1  0.97428663  0.47809325  0.42932501  1.0
  C  C33  1  0.01656011  0.53576726  0.43326928  1.0
  C  C34  1  0.52498688  0.54168955  0.25644357  1.0
  C  C35  1  0.40340898  0.50817808  0.74907047  1.0
  C  C36  1  0.51590364  0.54203416  0.18598092  1.0
  C  C37  1  0.40258444  0.50147336  0.82090601  1.0
  C  C38  1  0.48598451  0.48454816  0.15341871  1.0
  C  C39  1  0.46907919  0.50923897  0.85772936  1.0
  C  C40  1  0.46618484  0.42586075  0.19572570  1.0
  C  C41  1  0.53602194  0.52544319  0.81955728  1.0
  C  C42  1  0.47415297  0.42406488  0.26620546  1.0
  C  C43  1  0.53859164  0.53377282  0.74864520  1.0
  C  C44  1  0.50346887  0.48261596  0.29747050  1.0
  C  C45  1  0.47195199  0.52457297  0.71307313  1.0
  C  C46  1  0.52087282  0.43742792  0.03552386  1.0
  C  C47  1  0.42447308  0.54943156  0.97623279  1.0
  C  C48  1  0.51711125  0.44408073  0.96440565  1.0
  C  C49  1  0.42871282  0.54316269  0.04733758  1.0
  C  C50  1  0.46936726  0.50055944  0.93324648  1.0
  C  C51  1  0.47750381  0.48745175  0.07842035  1.0
  C  C52  1  0.56458133  0.27380159  0.48367050  1.0
  C  C53  1  0.57326043  0.71150894  0.49494956  1.0
  C  C54  1  0.57546749  0.19906400  0.47258481  1.0
  C  C55  1  0.58576895  0.78485488  0.49802306  1.0
  C  C56  1  0.51814680  0.15447355  0.49575825  1.0
  C  C57  1  0.52354266  0.83867786  0.48895386  1.0
  C  C58  1  0.45212979  0.18850264  0.53045394  1.0
  C  C59  1  0.45203280  0.81518118  0.47216440  1.0
  C  C60  1  0.44702742  0.26330803  0.54160410  1.0
  C  C61  1  0.44528785  0.74069604  0.46754025  1.0
  C  C62  1  0.53426976  0.03240243  0.55222979  1.0
  C  C63  1  0.53146228  0.95895114  0.42959772  1.0
  C  C64  1  0.53523930  0.95669155  0.55210887  1.0
  C  C65  1  0.52822626  0.03488740  0.42994077  1.0
  C  C66  1  0.53155514  0.91835812  0.49136654  1.0
  C  C67  1  0.52748401  0.07354580  0.49096546  1.0
  N  N68  1  0.50140833  0.30545088  0.51867121  1.0
  N  N69  1  0.50331523  0.68963822  0.48059150  1.0
  N  N70  1  0.38983960  0.14351595  0.55607671  1.0
  N  N71  1  0.38419120  0.86911269  0.46013648  1.0
  N  N72  1  0.37860124  0.29807333  0.58226494  1.0
  N  N73  1  0.36981864  0.71559131  0.44798581  1.0
  N  N74  1  0.53589264  0.91828896  0.62012083  1.0
  N  N75  1  0.52118595  0.07410754  0.36258723  1.0
  N  N76  1  0.07556130  0.43488835  0.54242955  1.0
  N  N77  1  0.86101478  0.60342202  0.37729970  1.0
  N  N78  1  0.56123525  0.60433004  0.28348891  1.0
  N  N79  1  0.33362625  0.49793803  0.71095625  1.0
  O  O80  1  0.49006594  0.46094130  0.61128770  1.0
  O  O81  1  0.51587696  0.54412831  0.39982988  1.0
  O  O82  1  0.48013395  0.58548658  0.60369359  1.0
  O  O83  1  0.49684599  0.42357995  0.40705550  1.0
  O  O84  1  0.61437419  0.42401847  0.50275087  1.0
  O  O85  1  0.37953815  0.56292664  0.48981697  1.0
  O  O86  1  0.61012260  0.54690872  0.51298137  1.0
  O  O87  1  0.37602832  0.44099396  0.50961303  1.0
  O  O88  1  0.38048516  0.13800266  0.61909205  1.0
  O  O89  1  0.35568536  0.11340846  0.51227359  1.0
  O  O90  1  0.34990084  0.86336409  0.40650200  1.0
  O  O91  1  0.36877650  0.91599176  0.50414030  1.0
  O  O92  1  0.31440654  0.28258957  0.56500002  1.0
  O  O93  1  0.39363196  0.33643825  0.62958198  1.0
  O  O94  1  0.31398456  0.72907369  0.48870511  1.0
  O  O95  1  0.37118266  0.68464661  0.39282867  1.0
  O  O96  1  0.51054853  0.85755399  0.62365710  1.0
  O  O97  1  0.56140648  0.95010139  0.66808693  1.0
  O  O98  1  0.48769704  0.13692723  0.36269101  1.0
  O  O99  1  0.54902187  0.04085955  0.31163942  1.0
  O  O100  1  0.07977591  0.36828653  0.53257229  1.0
  O  O101  1  0.03119795  0.46869626  0.58448671  1.0
  O  O102  1  0.88559720  0.59200735  0.31779352  1.0
  O  O103  1  0.85522515  0.66315453  0.40608884  1.0
  O  O104  1  0.63128118  0.59338158  0.29532112  1.0
  O  O105  1  0.51985072  0.66282193  0.28851891  1.0
  O  O106  1  0.32670339  0.53207515  0.65529105  1.0
  O  O107  1  0.28737501  0.45653324  0.73618345  1.0
  F  F108  1  0.71101238  0.60285487  0.42254326  1.0
  F  F109  1  0.22910684  0.42337577  0.56695818  1.0
  F  F110  1  0.56924752  0.38306368  0.06312913  1.0
  F  F111  1  0.37770638  0.60497314  0.94865707  1.0
  F  F112  1  0.56095488  0.39506348  0.92504761  1.0
  F  F113  1  0.38514677  0.59227337  0.08676136  1.0
  F  F114  1  0.53864693  0.59888113  0.14730610  1.0
  F  F115  1  0.33731379  0.48798518  0.85714771  1.0
  F  F116  1  0.43645244  0.36933849  0.16625854  1.0
  F  F117  1  0.60102998  0.53406884  0.85385271  1.0
