# generated using pymatgen
data_Tb2Cu3H24(C4O5)6
_symmetry_space_group_name_H-M   'P 1'
_cell_length_a   13.06474377
_cell_length_b   13.06528964
_cell_length_c   16.20519453
_cell_angle_alpha   89.99981599
_cell_angle_beta   89.99996349
_cell_angle_gamma   60.05111478
_symmetry_Int_Tables_number   1
_chemical_formula_structural   Tb2Cu3H24(C4O5)6
_chemical_formula_sum   'Tb4 Cu6 H48 C48 O60'
_cell_volume   2396.78059062
_cell_formula_units_Z   2
loop_
 _symmetry_equiv_pos_site_id
 _symmetry_equiv_pos_as_xyz
  1  'x, y, z'
loop_
 _atom_site_type_symbol
 _atom_site_label
 _atom_site_symmetry_multiplicity
 _atom_site_fract_x
 _atom_site_fract_y
 _atom_site_fract_z
 _atom_site_occupancy
  Tb  Tb0  1  0.33333333  0.33333333  0.74999569  1.0
  Tb  Tb1  1  0.66666667  0.66661671  0.75001660  1.0
  Tb  Tb2  1  0.66666667  0.66662049  0.25000471  1.0
  Tb  Tb3  1  0.33333333  0.33333333  0.25000169  1.0
  Cu  Cu4  1  0.99999859  0.50000002  0.50000618  1.0
  Cu  Cu5  1  0.50001331  0.49999220  0.50000646  1.0
  Cu  Cu6  1  0.49998914  0.00000065  0.49999125  1.0
  Cu  Cu7  1  0.49999361  0.00000349  0.00000034  1.0
  Cu  Cu8  1  0.49999690  0.50000161  0.00000796  1.0
  Cu  Cu9  1  0.00000135  0.50001478  0.99999377  1.0
  H  H10  1  0.19095122  0.65155323  0.64358959  1.0
  H  H11  1  0.06521798  0.68985803  0.70835801  1.0
  H  H12  1  0.65141301  0.15762813  0.64358879  1.0
  H  H13  1  0.68994292  0.24497467  0.70829918  1.0
  H  H14  1  0.15759137  0.19084356  0.64359438  1.0
  H  H15  1  0.24487518  0.06512792  0.70835637  1.0
  H  H16  1  0.80901547  0.34849612  0.64360453  1.0
  H  H17  1  0.93477585  0.31014189  0.70835506  1.0
  H  H18  1  0.34859811  0.84234445  0.64359483  1.0
  H  H19  1  0.31007515  0.75499267  0.70830714  1.0
  H  H20  1  0.84240006  0.80909853  0.64358740  1.0
  H  H21  1  0.75515405  0.93486712  0.70831598  1.0
  H  H22  1  0.34843526  0.80905066  0.85641402  1.0
  H  H23  1  0.31013510  0.93477553  0.79164704  1.0
  H  H24  1  0.84235075  0.34855707  0.85641981  1.0
  H  H25  1  0.75496821  0.31010151  0.79168326  1.0
  H  H26  1  0.80916252  0.84242385  0.85641055  1.0
  H  H27  1  0.93486689  0.75513391  0.79163624  1.0
  H  H28  1  0.65154215  0.19095199  0.85641213  1.0
  H  H29  1  0.68985807  0.06521931  0.79165028  1.0
  H  H30  1  0.15762671  0.65139133  0.85641498  1.0
  H  H31  1  0.24497874  0.68993451  0.79171525  1.0
  H  H32  1  0.19087295  0.15761512  0.85641314  1.0
  H  H33  1  0.06512888  0.24486184  0.79165861  1.0
  H  H34  1  0.80908228  0.34842832  0.35640032  1.0
  H  H35  1  0.93480842  0.31015100  0.29163066  1.0
  H  H36  1  0.34859010  0.84235748  0.35641593  1.0
  H  H37  1  0.31009877  0.75498477  0.29169813  1.0
  H  H38  1  0.84239541  0.80919519  0.35640170  1.0
  H  H39  1  0.75510418  0.93489383  0.29162984  1.0
  H  H40  1  0.19092382  0.65155623  0.35640451  1.0
  H  H41  1  0.06519577  0.68984242  0.29163731  1.0
  H  H42  1  0.65143700  0.15765047  0.35640989  1.0
  H  H43  1  0.68989753  0.24503167  0.29167721  1.0
  H  H44  1  0.15759523  0.19079717  0.35638647  1.0
  H  H45  1  0.24489289  0.06510306  0.29160790  1.0
  H  H46  1  0.65151309  0.19099292  0.14359440  1.0
  H  H47  1  0.68986437  0.06523227  0.20833485  1.0
  H  H48  1  0.15763947  0.65139370  0.14358491  1.0
  H  H49  1  0.24498166  0.68992253  0.20830726  1.0
  H  H50  1  0.19090252  0.15758747  0.14356641  1.0
  H  H51  1  0.06513581  0.24483747  0.20830307  1.0
  H  H52  1  0.34849446  0.80899939  0.14359629  1.0
  H  H53  1  0.31014663  0.93475565  0.20834148  1.0
  H  H54  1  0.84236779  0.34860217  0.14358295  1.0
  H  H55  1  0.75502026  0.31006971  0.20829502  1.0
  H  H56  1  0.80911809  0.84240323  0.14358171  1.0
  H  H57  1  0.93486724  0.75516457  0.20833192  1.0
  C  C58  1  0.12163584  0.53320927  0.63462087  1.0
  C  C59  1  0.14821276  0.61617640  0.68440548  1.0
  C  C60  1  0.53329275  0.34511904  0.63459747  1.0
  C  C61  1  0.61615649  0.23568815  0.68436242  1.0
  C  C62  1  0.34512718  0.12166573  0.63460627  1.0
  C  C63  1  0.23563392  0.14816007  0.68438722  1.0
  C  C64  1  0.87836560  0.46681374  0.63463702  1.0
  C  C65  1  0.85178442  0.38384457  0.68441616  1.0
  C  C66  1  0.46673753  0.65485634  0.63460982  1.0
  C  C67  1  0.38385753  0.76428771  0.68437036  1.0
  C  C68  1  0.65485114  0.87833653  0.63461028  1.0
  C  C69  1  0.76435760  0.85183593  0.68437889  1.0
  C  C70  1  0.46678473  0.87836819  0.86538915  1.0
  C  C71  1  0.38382143  0.85178621  0.81560355  1.0
  C  C72  1  0.65486952  0.46672215  0.86541441  1.0
  C  C73  1  0.76429162  0.38385422  0.81564173  1.0
  C  C74  1  0.87833799  0.65489397  0.86539575  1.0
  C  C75  1  0.85183457  0.76438851  0.81561180  1.0
  C  C76  1  0.53318652  0.12164071  0.86537570  1.0
  C  C77  1  0.61616691  0.14821156  0.81559754  1.0
  C  C78  1  0.34512112  0.53327723  0.86540967  1.0
  C  C79  1  0.23569018  0.61614436  0.81564391  1.0
  C  C80  1  0.12165375  0.34514988  0.86538082  1.0
  C  C81  1  0.14815649  0.23564753  0.81561398  1.0
  C  C82  1  0.87837211  0.46679240  0.36538138  1.0
  C  C83  1  0.85181158  0.38382015  0.31558875  1.0
  C  C84  1  0.46674413  0.65486790  0.36541095  1.0
  C  C85  1  0.38386881  0.76429598  0.31564168  1.0
  C  C86  1  0.65486745  0.87834556  0.36538611  1.0
  C  C87  1  0.76435549  0.85186449  0.31560516  1.0
  C  C88  1  0.12163128  0.53319313  0.36538128  1.0
  C  C89  1  0.14819138  0.61616913  0.31559288  1.0
  C  C90  1  0.53326423  0.34513192  0.36540354  1.0
  C  C91  1  0.61614050  0.23570939  0.31563312  1.0
  C  C92  1  0.34512232  0.12164869  0.36537531  1.0
  C  C93  1  0.23563671  0.14813088  0.31558942  1.0
  C  C94  1  0.53318574  0.12164545  0.13461866  1.0
  C  C95  1  0.61615737  0.14822310  0.18439932  1.0
  C  C96  1  0.34513442  0.53327236  0.13460635  1.0
  C  C97  1  0.23569604  0.61613919  0.18436484  1.0
  C  C98  1  0.12166432  0.34512630  0.13459416  1.0
  C  C99  1  0.14817058  0.23562469  0.18436269  1.0
  C  C100  1  0.46682420  0.87834499  0.13462285  1.0
  C  C101  1  0.38385104  0.85176445  0.18440286  1.0
  C  C102  1  0.65487618  0.46672431  0.13459998  1.0
  C  C103  1  0.76431137  0.38385634  0.18436020  1.0
  C  C104  1  0.87835174  0.65486866  0.13461403  1.0
  C  C105  1  0.85184170  0.76437181  0.18438272  1.0
  O  O106  1  0.18083224  0.42400033  0.64888614  1.0
  O  O107  1  0.04016616  0.58536273  0.58129808  1.0
  O  O108  1  0.42409689  0.39508865  0.64895908  1.0
  O  O109  1  0.58543804  0.37451714  0.58125368  1.0
  O  O110  1  0.39522909  0.18089157  0.64891377  1.0
  O  O111  1  0.37442118  0.04013313  0.58131179  1.0
  O  O112  1  0.81918230  0.57602038  0.64891754  1.0
  O  O113  1  0.95982096  0.41466025  0.58130574  1.0
  O  O114  1  0.57592965  0.60489043  0.64898220  1.0
  O  O115  1  0.41459693  0.62545845  0.58126066  1.0
  O  O116  1  0.60474989  0.81911178  0.64892631  1.0
  O  O117  1  0.62555893  0.95986753  0.58131485  1.0
  O  O118  1  0.57599583  0.81917656  0.85112806  1.0
  O  O119  1  0.41462532  0.95984092  0.91870775  1.0
  O  O120  1  0.60491073  0.57591463  0.85105866  1.0
  O  O121  1  0.62546796  0.41457666  0.91875737  1.0
  O  O122  1  0.81910149  0.60480056  0.85109549  1.0
  O  O123  1  0.95988100  0.62559161  0.91868167  1.0
  O  O124  1  0.42397780  0.18083129  0.85110395  1.0
  O  O125  1  0.58534099  0.04017578  0.91870129  1.0
  O  O126  1  0.39509160  0.42408648  0.85104131  1.0
  O  O127  1  0.37451629  0.58541981  0.91876029  1.0
  O  O128  1  0.18089215  0.39523867  0.85107050  1.0
  O  O129  1  0.04011064  0.37445653  0.91866752  1.0
  O  O130  1  0.81917874  0.57600140  0.35111117  1.0
  O  O131  1  0.95982630  0.41464231  0.41871405  1.0
  O  O132  1  0.57593560  0.60490090  0.35104564  1.0
  O  O133  1  0.41459552  0.62547331  0.41875844  1.0
  O  O134  1  0.60478318  0.81909860  0.35108416  1.0
  O  O135  1  0.62555845  0.95988508  0.41867441  1.0
  O  O136  1  0.18082630  0.42398753  0.35111125  1.0
  O  O137  1  0.04017091  0.58534744  0.41871009  1.0
  O  O138  1  0.42407225  0.39509606  0.35104226  1.0
  O  O139  1  0.58541437  0.37452460  0.41875024  1.0
  O  O140  1  0.39521198  0.18089019  0.35107656  1.0
  O  O141  1  0.37442452  0.04011160  0.41866518  1.0
  O  O142  1  0.42397945  0.18082913  0.14888591  1.0
  O  O143  1  0.58534868  0.04017632  0.08129265  1.0
  O  O144  1  0.39510855  0.42407831  0.14897630  1.0
  O  O145  1  0.37453003  0.58541600  0.08126031  1.0
  O  O146  1  0.18089445  0.39522319  0.14891108  1.0
  O  O147  1  0.04012683  0.37443586  0.08130330  1.0
  O  O148  1  0.57602966  0.81916683  0.14889151  1.0
  O  O149  1  0.41465759  0.95981422  0.08129911  1.0
  O  O150  1  0.60490377  0.57592036  0.14896958  1.0
  O  O151  1  0.62547617  0.41458522  0.08125431  1.0
  O  O152  1  0.81912074  0.60477285  0.14892619  1.0
  O  O153  1  0.95989153  0.62556552  0.08132610  1.0
  O  O154  1  0.22510466  0.54977881  0.75000377  1.0
  O  O155  1  0.54977936  0.22509489  0.74999279  1.0
  O  O156  1  0.22511138  0.22513349  0.74999298  1.0
  O  O157  1  0.77491869  0.45023363  0.75002828  1.0
  O  O158  1  0.45022315  0.77489683  0.75000469  1.0
  O  O159  1  0.77484037  0.77492336  0.75001746  1.0
  O  O160  1  0.77491072  0.45022030  0.24999478  1.0
  O  O161  1  0.45024255  0.77490341  0.25001625  1.0
  O  O162  1  0.77490054  0.77487090  0.25000680  1.0
  O  O163  1  0.22508867  0.54977071  0.24999619  1.0
  O  O164  1  0.54976621  0.22507971  0.25001545  1.0
  O  O165  1  0.22509408  0.22513248  0.24999590  1.0
