# generated using pymatgen
data_Zn4H15C24N3O13
_symmetry_space_group_name_H-M   'P 1'
_cell_length_a   25.21094323
_cell_length_b   25.21091451
_cell_length_c   25.21091702
_cell_angle_alpha   89.99991071
_cell_angle_beta   89.99994274
_cell_angle_gamma   89.99987276
_symmetry_Int_Tables_number   1
_chemical_formula_structural   Zn4H15C24N3O13
_chemical_formula_sum   'Zn32 H120 C192 N24 O104'
_cell_volume   16023.83030797
_cell_formula_units_Z   8
loop_
 _symmetry_equiv_pos_site_id
 _symmetry_equiv_pos_as_xyz
  1  'x, y, z'
loop_
 _atom_site_type_symbol
 _atom_site_label
 _atom_site_symmetry_multiplicity
 _atom_site_fract_x
 _atom_site_fract_y
 _atom_site_fract_z
 _atom_site_occupancy
  Zn  Zn0  1  0.84007752  0.15992285  0.15992155  1.0
  Zn  Zn1  1  0.15992243  0.34007813  0.65992181  1.0
  Zn  Zn2  1  0.34007793  0.84007789  0.34007814  1.0
  Zn  Zn3  1  0.65992272  0.65992223  0.84007778  1.0
  Zn  Zn4  1  0.15992298  0.84007730  0.84007670  1.0
  Zn  Zn5  1  0.84007807  0.65992282  0.34007684  1.0
  Zn  Zn6  1  0.65992138  0.15992147  0.65992249  1.0
  Zn  Zn7  1  0.34007778  0.34007871  0.15992245  1.0
  Zn  Zn8  1  0.73762475  0.16283514  0.23557057  1.0
  Zn  Zn9  1  0.26237672  0.33716612  0.73557073  1.0
  Zn  Zn10  1  0.23762365  0.83716464  0.26442922  1.0
  Zn  Zn11  1  0.76237628  0.66283520  0.76442915  1.0
  Zn  Zn12  1  0.83716476  0.23557017  0.26237473  1.0
  Zn  Zn13  1  0.66283491  0.73557129  0.73762409  1.0
  Zn  Zn14  1  0.16283430  0.26442906  0.76237629  1.0
  Zn  Zn15  1  0.33716544  0.76442939  0.23762378  1.0
  Zn  Zn16  1  0.76443010  0.26237618  0.16283493  1.0
  Zn  Zn17  1  0.26442876  0.73762314  0.33716603  1.0
  Zn  Zn18  1  0.73557110  0.76237659  0.83716623  1.0
  Zn  Zn19  1  0.23557104  0.23762400  0.66283448  1.0
  Zn  Zn20  1  0.26237615  0.83716541  0.76442847  1.0
  Zn  Zn21  1  0.73762418  0.66283483  0.26442950  1.0
  Zn  Zn22  1  0.76237566  0.16283432  0.73557101  1.0
  Zn  Zn23  1  0.23762383  0.33716574  0.23557108  1.0
  Zn  Zn24  1  0.16283494  0.76443038  0.73762273  1.0
  Zn  Zn25  1  0.33716599  0.26442926  0.26237614  1.0
  Zn  Zn26  1  0.83716462  0.73557069  0.23762355  1.0
  Zn  Zn27  1  0.66283506  0.23557037  0.76237606  1.0
  Zn  Zn28  1  0.23557080  0.73762437  0.83716491  1.0
  Zn  Zn29  1  0.73557056  0.26237622  0.66283500  1.0
  Zn  Zn30  1  0.26442900  0.23762357  0.16283440  1.0
  Zn  Zn31  1  0.76442906  0.76237496  0.33716457  1.0
  H  H32  1  0.88661723  0.85672256  0.20197459  1.0
  H  H33  1  0.11338276  0.64327738  0.70197441  1.0
  H  H34  1  0.38661685  0.14327689  0.29802545  1.0
  H  H35  1  0.61338376  0.35672269  0.79802523  1.0
  H  H36  1  0.14327771  0.20197489  0.11338290  1.0
  H  H37  1  0.35672257  0.70197535  0.88661687  1.0
  H  H38  1  0.85672230  0.29802536  0.61338292  1.0
  H  H39  1  0.64327724  0.79802549  0.38661739  1.0
  H  H40  1  0.79802485  0.11338299  0.85672172  1.0
  H  H41  1  0.29802535  0.88661667  0.64327693  1.0
  H  H42  1  0.70197390  0.61338257  0.14327768  1.0
  H  H43  1  0.20197451  0.38661689  0.35672294  1.0
  H  H44  1  0.11338248  0.14327759  0.79802565  1.0
  H  H45  1  0.88661695  0.35672277  0.29802543  1.0
  H  H46  1  0.61338246  0.85672247  0.70197439  1.0
  H  H47  1  0.38661674  0.64327826  0.20197540  1.0
  H  H48  1  0.85672279  0.79802526  0.88661694  1.0
  H  H49  1  0.64327754  0.29802599  0.11338297  1.0
  H  H50  1  0.14327741  0.70197439  0.38661692  1.0
  H  H51  1  0.35672247  0.20197506  0.61338325  1.0
  H  H52  1  0.20197406  0.88661756  0.14327732  1.0
  H  H53  1  0.70197435  0.11338309  0.35672290  1.0
  H  H54  1  0.29802541  0.38661679  0.85672256  1.0
  H  H55  1  0.79802559  0.61338326  0.64327729  1.0
  H  H56  1  0.90986384  0.91386686  0.16915145  1.0
  H  H57  1  0.09013540  0.58613313  0.66915138  1.0
  H  H58  1  0.40986394  0.08613293  0.33084896  1.0
  H  H59  1  0.59013782  0.41386659  0.83084828  1.0
  H  H60  1  0.08613313  0.16915149  0.09013628  1.0
  H  H61  1  0.41386683  0.66915179  0.90986314  1.0
  H  H62  1  0.91386690  0.33084880  0.59013580  1.0
  H  H63  1  0.58613296  0.83084862  0.40986446  1.0
  H  H64  1  0.83084790  0.09013663  0.91386681  1.0
  H  H65  1  0.33084880  0.90986415  0.58613301  1.0
  H  H66  1  0.66915131  0.59013597  0.08613342  1.0
  H  H67  1  0.16915101  0.40986395  0.41386723  1.0
  H  H68  1  0.09013548  0.08613330  0.83084918  1.0
  H  H69  1  0.90986391  0.41386702  0.33084885  1.0
  H  H70  1  0.59013616  0.91386682  0.66915167  1.0
  H  H71  1  0.40986307  0.58613317  0.16915235  1.0
  H  H72  1  0.91386619  0.83084866  0.90986436  1.0
  H  H73  1  0.58613288  0.33084836  0.09013630  1.0
  H  H74  1  0.08613320  0.66915096  0.40986325  1.0
  H  H75  1  0.41386675  0.16915233  0.59013736  1.0
  H  H76  1  0.16915141  0.90986432  0.08613342  1.0
  H  H77  1  0.66915130  0.09013561  0.41386763  1.0
  H  H78  1  0.33084840  0.40986418  0.91386681  1.0
  H  H79  1  0.83084870  0.59013620  0.58613300  1.0
  H  H80  1  0.86291826  0.99542920  0.17042467  1.0
  H  H81  1  0.13708256  0.50457039  0.67042428  1.0
  H  H82  1  0.36291736  0.00457030  0.32957619  1.0
  H  H83  1  0.63708362  0.49542883  0.82957652  1.0
  H  H84  1  0.00457090  0.17042441  0.13708225  1.0
  H  H85  1  0.49542905  0.67042420  0.86291717  1.0
  H  H86  1  0.99542947  0.32957581  0.63708248  1.0
  H  H87  1  0.50457039  0.82957589  0.36291738  1.0
  H  H88  1  0.82957534  0.13708290  0.99542906  1.0
  H  H89  1  0.32957683  0.86291708  0.50456996  1.0
  H  H90  1  0.67042416  0.63708237  0.00457070  1.0
  H  H91  1  0.17042309  0.36291716  0.49542995  1.0
  H  H92  1  0.13708185  0.00457055  0.82957636  1.0
  H  H93  1  0.86291675  0.49542936  0.32957595  1.0
  H  H94  1  0.63708275  0.99542906  0.67042405  1.0
  H  H95  1  0.36291688  0.50457132  0.17042371  1.0
  H  H96  1  0.99543000  0.82957614  0.86291719  1.0
  H  H97  1  0.50457026  0.32957635  0.13708227  1.0
  H  H98  1  0.00457023  0.67042355  0.36291656  1.0
  H  H99  1  0.49542892  0.17042427  0.63708325  1.0
  H  H100  1  0.17042397  0.86291725  0.00457117  1.0
  H  H101  1  0.67042367  0.13708227  0.49542987  1.0
  H  H102  1  0.32957555  0.36291699  0.99542953  1.0
  H  H103  1  0.82957583  0.63708180  0.50456989  1.0
  H  H104  1  0.72027054  0.00746751  0.26287276  1.0
  H  H105  1  0.27973050  0.49253291  0.76287385  1.0
  H  H106  1  0.22027032  0.99253191  0.23712625  1.0
  H  H107  1  0.77973004  0.50746837  0.73712641  1.0
  H  H108  1  0.99253218  0.26287363  0.27972941  1.0
  H  H109  1  0.50746784  0.76287275  0.72026976  1.0
  H  H110  1  0.00746726  0.23712636  0.77972958  1.0
  H  H111  1  0.49253214  0.73712637  0.22027013  1.0
  H  H112  1  0.73712733  0.27973032  0.00746652  1.0
  H  H113  1  0.23712746  0.72027065  0.49253248  1.0
  H  H114  1  0.76287383  0.77972963  0.99253263  1.0
  H  H115  1  0.26287357  0.22027010  0.50746845  1.0
  H  H116  1  0.27972956  0.99253265  0.73712668  1.0
  H  H117  1  0.72026960  0.50746764  0.23712638  1.0
  H  H118  1  0.77972979  0.00746784  0.76287438  1.0
  H  H119  1  0.22026967  0.49253258  0.26287263  1.0
  H  H120  1  0.00746872  0.73712692  0.72027043  1.0
  H  H121  1  0.49253267  0.23712661  0.27973008  1.0
  H  H122  1  0.99253205  0.76287419  0.22027025  1.0
  H  H123  1  0.50746598  0.26287259  0.77973050  1.0
  H  H124  1  0.26287357  0.72027023  0.99253292  1.0
  H  H125  1  0.76287304  0.27973030  0.50746815  1.0
  H  H126  1  0.23712627  0.22026973  0.00746801  1.0
  H  H127  1  0.73712733  0.77972966  0.49253218  1.0
  H  H128  1  0.73192041  0.91301058  0.29182102  1.0
  H  H129  1  0.26808028  0.58699080  0.79182117  1.0
  H  H130  1  0.23191985  0.08698960  0.20817918  1.0
  H  H131  1  0.76808085  0.41301051  0.70817911  1.0
  H  H132  1  0.08698967  0.29182045  0.26808012  1.0
  H  H133  1  0.41301120  0.79182023  0.73191950  1.0
  H  H134  1  0.91300938  0.20817957  0.76808063  1.0
  H  H135  1  0.58699035  0.70817967  0.23191982  1.0
  H  H136  1  0.70817994  0.26808033  0.91300957  1.0
  H  H137  1  0.20817965  0.73191953  0.58698958  1.0
  H  H138  1  0.79182086  0.76807980  0.08699079  1.0
  H  H139  1  0.29182096  0.23191986  0.41301054  1.0
  H  H140  1  0.26808048  0.08699036  0.70817962  1.0
  H  H141  1  0.73191903  0.41300975  0.20817986  1.0
  H  H142  1  0.76807986  0.91300976  0.79182145  1.0
  H  H143  1  0.23191925  0.58698925  0.29181993  1.0
  H  H144  1  0.91301083  0.70818050  0.73192011  1.0
  H  H145  1  0.58698970  0.20817913  0.26807994  1.0
  H  H146  1  0.08698953  0.79182098  0.23192040  1.0
  H  H147  1  0.41300935  0.29181969  0.76808081  1.0
  H  H148  1  0.29182096  0.73192022  0.08699067  1.0
  H  H149  1  0.79182045  0.26808023  0.41301026  1.0
  H  H150  1  0.20817965  0.23191916  0.91301024  1.0
  H  H151  1  0.70817915  0.76807950  0.58698891  1.0
  C  C152  1  0.80267584  0.90027994  0.24668380  1.0
  C  C153  1  0.19732372  0.59972032  0.74668440  1.0
  C  C154  1  0.30267679  0.09971929  0.25331593  1.0
  C  C155  1  0.69732387  0.40027995  0.75331675  1.0
  C  C156  1  0.09971955  0.24668448  0.19732350  1.0
  C  C157  1  0.40028063  0.74668378  0.80267619  1.0
  C  C158  1  0.90027998  0.25331604  0.69732395  1.0
  C  C159  1  0.59972045  0.75331640  0.30267643  1.0
  C  C160  1  0.75331638  0.19732403  0.90027980  1.0
  C  C161  1  0.25331711  0.80267652  0.59971891  1.0
  C  C162  1  0.74668458  0.69732239  0.09972027  1.0
  C  C163  1  0.24668334  0.30267657  0.40028030  1.0
  C  C164  1  0.19732348  0.09972021  0.75331644  1.0
  C  C165  1  0.80267599  0.40027904  0.25331584  1.0
  C  C166  1  0.69732332  0.90027888  0.74668470  1.0
  C  C167  1  0.30267584  0.59971980  0.24668389  1.0
  C  C168  1  0.90028095  0.75331805  0.80267673  1.0
  C  C169  1  0.59971948  0.25331558  0.19732365  1.0
  C  C170  1  0.09971973  0.74668411  0.30267628  1.0
  C  C171  1  0.40027965  0.24668336  0.69732421  1.0
  C  C172  1  0.24668492  0.80267692  0.09972044  1.0
  C  C173  1  0.74668379  0.19732363  0.40028014  1.0
  C  C174  1  0.25331672  0.30267538  0.90027996  1.0
  C  C175  1  0.75331557  0.69732279  0.59971953  1.0
  C  C176  1  0.84018295  0.92279280  0.21062081  1.0
  C  C177  1  0.15981664  0.57720594  0.71062188  1.0
  C  C178  1  0.34018352  0.07720556  0.28937768  1.0
  C  C179  1  0.65981869  0.42279402  0.78937771  1.0
  C  C180  1  0.07720597  0.21062238  0.15981598  1.0
  C  C181  1  0.42279389  0.71062276  0.84018258  1.0
  C  C182  1  0.92279399  0.28937781  0.65981635  1.0
  C  C183  1  0.57720557  0.78937815  0.34018357  1.0
  C  C184  1  0.78937733  0.15981760  0.92279307  1.0
  C  C185  1  0.28937919  0.84018327  0.57720560  1.0
  C  C186  1  0.71062211  0.65981607  0.07720587  1.0
  C  C187  1  0.21062157  0.34018337  0.42279435  1.0
  C  C188  1  0.15981636  0.07720616  0.78937863  1.0
  C  C189  1  0.84018307  0.42279382  0.28937836  1.0
  C  C190  1  0.65981817  0.92279340  0.71062215  1.0
  C  C191  1  0.34018142  0.57720652  0.21062292  1.0
  C  C192  1  0.92279493  0.78937857  0.84018306  1.0
  C  C193  1  0.57720621  0.28937858  0.15981726  1.0
  C  C194  1  0.07720572  0.71062195  0.34018349  1.0
  C  C195  1  0.42279335  0.21062160  0.65981865  1.0
  C  C196  1  0.21062158  0.84018414  0.07720598  1.0
  C  C197  1  0.71062170  0.15981609  0.42279464  1.0
  C  C198  1  0.28937839  0.34018289  0.92279437  1.0
  C  C199  1  0.78937774  0.65981639  0.57720589  1.0
  C  C200  1  0.83396655  0.97670518  0.19656179  1.0
  C  C201  1  0.16603384  0.52329596  0.69656134  1.0
  C  C202  1  0.33396683  0.02329438  0.30343870  1.0
  C  C203  1  0.66603378  0.47670518  0.80343943  1.0
  C  C204  1  0.02329447  0.19656225  0.16603317  1.0
  C  C205  1  0.47670700  0.69656094  0.83396740  1.0
  C  C206  1  0.97670468  0.30343832  0.66603306  1.0
  C  C207  1  0.52329524  0.80343880  0.33396684  1.0
  C  C208  1  0.80343905  0.16603270  0.97670621  1.0
  C  C209  1  0.30343979  0.83396575  0.52329443  1.0
  C  C210  1  0.69656157  0.66603328  0.02329510  1.0
  C  C211  1  0.19656059  0.33396619  0.47670553  1.0
  C  C212  1  0.16603316  0.02329497  0.80343924  1.0
  C  C213  1  0.83396586  0.47670459  0.30343889  1.0
  C  C214  1  0.66603367  0.97670418  0.69656153  1.0
  C  C215  1  0.33396712  0.52329378  0.19656001  1.0
  C  C216  1  0.97670563  0.80343989  0.83396667  1.0
  C  C217  1  0.52329508  0.30343921  0.16603403  1.0
  C  C218  1  0.02329502  0.69656104  0.33396598  1.0
  C  C219  1  0.47670566  0.19655977  0.66603340  1.0
  C  C220  1  0.19656105  0.83396626  0.02329561  1.0
  C  C221  1  0.69656111  0.16603321  0.47670501  1.0
  C  C222  1  0.30343853  0.33396608  0.97670474  1.0
  C  C223  1  0.80343832  0.66603317  0.52329431  1.0
  C  C224  1  0.79169550  0.00662180  0.21529572  1.0
  C  C225  1  0.20830559  0.49337949  0.71529648  1.0
  C  C226  1  0.29169443  0.99337905  0.28470283  1.0
  C  C227  1  0.70830627  0.50662116  0.78470346  1.0
  C  C228  1  0.99337872  0.21529707  0.20830483  1.0
  C  C229  1  0.50662060  0.71529647  0.79169322  1.0
  C  C230  1  0.00662079  0.28470304  0.70830493  1.0
  C  C231  1  0.49337851  0.78470333  0.29169470  1.0
  C  C232  1  0.78470437  0.20830684  0.00662009  1.0
  C  C233  1  0.28470434  0.79169482  0.49337886  1.0
  C  C234  1  0.71529775  0.70830507  0.99337877  1.0
  C  C235  1  0.21529614  0.29169358  0.50662196  1.0
  C  C236  1  0.20830500  0.99337835  0.78470372  1.0
  C  C237  1  0.79169412  0.50662146  0.28470375  1.0
  C  C238  1  0.70830567  0.00662150  0.71529780  1.0
  C  C239  1  0.29169264  0.49337979  0.21529519  1.0
  C  C240  1  0.00662138  0.78470427  0.79169421  1.0
  C  C241  1  0.49337911  0.28470447  0.20830662  1.0
  C  C242  1  0.99337892  0.71529672  0.29169451  1.0
  C  C243  1  0.50661961  0.21529524  0.70830791  1.0
  C  C244  1  0.21529732  0.79169450  0.99337895  1.0
  C  C245  1  0.71529577  0.20830613  0.50662177  1.0
  C  C246  1  0.28470315  0.29169429  0.00662147  1.0
  C  C247  1  0.78470357  0.70830458  0.49337788  1.0
  C  C248  1  0.75355660  0.98372163  0.24914023  1.0
  C  C249  1  0.24644335  0.51627903  0.74914131  1.0
  C  C250  1  0.25355773  0.01627811  0.25085795  1.0
  C  C251  1  0.74644332  0.48372075  0.75085939  1.0
  C  C252  1  0.01627837  0.24914141  0.24644274  1.0
  C  C253  1  0.48372140  0.74914020  0.75355695  1.0
  C  C254  1  0.98372150  0.25085825  0.74644311  1.0
  C  C255  1  0.51627894  0.75085846  0.25355727  1.0
  C  C256  1  0.75086060  0.24644396  0.98372020  1.0
  C  C257  1  0.25085914  0.75355659  0.51627811  1.0
  C  C258  1  0.74914223  0.74644205  0.01627900  1.0
  C  C259  1  0.24914102  0.25355691  0.48372157  1.0
  C  C260  1  0.24644272  0.01627892  0.75085921  1.0
  C  C261  1  0.75355636  0.48372073  0.25085853  1.0
  C  C262  1  0.74644237  0.98372125  0.74914228  1.0
  C  C263  1  0.25355639  0.51627861  0.24913966  1.0
  C  C264  1  0.98372213  0.75085954  0.75355710  1.0
  C  C265  1  0.51627989  0.25086034  0.24644328  1.0
  C  C266  1  0.01627861  0.74914191  0.25355713  1.0
  C  C267  1  0.48371998  0.24913891  0.74644376  1.0
  C  C268  1  0.24914189  0.75355738  0.01628004  1.0
  C  C269  1  0.74913937  0.24644316  0.48372054  1.0
  C  C270  1  0.25085867  0.25355652  0.98372124  1.0
  C  C271  1  0.75085829  0.74644285  0.51627787  1.0
  C  C272  1  0.76000900  0.93158031  0.26475176  1.0
  C  C273  1  0.23999093  0.56841914  0.76475236  1.0
  C  C274  1  0.26000925  0.06841862  0.23524721  1.0
  C  C275  1  0.73999301  0.43158144  0.73524834  1.0
  C  C276  1  0.06841921  0.26475166  0.23999113  1.0
  C  C277  1  0.43158093  0.76475254  0.76000854  1.0
  C  C278  1  0.93158067  0.23524761  0.73999118  1.0
  C  C279  1  0.56841901  0.73524770  0.26000922  1.0
  C  C280  1  0.73524836  0.23999205  0.93157931  1.0
  C  C281  1  0.23524883  0.76000854  0.56841981  1.0
  C  C282  1  0.76475249  0.73999082  0.06841911  1.0
  C  C283  1  0.26475211  0.26000850  0.43158105  1.0
  C  C284  1  0.23999071  0.06841945  0.73524847  1.0
  C  C285  1  0.76000838  0.43158062  0.23524787  1.0
  C  C286  1  0.73999125  0.93158073  0.76475342  1.0
  C  C287  1  0.26000828  0.56841950  0.26475230  1.0
  C  C288  1  0.93158129  0.73524969  0.76000871  1.0
  C  C289  1  0.56841918  0.23524801  0.23999130  1.0
  C  C290  1  0.06841944  0.76475254  0.26000866  1.0
  C  C291  1  0.43157951  0.26475086  0.73999220  1.0
  C  C292  1  0.26475214  0.76000889  0.06841934  1.0
  C  C293  1  0.76475128  0.23999122  0.43158122  1.0
  C  C294  1  0.23524801  0.26000814  0.93158073  1.0
  C  C295  1  0.73524680  0.73999046  0.56841997  1.0
  C  C296  1  0.80631677  0.84503203  0.26587354  1.0
  C  C297  1  0.19368237  0.65496702  0.76587604  1.0
  C  C298  1  0.30631761  0.15496561  0.23412420  1.0
  C  C299  1  0.69368386  0.34503366  0.73412550  1.0
  C  C300  1  0.15496617  0.26587532  0.19368218  1.0
  C  C301  1  0.34503555  0.76587593  0.80631709  1.0
  C  C302  1  0.84503335  0.23412561  0.69368311  1.0
  C  C303  1  0.65496672  0.73412504  0.30631730  1.0
  C  C304  1  0.73412355  0.19368242  0.84503430  1.0
  C  C305  1  0.23412501  0.80631817  0.65496522  1.0
  C  C306  1  0.76587622  0.69368223  0.15496657  1.0
  C  C307  1  0.26587463  0.30631748  0.34503399  1.0
  C  C308  1  0.19368254  0.15496614  0.73412550  1.0
  C  C309  1  0.80631734  0.34503313  0.23412459  1.0
  C  C310  1  0.69368210  0.84503335  0.76587723  1.0
  C  C311  1  0.30631585  0.65496530  0.26587791  1.0
  C  C312  1  0.84503512  0.73412761  0.80631726  1.0
  C  C313  1  0.65496575  0.23412343  0.19368235  1.0
  C  C314  1  0.15496635  0.76587415  0.30631752  1.0
  C  C315  1  0.34503497  0.26587670  0.69368334  1.0
  C  C316  1  0.26587655  0.80631853  0.15496594  1.0
  C  C317  1  0.76587509  0.19368277  0.34503383  1.0
  C  C318  1  0.23412627  0.30631633  0.84503367  1.0
  C  C319  1  0.73412507  0.69368188  0.65496704  1.0
  C  C320  1  0.78789154  0.06412072  0.20133030  1.0
  C  C321  1  0.21210877  0.43587980  0.70133154  1.0
  C  C322  1  0.28789217  0.93587894  0.29866825  1.0
  C  C323  1  0.71210614  0.56411965  0.79866918  1.0
  C  C324  1  0.93587910  0.20133215  0.21210719  1.0
  C  C325  1  0.56412065  0.70133064  0.78789287  1.0
  C  C326  1  0.06412041  0.29866716  0.71210761  1.0
  C  C327  1  0.43587926  0.79866798  0.28789240  1.0
  C  C328  1  0.79866811  0.21210831  0.06411978  1.0
  C  C329  1  0.29866894  0.78789213  0.43587916  1.0
  C  C330  1  0.70133161  0.71210705  0.93587908  1.0
  C  C331  1  0.20133035  0.28789163  0.56412087  1.0
  C  C332  1  0.21210698  0.93587904  0.79866795  1.0
  C  C333  1  0.78789133  0.56412036  0.29866790  1.0
  C  C334  1  0.71210634  0.06412002  0.70133198  1.0
  C  C335  1  0.28789198  0.43587931  0.20133105  1.0
  C  C336  1  0.06412180  0.79866999  0.78789106  1.0
  C  C337  1  0.43587985  0.29866833  0.21210816  1.0
  C  C338  1  0.93587891  0.70133260  0.28789143  1.0
  C  C339  1  0.56412005  0.20133059  0.71210863  1.0
  C  C340  1  0.20133199  0.78789264  0.93587967  1.0
  C  C341  1  0.70133077  0.21210802  0.56412068  1.0
  C  C342  1  0.29866849  0.28789231  0.06411997  1.0
  C  C343  1  0.79866936  0.71210852  0.43587857  1.0
  N  N344  1  0.88127983  0.89468351  0.18965212  1.0
  N  N345  1  0.11872057  0.60531843  0.68965239  1.0
  N  N346  1  0.38128031  0.10531594  0.31034753  1.0
  N  N347  1  0.61872068  0.39468401  0.81034962  1.0
  N  N348  1  0.10531643  0.18965209  0.11871990  1.0
  N  N349  1  0.39468427  0.68965287  0.88128068  1.0
  N  N350  1  0.89468357  0.31034776  0.61871947  1.0
  N  N351  1  0.60531713  0.81034837  0.38128042  1.0
  N  N352  1  0.81034765  0.11871873  0.89468424  1.0
  N  N353  1  0.31034820  0.88127971  0.60531639  1.0
  N  N354  1  0.68965109  0.61871959  0.10531635  1.0
  N  N355  1  0.18965088  0.38127990  0.39468468  1.0
  N  N356  1  0.11871948  0.10531624  0.81034851  1.0
  N  N357  1  0.88127953  0.39468252  0.31034745  1.0
  N  N358  1  0.61872019  0.89468342  0.68965112  1.0
  N  N359  1  0.38128101  0.60531496  0.18965299  1.0
  N  N360  1  0.89468408  0.81034885  0.88128034  1.0
  N  N361  1  0.60531623  0.31034847  0.11871995  1.0
  N  N362  1  0.10531614  0.68965081  0.38127918  1.0
  N  N363  1  0.39468377  0.18965059  0.61872061  1.0
  N  N364  1  0.18965166  0.88128023  0.10531719  1.0
  N  N365  1  0.68965269  0.11872005  0.39468384  1.0
  N  N366  1  0.31034703  0.38127977  0.89468309  1.0
  N  N367  1  0.81034843  0.61872025  0.60531635  1.0
  O  O368  1  0.79508469  0.20491766  0.20491950  1.0
  O  O369  1  0.20491879  0.29508404  0.70491860  1.0
  O  O370  1  0.29508048  0.79508079  0.29508420  1.0
  O  O371  1  0.70491744  0.70492019  0.79508293  1.0
  O  O372  1  0.20491780  0.79508447  0.79508034  1.0
  O  O373  1  0.79508250  0.70491850  0.29508005  1.0
  O  O374  1  0.70491685  0.20491658  0.70492000  1.0
  O  O375  1  0.29508068  0.29508433  0.20491730  1.0
  O  O376  1  0.84099064  0.81404622  0.24465457  1.0
  O  O377  1  0.15900891  0.68595445  0.74465467  1.0
  O  O378  1  0.34099259  0.18595293  0.25534353  1.0
  O  O379  1  0.65900886  0.31404552  0.75534452  1.0
  O  O380  1  0.18595276  0.24465553  0.15900792  1.0
  O  O381  1  0.31404742  0.74465655  0.84098980  1.0
  O  O382  1  0.81404680  0.25534505  0.65900845  1.0
  O  O383  1  0.68595441  0.75534436  0.34099232  1.0
  O  O384  1  0.75534494  0.15900855  0.81404615  1.0
  O  O385  1  0.25534392  0.84099041  0.68595334  1.0
  O  O386  1  0.74465569  0.65900916  0.18595517  1.0
  O  O387  1  0.24465486  0.34099140  0.31404660  1.0
  O  O388  1  0.15900827  0.18595354  0.75534408  1.0
  O  O389  1  0.84099159  0.31404531  0.25534358  1.0
  O  O390  1  0.65900910  0.81404524  0.74465591  1.0
  O  O391  1  0.34099045  0.68595344  0.24465611  1.0
  O  O392  1  0.81404695  0.75534542  0.84099033  1.0
  O  O393  1  0.68595427  0.25534400  0.15900885  1.0
  O  O394  1  0.18595290  0.74465431  0.34099139  1.0
  O  O395  1  0.31404569  0.24465619  0.65900831  1.0
  O  O396  1  0.24465437  0.84099081  0.18595369  1.0
  O  O397  1  0.74465539  0.15900855  0.31404610  1.0
  O  O398  1  0.25534639  0.34099060  0.81404626  1.0
  O  O399  1  0.75534485  0.65900836  0.68595363  1.0
  O  O400  1  0.77447424  0.83107816  0.30298567  1.0
  O  O401  1  0.22552248  0.66891964  0.80298970  1.0
  O  O402  1  0.27447549  0.16891995  0.19701290  1.0
  O  O403  1  0.72552562  0.33107899  0.69701300  1.0
  O  O404  1  0.16891998  0.30298738  0.22552430  1.0
  O  O405  1  0.33108087  0.80299045  0.77447769  1.0
  O  O406  1  0.83107833  0.19701310  0.72552570  1.0
  O  O407  1  0.66892183  0.69701374  0.27447556  1.0
  O  O408  1  0.69700948  0.22552225  0.83108042  1.0
  O  O409  1  0.19701060  0.77447842  0.66891954  1.0
  O  O410  1  0.80298982  0.72552276  0.16891921  1.0
  O  O411  1  0.30298753  0.27447568  0.33107932  1.0
  O  O412  1  0.22552507  0.16892041  0.69701338  1.0
  O  O413  1  0.77447604  0.33107853  0.19701213  1.0
  O  O414  1  0.72552184  0.83108020  0.80299170  1.0
  O  O415  1  0.27447726  0.66891799  0.30299279  1.0
  O  O416  1  0.83107973  0.69701516  0.77447474  1.0
  O  O417  1  0.66892003  0.19701010  0.22552255  1.0
  O  O418  1  0.16892098  0.80298586  0.27447453  1.0
  O  O419  1  0.33108105  0.30299038  0.72552270  1.0
  O  O420  1  0.30299102  0.77447909  0.16891942  1.0
  O  O421  1  0.80298792  0.22552411  0.33107951  1.0
  O  O422  1  0.19701346  0.27447462  0.83107904  1.0
  O  O423  1  0.69701258  0.72552367  0.66892012  1.0
  O  O424  1  0.82739342  0.08483117  0.17722523  1.0
  O  O425  1  0.17260771  0.41517057  0.67722417  1.0
  O  O426  1  0.32739289  0.91516960  0.32277408  1.0
  O  O427  1  0.67260738  0.58482936  0.82277422  1.0
  O  O428  1  0.91516830  0.17722796  0.17260568  1.0
  O  O429  1  0.58483111  0.67722674  0.82739203  1.0
  O  O430  1  0.08483006  0.32277339  0.67260644  1.0
  O  O431  1  0.41517074  0.82277459  0.32739314  1.0
  O  O432  1  0.82277117  0.17260553  0.08483066  1.0
  O  O433  1  0.32277431  0.82739366  0.41516984  1.0
  O  O434  1  0.67722626  0.67260753  0.91517023  1.0
  O  O435  1  0.17722569  0.32739199  0.58483053  1.0
  O  O436  1  0.17260589  0.91516898  0.82277302  1.0
  O  O437  1  0.82739280  0.58483037  0.32277250  1.0
  O  O438  1  0.67260682  0.08482936  0.67722735  1.0
  O  O439  1  0.32739272  0.41516921  0.17722641  1.0
  O  O440  1  0.08483141  0.82277576  0.82739138  1.0
  O  O441  1  0.41516979  0.32277302  0.17260741  1.0
  O  O442  1  0.91516965  0.67722557  0.32739260  1.0
  O  O443  1  0.58482936  0.17722596  0.67260750  1.0
  O  O444  1  0.17722616  0.82739343  0.91516997  1.0
  O  O445  1  0.67722540  0.17260689  0.58483040  1.0
  O  O446  1  0.32277225  0.32739341  0.08483000  1.0
  O  O447  1  0.82277521  0.67260737  0.41516931  1.0
  O  O448  1  0.74554363  0.08832258  0.21529766  1.0
  O  O449  1  0.25445707  0.41167871  0.71529851  1.0
  O  O450  1  0.24554274  0.91167718  0.28470173  1.0
  O  O451  1  0.75445677  0.58832263  0.78470020  1.0
  O  O452  1  0.91167688  0.21529832  0.25445631  1.0
  O  O453  1  0.58832205  0.71529880  0.74554175  1.0
  O  O454  1  0.08832100  0.28470013  0.75445673  1.0
  O  O455  1  0.41167790  0.78470068  0.24554410  1.0
  O  O456  1  0.78470150  0.25445821  0.08832157  1.0
  O  O457  1  0.28470165  0.74554304  0.41167818  1.0
  O  O458  1  0.71529853  0.75445736  0.91167682  1.0
  O  O459  1  0.21529773  0.24554248  0.58832271  1.0
  O  O460  1  0.25445568  0.91167678  0.78470099  1.0
  O  O461  1  0.74554264  0.58832184  0.28470054  1.0
  O  O462  1  0.75445657  0.08832218  0.71529970  1.0
  O  O463  1  0.24554174  0.41167832  0.21529806  1.0
  O  O464  1  0.08832283  0.78470263  0.74554234  1.0
  O  O465  1  0.41167805  0.28470096  0.25445809  1.0
  O  O466  1  0.91167791  0.71529962  0.24554351  1.0
  O  O467  1  0.58832181  0.21529829  0.75445772  1.0
  O  O468  1  0.21529860  0.74554392  0.91167748  1.0
  O  O469  1  0.71529806  0.25445711  0.58832166  1.0
  O  O470  1  0.28470197  0.24554200  0.08832182  1.0
  O  O471  1  0.78470316  0.75445807  0.41167673  1.0
