# generated using pymatgen
data_AlH7C12NO5F
_symmetry_space_group_name_H-M   'P 1'
_cell_length_a   6.78638977
_cell_length_b   10.99735851
_cell_length_c   17.67977494
_cell_angle_alpha   92.19373228
_cell_angle_beta   100.09099204
_cell_angle_gamma   106.39490652
_symmetry_Int_Tables_number   1
_chemical_formula_structural   AlH7C12NO5F
_chemical_formula_sum   'Al2 H14 C24 N2 O10 F2'
_cell_volume   1240.86229519
_cell_formula_units_Z   2
loop_
 _symmetry_equiv_pos_site_id
 _symmetry_equiv_pos_as_xyz
  1  'x, y, z'
loop_
 _atom_site_type_symbol
 _atom_site_label
 _atom_site_symmetry_multiplicity
 _atom_site_fract_x
 _atom_site_fract_y
 _atom_site_fract_z
 _atom_site_occupancy
  Al  Al0  1  0.00301294  0.50049344  0.50648873  1.0
  Al  Al1  1  0.50351445  0.50114893  0.50674415  1.0
  H  H2  1  0.17840717  0.43634894  0.41019020  1.0
  H  H3  1  0.84673434  0.61832507  0.58817817  1.0
  H  H4  1  0.13416579  0.89079651  0.50114233  1.0
  H  H5  1  0.87171041  0.11532293  0.50821603  1.0
  H  H6  1  0.94415925  0.48837945  0.27296212  1.0
  H  H7  1  0.86997411  0.47812837  0.12920994  1.0
  H  H8  1  0.36660033  0.57653086  0.27849028  1.0
  H  H9  1  0.64146989  0.42720187  0.73223318  1.0
  H  H10  1  0.05798287  0.50710394  0.73837867  1.0
  H  H11  1  0.13308973  0.51682424  0.88235337  1.0
  H  H12  1  0.23325963  0.22160625  0.46754894  1.0
  H  H13  1  0.04785310  0.07544266  0.46604332  1.0
  H  H14  1  0.73947559  0.76906963  0.49350496  1.0
  H  H15  1  0.85544936  0.88116896  0.44114206  1.0
  C  C16  1  0.69548109  0.52633325  0.36999217  1.0
  C  C17  1  0.64766371  0.27248310  0.49342973  1.0
  C  C18  1  0.30905161  0.47402779  0.64135268  1.0
  C  C19  1  0.35781414  0.73001688  0.51212681  1.0
  C  C20  1  0.56562018  0.13288689  0.49078888  1.0
  C  C21  1  0.43517405  0.86750825  0.50139345  1.0
  C  C22  1  0.34798886  0.06827263  0.48218729  1.0
  C  C23  1  0.64726490  0.92865805  0.49640417  1.0
  C  C24  1  0.29347771  0.93838677  0.49505615  1.0
  C  C25  1  0.70732050  0.06115053  0.49854165  1.0
  C  C26  1  0.65974784  0.53102011  0.28469730  1.0
  C  C27  1  0.80236769  0.50556579  0.24227786  1.0
  C  C28  1  0.76092801  0.49939569  0.16237262  1.0
  C  C29  1  0.57467859  0.51873497  0.12197963  1.0
  C  C30  1  0.43838218  0.54849752  0.16653423  1.0
  C  C31  1  0.47696421  0.55465815  0.24617794  1.0
  C  C32  1  0.52440535  0.50598662  0.04075588  1.0
  C  C33  1  0.48101258  0.49139580  0.97041073  1.0
  C  C34  1  0.43077413  0.47926283  0.88917165  1.0
  C  C35  1  0.56836234  0.45186192  0.84439864  1.0
  C  C36  1  0.52979333  0.44659291  0.76479035  1.0
  C  C37  1  0.34530903  0.46852948  0.72661336  1.0
  C  C38  1  0.20124621  0.49164997  0.76917720  1.0
  C  C39  1  0.24314785  0.49726618  0.84908545  1.0
  N  N40  1  0.19429039  0.12502579  0.46152045  1.0
  N  N41  1  0.79595278  0.86442924  0.48998611  1.0
  O  O42  1  0.86524888  0.50571261  0.40200709  1.0
  O  O43  1  0.51216404  0.33477992  0.48394784  1.0
  O  O44  1  0.45254349  0.46036096  0.60686967  1.0
  O  O45  1  0.16152465  0.67823732  0.50615583  1.0
  O  O46  1  0.13998195  0.49555335  0.60954731  1.0
  O  O47  1  0.49651301  0.67066853  0.52778780  1.0
  O  O48  1  0.55098196  0.54035617  0.40405388  1.0
  O  O49  1  0.84541207  0.32469852  0.50429126  1.0
  O  O50  1  0.21120096  0.44902507  0.46611045  1.0
  O  O51  1  0.79545787  0.55478761  0.54431268  1.0
  F  F52  1  0.25948523  0.56967600  0.12922132  1.0
  F  F53  1  0.74858734  0.43213500  0.88161460  1.0
