# generated using pymatgen
data_Zn2H14C13N2O11
_symmetry_space_group_name_H-M   'P 1'
_cell_length_a   7.90949631
_cell_length_b   9.09078872
_cell_length_c   11.16694750
_cell_angle_alpha   86.35293922
_cell_angle_beta   80.89622342
_cell_angle_gamma   82.81486423
_symmetry_Int_Tables_number   1
_chemical_formula_structural   Zn2H14C13N2O11
_chemical_formula_sum   'Zn2 H14 C13 N2 O11'
_cell_volume   785.81564251
_cell_formula_units_Z   1
loop_
 _symmetry_equiv_pos_site_id
 _symmetry_equiv_pos_as_xyz
  1  'x, y, z'
loop_
 _atom_site_type_symbol
 _atom_site_label
 _atom_site_symmetry_multiplicity
 _atom_site_fract_x
 _atom_site_fract_y
 _atom_site_fract_z
 _atom_site_occupancy
  Zn  Zn0  1  0.68018169  0.47436847  0.46813831  1.0
  Zn  Zn1  1  0.31831983  0.49512588  0.49872588  1.0
  H  H2  1  0.59669138  0.50039762  0.86913137  1.0
  H  H3  1  0.25771396  0.43606986  0.13230681  1.0
  H  H4  1  0.14115548  0.30209019  0.00290255  1.0
  H  H5  1  0.09313736  0.45580106  0.90201941  1.0
  H  H6  1  0.21600044  0.29346803  0.84395082  1.0
  H  H7  1  0.74991365  0.45985452  0.11871137  1.0
  H  H8  1  0.22896576  0.92651179  0.38462507  1.0
  H  H9  1  0.20154463  0.00465536  0.52740161  1.0
  H  H10  1  0.27732916  0.11248152  0.39512134  1.0
  H  H11  1  0.82128392  0.05135285  0.46561582  1.0
  H  H12  1  0.08114150  0.32014472  0.67521811  1.0
  H  H13  1  0.88204158  0.31573001  0.61650083  1.0
  H  H14  1  0.08429486  0.22579643  0.54090749  1.0
  H  H15  1  0.85429486  0.71239309  0.41694214  1.0
  C  C16  1  0.49460669  0.77412994  0.45927525  1.0
  C  C17  1  0.59509571  0.02251931  0.45757691  1.0
  C  C18  1  0.50327301  0.47121401  0.25006188  1.0
  C  C19  1  0.57237185  0.18903490  0.46923982  1.0
  C  C20  1  0.47158605  0.46753603  0.71733557  1.0
  C  C21  1  0.35604927  0.42508326  0.94004900  1.0
  C  C22  1  0.47918985  0.46463474  0.84767424  1.0
  C  C23  1  0.37384114  0.43996279  0.06559700  1.0
  C  C24  1  0.51570768  0.45649469  0.11591939  1.0
  C  C25  1  0.46603248  0.93856224  0.44972823  1.0
  C  C26  1  0.19287087  0.36555239  0.92125338  1.0
  C  C27  1  0.28356622  0.00082860  0.43795731  1.0
  C  C28  1  0.02088160  0.32079455  0.59314242  1.0
  N  N29  1  0.06059722  0.45660182  0.52336537  1.0
  N  N30  1  0.93723153  0.52966577  0.48165025  1.0
  O  O31  1  0.64634824  0.70303025  0.43569113  1.0
  O  O32  1  0.35927676  0.71024080  0.49228619  1.0
  O  O33  1  0.64973801  0.46357101  0.28740299  1.0
  O  O34  1  0.35565515  0.49039854  0.31393984  1.0
  O  O35  1  0.71587692  0.24334703  0.46772150  1.0
  O  O36  1  0.42481680  0.26146973  0.48232555  1.0
  O  O37  1  0.61583330  0.48113692  0.64781632  1.0
  O  O38  1  0.32930909  0.46091033  0.67799706  1.0
  O  O39  1  0.67781042  0.45668074  0.05440832  1.0
  O  O40  1  0.76094083  0.96324744  0.46058344  1.0
  O  O41  1  0.97405421  0.65975764  0.42587893  1.0
