# generated using pymatgen
data_Zn4H17(C9O5)3
_symmetry_space_group_name_H-M   'P 1'
_cell_length_a   18.25750155
_cell_length_b   18.45782492
_cell_length_c   18.45779424
_cell_angle_alpha   60.57740936
_cell_angle_beta   60.35784885
_cell_angle_gamma   60.35771974
_symmetry_Int_Tables_number   1
_chemical_formula_structural   Zn4H17(C9O5)3
_chemical_formula_sum   'Zn8 H34 C54 O30'
_cell_volume   4441.13604133
_cell_formula_units_Z   2
loop_
 _symmetry_equiv_pos_site_id
 _symmetry_equiv_pos_as_xyz
  1  'x, y, z'
loop_
 _atom_site_type_symbol
 _atom_site_label
 _atom_site_symmetry_multiplicity
 _atom_site_fract_x
 _atom_site_fract_y
 _atom_site_fract_z
 _atom_site_occupancy
  Zn  Zn0  1  0.70830614  0.20155730  0.38182485  1.0
  Zn  Zn1  1  0.11829903  0.79390856  0.79419075  1.0
  Zn  Zn2  1  0.88170217  0.20580874  0.20609040  1.0
  Zn  Zn3  1  0.29360823  0.79392477  0.79418840  1.0
  Zn  Zn4  1  0.70584389  0.37587092  0.21242913  1.0
  Zn  Zn5  1  0.29415031  0.78757210  0.62413122  1.0
  Zn  Zn6  1  0.29169405  0.61817442  0.79844252  1.0
  Zn  Zn7  1  0.70639387  0.20581229  0.20607549  1.0
  H  H8  1  0.54762523  0.33101167  0.57371631  1.0
  H  H9  1  0.49963422  0.61379966  0.28952118  1.0
  H  H10  1  0.50038681  0.71047280  0.38620574  1.0
  H  H11  1  0.59705915  0.61378658  0.28951600  1.0
  H  H12  1  0.16796763  0.92724719  0.43727456  1.0
  H  H13  1  0.53249834  0.56272662  0.07273781  1.0
  H  H14  1  0.46751261  0.92724820  0.43727140  1.0
  H  H15  1  0.83202412  0.56273427  0.07274896  1.0
  H  H16  1  0.45236728  0.42628586  0.66898959  1.0
  H  H17  1  0.93092584  0.97093558  0.66045805  1.0
  H  H18  1  0.56231797  0.33953746  0.02906500  1.0
  H  H19  1  0.43768525  0.97092967  0.66045627  1.0
  H  H20  1  0.06906456  0.33954742  0.02907416  1.0
  H  H21  1  0.84043418  0.06424916  0.55907976  1.0
  H  H22  1  0.46375765  0.44091655  0.93575186  1.0
  H  H23  1  0.53624998  0.06423892  0.55907641  1.0
  H  H24  1  0.15956298  0.44092086  0.93576111  1.0
  H  H25  1  0.06933621  0.04549207  0.05088560  1.0
  H  H26  1  0.16571845  0.94910556  0.95449520  1.0
  H  H27  1  0.83427687  0.04550906  0.05088951  1.0
  H  H28  1  0.93066003  0.94911794  0.95450256  1.0
  H  H29  1  0.02086932  0.97343756  0.29895803  1.0
  H  H30  1  0.12283143  0.89280008  0.32034488  1.0
  H  H31  1  0.12642129  0.98111394  0.21699526  1.0
  H  H32  1  0.33597758  0.67965468  0.10719508  1.0
  H  H33  1  0.29326205  0.70105135  0.02655225  1.0
  H  H34  1  0.40296184  0.71048786  0.38620941  1.0
  H  H35  1  0.32453614  0.78300628  0.01887638  1.0
  H  H36  1  0.66404926  0.89279715  0.32034376  1.0
  H  H37  1  0.70674933  0.97344834  0.29894918  1.0
  H  H38  1  0.67549018  0.98111293  0.21699066  1.0
  H  H39  1  0.97912815  0.70105292  0.02655699  1.0
  H  H40  1  0.87716658  0.67966629  0.10719937  1.0
  H  H41  1  0.87357973  0.78301125  0.01888349  1.0
  C  C42  1  0.61152919  0.38610540  0.11338771  1.0
  C  C43  1  0.51740912  0.53537051  0.04318615  1.0
  C  C44  1  0.95405693  0.59219540  0.99225826  1.0
  C  C45  1  0.08987963  0.96282793  0.28802247  1.0
  C  C46  1  0.34073261  0.71197892  0.03716460  1.0
  C  C47  1  0.65929296  0.96282879  0.28801656  1.0
  C  C48  1  0.91012147  0.71198508  0.03716869  1.0
  C  C49  1  0.48259296  0.95681075  0.46462216  1.0
  C  C50  1  0.90401949  0.53537573  0.04320340  1.0
  C  C51  1  0.09597418  0.95679901  0.46463233  1.0
  C  C52  1  0.05515718  0.94333023  0.55511616  1.0
  C  C53  1  0.55360268  0.44488457  0.05666150  1.0
  C  C54  1  0.44639830  0.94333733  0.55510928  1.0
  C  C55  1  0.11102590  0.88659597  0.61389726  1.0
  C  C56  1  0.94483477  0.44489436  0.05666967  1.0
  C  C57  1  0.96244247  0.98181504  0.58983822  1.0
  C  C58  1  0.53409975  0.41015615  0.01817836  1.0
  C  C59  1  0.46590465  0.98181838  0.58983670  1.0
  C  C60  1  0.03755132  0.41016877  0.01818941  1.0
  C  C61  1  0.88896256  0.38611054  0.11340399  1.0
  C  C62  1  0.91244641  0.03326344  0.53353372  1.0
  C  C63  1  0.47925043  0.46646272  0.96672828  1.0
  C  C64  1  0.52076065  0.03326094  0.53353133  1.0
  C  C65  1  0.08754905  0.46646951  0.96674526  1.0
  C  C66  1  0.38847088  0.88660766  0.61389428  1.0
  C  C67  1  0.95223739  0.04767559  0.44214049  1.0
  C  C68  1  0.44205087  0.55785631  0.95232423  1.0
  C  C69  1  0.55795918  0.04766320  0.44213912  1.0
  C  C70  1  0.04775644  0.55786244  0.95233470  1.0
  C  C71  1  0.03989983  0.02357443  0.02962802  1.0
  C  C72  1  0.09309864  0.97037082  0.97642317  1.0
  C  C73  1  0.90689394  0.02358160  0.02962363  1.0
  C  C74  1  0.96009617  0.97037536  0.97642110  1.0
  C  C75  1  0.05345272  0.94359130  0.94949530  1.0
  C  C76  1  0.94654108  0.05050462  0.05640895  1.0
  C  C77  1  0.89305029  0.10664806  0.38653306  1.0
  C  C78  1  0.38623092  0.61346125  0.89335166  1.0
  C  C79  1  0.61377447  0.10663967  0.38653386  1.0
  C  C80  1  0.10694814  0.61347004  0.89335823  1.0
  C  C81  1  0.88933905  0.10832982  0.11298404  1.0
  C  C82  1  0.11065407  0.88701743  0.89166989  1.0
  C  C83  1  0.61197575  0.38177818  0.39423863  1.0
  C  C84  1  0.38802178  0.60576429  0.61821939  1.0
  C  C85  1  0.52673026  0.53057850  0.41595913  1.0
  C  C86  1  0.47327368  0.58404473  0.46942128  1.0
  C  C87  1  0.55504647  0.43875341  0.45113472  1.0
  C  C88  1  0.44495811  0.54887068  0.56123936  1.0
  C  C89  1  0.52667364  0.40256202  0.54407590  1.0
  C  C90  1  0.47332169  0.45592498  0.59743617  1.0
  C  C91  1  0.46975506  0.66884620  0.39167470  1.0
  C  C92  1  0.53026638  0.60832447  0.33115267  1.0
  C  C93  1  0.04593850  0.00774493  0.40781196  1.0
  C  C94  1  0.46149631  0.59219142  0.99224388  1.0
  C  C95  1  0.53851251  0.00774819  0.40780437  1.0
  O  O96  1  0.75063553  0.24661054  0.25209995  1.0
  O  O97  1  0.19539256  0.85875549  0.57621093  1.0
  O  O98  1  0.80459543  0.42379963  0.14124339  1.0
  O  O99  1  0.36961526  0.85878687  0.57620262  1.0
  O  O100  1  0.80884702  0.12858534  0.42776674  1.0
  O  O101  1  0.36519975  0.57222620  0.87141279  1.0
  O  O102  1  0.63481021  0.12857638  0.42776649  1.0
  O  O103  1  0.19115051  0.57223377  0.87141971  1.0
  O  O104  1  0.24936159  0.74790207  0.75339284  1.0
  O  O105  1  0.63531249  0.13132528  0.30308916  1.0
  O  O106  1  0.06972151  0.69691522  0.86869454  1.0
  O  O107  1  0.93027677  0.13130849  0.30308842  1.0
  O  O108  1  0.36468470  0.69690895  0.86867504  1.0
  O  O109  1  0.93014339  0.30318768  0.12975762  1.0
  O  O110  1  0.36308500  0.87025644  0.69681864  1.0
  O  O111  1  0.63691304  0.30318065  0.12974322  1.0
  O  O112  1  0.06984746  0.87024285  0.69682080  1.0
  O  O113  1  0.80492664  0.13057907  0.13480541  1.0
  O  O114  1  0.07032600  0.86518417  0.86941964  1.0
  O  O115  1  0.92967163  0.13058171  0.13481369  1.0
  O  O116  1  0.19506617  0.86519736  0.86942184  1.0
  O  O117  1  0.63329981  0.42225309  0.31108591  1.0
  O  O118  1  0.36668491  0.68891896  0.57773879  1.0
  O  O119  1  0.63477951  0.29829537  0.43213664  1.0
  O  O120  1  0.63038312  0.42379321  0.14120769  1.0
  O  O121  1  0.36522337  0.56786804  0.70169988  1.0
  O  O122  1  0.09272338  0.01813722  0.31976275  1.0
  O  O123  1  0.43062005  0.68023840  0.98185258  1.0
  O  O124  1  0.56938802  0.01813265  0.31976128  1.0
  O  O125  1  0.90727518  0.68023980  0.98186205  1.0
