# generated using pymatgen
data_ZnH5C12(N2O)2
_symmetry_space_group_name_H-M   'P 1'
_cell_length_a   15.63813306
_cell_length_b   15.97056048
_cell_length_c   17.88700266
_cell_angle_alpha   105.00943806
_cell_angle_beta   104.01820487
_cell_angle_gamma   113.20132344
_symmetry_Int_Tables_number   1
_chemical_formula_structural   ZnH5C12(N2O)2
_chemical_formula_sum   'Zn4 H20 C48 N16 O8'
_cell_volume   3655.58312711
_cell_formula_units_Z   4
loop_
 _symmetry_equiv_pos_site_id
 _symmetry_equiv_pos_as_xyz
  1  'x, y, z'
loop_
 _atom_site_type_symbol
 _atom_site_label
 _atom_site_symmetry_multiplicity
 _atom_site_fract_x
 _atom_site_fract_y
 _atom_site_fract_z
 _atom_site_occupancy
  Zn  Zn0  1  0.62847810  0.63200875  0.48512546  1.0
  Zn  Zn1  1  0.36590819  0.36623104  0.50633491  1.0
  Zn  Zn2  1  0.50705853  0.61983200  0.61874849  1.0
  Zn  Zn3  1  0.48993986  0.37967507  0.37772942  1.0
  H  H4  1  0.86075414  0.81336298  0.63082647  1.0
  H  H5  1  0.67188974  0.62232187  0.76818130  1.0
  H  H6  1  0.64217007  0.32071834  0.47262855  1.0
  H  H7  1  0.48067512  0.30383445  0.63724558  1.0
  H  H8  1  0.82165835  0.63977105  0.61076355  1.0
  H  H9  1  0.44262204  0.14294378  0.29643251  1.0
  H  H10  1  0.13228555  0.17270228  0.44707142  1.0
  H  H11  1  0.71922500  0.61085238  0.02714636  1.0
  H  H12  1  0.24324491  0.99426102  0.08482258  1.0
  H  H13  1  0.33379227  0.13791871  0.49689005  1.0
  H  H14  1  0.56044073  0.74737492  0.82750614  1.0
  H  H15  1  0.15440146  0.34848906  0.51895374  1.0
  H  H16  1  0.75801671  0.82078659  0.45279366  1.0
  H  H17  1  0.34893876  0.68458898  0.53378181  1.0
  H  H18  1  0.33586187  0.36320370  0.21817200  1.0
  H  H19  1  0.50724557  0.69930260  0.36512176  1.0
  H  H20  1  0.52856678  0.36304304  0.19428327  1.0
  H  H21  1  0.34193266  0.65492578  0.69544303  1.0
  H  H22  1  0.61415623  0.38243602  0.96813198  1.0
  H  H23  1  0.95607686  0.04881720  0.99073975  1.0
  C  C24  1  0.80369625  0.79907483  0.65754872  1.0
  C  C25  1  0.47649142  0.68689737  0.41193414  1.0
  C  C26  1  0.56534283  0.43828251  0.24118344  1.0
  C  C27  1  0.36308540  0.15638419  0.45080468  1.0
  C  C28  1  0.31083648  0.57915451  0.65128450  1.0
  C  C29  1  0.62597860  0.52783243  0.23628779  1.0
  C  C30  1  0.20969669  0.50188151  0.61226167  1.0
  C  C31  1  0.40890730  0.71539197  0.43523645  1.0
  C  C32  1  0.21179695  0.26500764  0.24824872  1.0
  C  C33  1  0.86035659  0.47244298  0.58286952  1.0
  C  C34  1  0.94489020  0.48038386  0.60000560  1.0
  C  C35  1  0.38229937  0.09737623  0.39032609  1.0
  C  C36  1  0.03722961  0.48966989  0.61186779  1.0
  C  C37  1  0.12079114  0.49983945  0.61699942  1.0
  C  C38  1  0.37144429  0.00345276  0.38129993  1.0
  C  C39  1  0.61638415  0.54722044  0.72376695  1.0
  C  C40  1  0.36534253  0.92532966  0.38415560  1.0
  C  C41  1  0.36774256  0.84518058  0.39392095  1.0
  C  C42  1  0.37832261  0.77870617  0.40995843  1.0
  C  C43  1  0.62728360  0.45028556  0.81213856  1.0
  C  C44  1  0.64803840  0.45373808  0.96252331  1.0
  C  C45  1  0.68353593  0.53891495  0.03129165  1.0
  C  C46  1  0.59484937  0.45798680  0.73515772  1.0
  C  C47  1  0.67012780  0.53807740  0.10560291  1.0
  C  C48  1  0.64437191  0.45187055  0.88322026  1.0
  C  C49  1  0.65244981  0.53745434  0.16855573  1.0
  C  C50  1  0.14034176  0.18927346  0.17024507  1.0
  C  C51  1  0.67200334  0.40049638  0.50031149  1.0
  C  C52  1  0.02756111  0.05067981  0.01911732  1.0
  C  C53  1  0.04619509  0.98510734  0.96774846  1.0
  C  C54  1  0.97472577  0.92766840  0.88428876  1.0
  C  C55  1  0.08917697  0.12151911  0.10068985  1.0
  C  C56  1  0.90503402  0.88474509  0.81575522  1.0
  C  C57  1  0.77038408  0.47623320  0.55617347  1.0
  C  C58  1  0.51890179  0.38388724  0.65710197  1.0
  C  C59  1  0.76333893  0.56401769  0.57052043  1.0
  C  C60  1  0.41842022  0.15811004  0.34802585  1.0
  C  C61  1  0.71631565  0.79061469  0.73863148  1.0
  C  C62  1  0.81684762  0.83078675  0.74256421  1.0
  C  C63  1  0.14364861  0.20426282  0.35274289  1.0
  C  C64  1  0.13378591  0.96767365  0.99259873  1.0
  C  C65  1  0.68153393  0.79736267  0.80756176  1.0
  C  C66  1  0.71214568  0.70866945  0.35022214  1.0
  C  C67  1  0.65197882  0.60096209  0.31540792  1.0
  C  C68  1  0.21536208  0.42227280  0.56101610  1.0
  C  C69  1  0.39514155  0.67938743  0.49811911  1.0
  C  C70  1  0.30557836  0.34308933  0.26330376  1.0
  C  C71  1  0.21453574  0.27473960  0.33007589  1.0
  N  N72  1  0.70426551  0.74358292  0.60797488  1.0
  N  N73  1  0.55566434  0.52746239  0.64679117  1.0
  N  N74  1  0.61340084  0.44162663  0.48204096  1.0
  N  N75  1  0.49579208  0.42696294  0.60578285  1.0
  N  N76  1  0.66960174  0.54186923  0.52505158  1.0
  N  N77  1  0.42026444  0.24512975  0.38132389  1.0
  N  N78  1  0.65072595  0.73789391  0.65745992  1.0
  N  N79  1  0.60991099  0.55638169  0.36186858  1.0
  N  N80  1  0.31109360  0.44959140  0.56926520  1.0
  N  N81  1  0.45211864  0.63566264  0.51170470  1.0
  N  N82  1  0.36072475  0.39384523  0.34734766  1.0
  N  N83  1  0.30403533  0.35275983  0.38755318  1.0
  N  N84  1  0.50218998  0.64067686  0.45887326  1.0
  N  N85  1  0.55727378  0.45743775  0.31645185  1.0
  N  N86  1  0.37044980  0.54707268  0.62527839  1.0
  N  N87  1  0.38606436  0.24386183  0.44511456  1.0
  O  O88  1  0.06265423  0.13200005  0.30508588  1.0
  O  O89  1  0.18164133  0.22623584  0.43831279  1.0
  O  O90  1  0.15099683  0.91355783  0.94354484  1.0
  O  O91  1  0.19232755  0.01586031  0.07647647  1.0
  O  O92  1  0.73423230  0.84111913  0.88238488  1.0
  O  O93  1  0.57717659  0.74426718  0.77785363  1.0
  O  O94  1  0.74950887  0.76148460  0.31612162  1.0
  O  O95  1  0.72244423  0.74846414  0.43366710  1.0
