# generated using pymatgen
data_ZnH18C28(N4O3)2
_symmetry_space_group_name_H-M   'P 1'
_cell_length_a   16.35898551
_cell_length_b   16.35897237
_cell_length_c   25.75378605
_cell_angle_alpha   90.00010752
_cell_angle_beta   89.99983539
_cell_angle_gamma   119.99999863
_symmetry_Int_Tables_number   1
_chemical_formula_structural   ZnH18C28(N4O3)2
_chemical_formula_sum   'Zn6 H108 C168 N48 O36'
_cell_volume   5968.75987993
_cell_formula_units_Z   6
loop_
 _symmetry_equiv_pos_site_id
 _symmetry_equiv_pos_as_xyz
  1  'x, y, z'
loop_
 _atom_site_type_symbol
 _atom_site_label
 _atom_site_symmetry_multiplicity
 _atom_site_fract_x
 _atom_site_fract_y
 _atom_site_fract_z
 _atom_site_occupancy
  Zn  Zn0  1  0.57397918  0.28698802  0.83333536  1.0
  Zn  Zn1  1  0.71300862  0.42602067  0.16666557  1.0
  Zn  Zn2  1  0.71300933  0.28698923  0.50000094  1.0
  Zn  Zn3  1  0.42602294  0.71301282  0.83333515  1.0
  Zn  Zn4  1  0.28698728  0.57397885  0.16666545  1.0
  Zn  Zn5  1  0.28698819  0.71300918  0.50000099  1.0
  H  H6  1  0.35551589  0.42447340  0.79647522  1.0
  H  H7  1  0.28750719  0.46836965  0.86030903  1.0
  H  H8  1  0.46406295  0.36539754  0.77346043  1.0
  H  H9  1  0.50387239  0.32575909  0.92885927  1.0
  H  H10  1  0.39700985  0.38163646  0.95801744  1.0
  H  H11  1  0.17277231  0.47636204  0.85587484  1.0
  H  H12  1  0.18135332  0.46141807  0.02329549  1.0
  H  H13  1  0.78737114  0.18101919  0.91680399  1.0
  H  H14  1  0.06895986  0.64448218  0.12980703  1.0
  H  H15  1  0.18086135  0.71249098  0.19364030  1.0
  H  H16  1  0.90133704  0.53593580  0.10679116  1.0
  H  H17  1  0.82188238  0.49612869  0.26219011  1.0
  H  H18  1  0.98462263  0.60298823  0.29134884  1.0
  H  H19  1  0.30358004  0.82722712  0.18920324  1.0
  H  H20  1  0.28006935  0.81864898  0.35662602  1.0
  H  H21  1  0.39364714  0.21262633  0.25013540  1.0
  H  H22  1  0.57552758  0.93104240  0.46314220  1.0
  H  H23  1  0.53163109  0.81913815  0.52697550  1.0
  H  H24  1  0.63460396  0.09866519  0.44012621  1.0
  H  H25  1  0.67424128  0.17811662  0.59552667  1.0
  H  H26  1  0.61836127  0.01537550  0.62468545  1.0
  H  H27  1  0.52363595  0.69640890  0.52254269  1.0
  H  H28  1  0.53857818  0.71993431  0.68996351  1.0
  H  H29  1  0.81897781  0.60635391  0.58347226  1.0
  H  H30  1  0.64448503  0.57552105  0.79647564  1.0
  H  H31  1  0.71249341  0.53162839  0.86030889  1.0
  H  H32  1  0.53593877  0.63459830  0.77345953  1.0
  H  H33  1  0.49613075  0.67424465  0.92885888  1.0
  H  H34  1  0.60299115  0.61836449  0.95801796  1.0
  H  H35  1  0.82722946  0.52363953  0.85587526  1.0
  H  H36  1  0.81864788  0.53858343  0.02329594  1.0
  H  H37  1  0.21262941  0.81898172  0.91680391  1.0
  H  H38  1  0.93103925  0.35551731  0.12980745  1.0
  H  H39  1  0.81913714  0.28750786  0.19363929  1.0
  H  H40  1  0.09866145  0.46406225  0.10679125  1.0
  H  H41  1  0.17811436  0.50387092  0.26218894  1.0
  H  H42  1  0.01537434  0.39701211  0.29134862  1.0
  H  H43  1  0.69641716  0.17277031  0.18920270  1.0
  H  H44  1  0.71992787  0.18135000  0.35662622  1.0
  H  H45  1  0.60635209  0.78737327  0.25013340  1.0
  H  H46  1  0.42447664  0.06895809  0.46314164  1.0
  H  H47  1  0.46837094  0.18086099  0.52697345  1.0
  H  H48  1  0.36539878  0.90133458  0.44012634  1.0
  H  H49  1  0.32575472  0.82188330  0.59552561  1.0
  H  H50  1  0.38163558  0.98462515  0.62468370  1.0
  H  H51  1  0.47636542  0.30359376  0.52254038  1.0
  H  H52  1  0.46141944  0.28006357  0.68996042  1.0
  H  H53  1  0.18102435  0.39364599  0.58347056  1.0
  H  H54  1  0.93104121  0.57552580  0.53685685  1.0
  H  H55  1  0.81913832  0.53162818  0.47302437  1.0
  H  H56  1  0.09866462  0.63460327  0.55987348  1.0
  H  H57  1  0.17811702  0.67424450  0.40447414  1.0
  H  H58  1  0.01537615  0.61836367  0.37531505  1.0
  H  H59  1  0.69640940  0.52363374  0.47745800  1.0
  H  H60  1  0.71993502  0.53858077  0.31003678  1.0
  H  H61  1  0.60635466  0.81898138  0.41652798  1.0
  H  H62  1  0.42447983  0.35552031  0.20352523  1.0
  H  H63  1  0.46837176  0.28750935  0.13969026  1.0
  H  H64  1  0.36540268  0.46406717  0.22654039  1.0
  H  H65  1  0.32575529  0.50387079  0.07114078  1.0
  H  H66  1  0.38163579  0.39701047  0.04198223  1.0
  H  H67  1  0.47636165  0.17277317  0.14412448  1.0
  H  H68  1  0.46141631  0.18135318  0.97670461  1.0
  H  H69  1  0.18101653  0.78736907  0.08319756  1.0
  H  H70  1  0.64448386  0.06896174  0.87019343  1.0
  H  H71  1  0.71249316  0.18086247  0.80636127  1.0
  H  H72  1  0.53593768  0.90133826  0.89320985  1.0
  H  H73  1  0.49612779  0.82188401  0.73781094  1.0
  H  H74  1  0.60298703  0.98462371  0.70865096  1.0
  H  H75  1  0.82723237  0.30358250  0.81079631  1.0
  H  H76  1  0.81864739  0.28006910  0.64337432  1.0
  H  H77  1  0.21262727  0.39364817  0.74986665  1.0
  H  H78  1  0.06895940  0.42447547  0.53685695  1.0
  H  H79  1  0.18086053  0.46837021  0.47302393  1.0
  H  H80  1  0.90133529  0.36539802  0.55987395  1.0
  H  H81  1  0.82188306  0.32575452  0.40447394  1.0
  H  H82  1  0.98462370  0.38163462  0.37531462  1.0
  H  H83  1  0.30359110  0.47636677  0.47745774  1.0
  H  H84  1  0.28006641  0.46141888  0.31003771  1.0
  H  H85  1  0.39364660  0.18101766  0.41652917  1.0
  H  H86  1  0.57552276  0.64448559  0.20352505  1.0
  H  H87  1  0.53162846  0.71249367  0.13969024  1.0
  H  H88  1  0.63459921  0.53593875  0.22654117  1.0
  H  H89  1  0.67424308  0.49612793  0.07114105  1.0
  H  H90  1  0.61836437  0.60299034  0.04198157  1.0
  H  H91  1  0.52363916  0.82722985  0.14412501  1.0
  H  H92  1  0.53858156  0.81864779  0.97670355  1.0
  H  H93  1  0.81897996  0.21262966  0.08319762  1.0
  H  H94  1  0.35551592  0.93103842  0.87019323  1.0
  H  H95  1  0.28750714  0.81913693  0.80635989  1.0
  H  H96  1  0.46406322  0.09866192  0.89321004  1.0
  H  H97  1  0.50387069  0.17811603  0.73781076  1.0
  H  H98  1  0.39701122  0.01537560  0.70865000  1.0
  H  H99  1  0.17276843  0.69641549  0.81079577  1.0
  H  H100  1  0.18135199  0.71992945  0.64337457  1.0
  H  H101  1  0.78737152  0.60635259  0.74986724  1.0
  H  H102  1  0.67194431  0.32805898  0.00000073  1.0
  H  H103  1  0.84772600  0.15227295  0.00000124  1.0
  H  H104  1  0.65611249  0.32805773  0.33333333  1.0
  H  H105  1  0.30454605  0.15227043  0.33333333  1.0
  H  H106  1  0.67194354  0.34388661  0.66666667  1.0
  H  H107  1  0.84772634  0.69545359  0.66666667  1.0
  H  H108  1  0.32805531  0.67194037  0.00000027  1.0
  H  H109  1  0.15227164  0.84772854  0.00000092  1.0
  H  H110  1  0.34388649  0.67194334  0.33333333  1.0
  H  H111  1  0.69545519  0.84772782  0.33333333  1.0
  H  H112  1  0.32805716  0.65611478  0.66666667  1.0
  H  H113  1  0.15227477  0.30454497  0.66666667  1.0
  C  C114  1  0.36581205  0.40753441  0.87962492  1.0
  C  C115  1  0.38623195  0.40205203  0.82690177  1.0
  C  C116  1  0.04209603  0.49333644  0.94565711  1.0
  C  C117  1  0.26668349  0.44030291  0.93949273  1.0
  C  C118  1  0.44659498  0.36887247  0.81400788  1.0
  C  C119  1  0.18941387  0.46364757  0.93951844  1.0
  C  C120  1  0.46882005  0.34712451  0.90048368  1.0
  C  C121  1  0.40939248  0.37935584  0.91694968  1.0
  C  C122  1  0.14783925  0.47701145  0.89515996  1.0
  C  C123  1  0.68433990  0.26453699  0.90330282  1.0
  C  C124  1  0.15074736  0.46919277  0.98720894  1.0
  C  C125  1  0.72433349  0.25420827  0.95343327  1.0
  C  C126  1  0.77535161  0.20621318  0.95359240  1.0
  C  C127  1  0.04172192  0.63418667  0.21295677  1.0
  C  C128  1  0.01582159  0.61376424  0.16023288  1.0
  C  C129  1  0.45124045  0.95790495  0.27898222  1.0
  C  C130  1  0.17361678  0.73331857  0.27282557  1.0
  C  C131  1  0.92227938  0.55340352  0.14733897  1.0
  C  C132  1  0.27423154  0.81058812  0.27284611  1.0
  C  C133  1  0.87830294  0.53118125  0.23381444  1.0
  C  C134  1  0.96996164  0.59060476  0.25028071  1.0
  C  C135  1  0.32916976  0.85216063  0.22848911  1.0
  C  C136  1  0.58019749  0.31566014  0.23663281  1.0
  C  C137  1  0.31844741  0.84925539  0.32053655  1.0
  C  C138  1  0.52987478  0.27566661  0.28676333  1.0
  C  C139  1  0.43086033  0.22464558  0.28692259  1.0
  C  C140  1  0.59246468  0.95827843  0.54629191  1.0
  C  C141  1  0.59794681  0.98418104  0.49356919  1.0
  C  C142  1  0.50666263  0.54875750  0.61232476  1.0
  C  C143  1  0.55969748  0.82637950  0.60616190  1.0
  C  C144  1  0.63112751  0.07772260  0.48067480  1.0
  C  C145  1  0.53635138  0.72576460  0.60618554  1.0
  C  C146  1  0.65287427  0.12169577  0.56714986  1.0
  C  C147  1  0.62064365  0.03004096  0.58361537  1.0
  C  C148  1  0.52298700  0.67082604  0.56182777  1.0
  C  C149  1  0.73546220  0.41980300  0.56996858  1.0
  C  C150  1  0.53080533  0.68155573  0.65387676  1.0
  C  C151  1  0.74579197  0.47012600  0.62010064  1.0
  C  C152  1  0.79378543  0.56914003  0.62025986  1.0
  C  C153  1  0.63418934  0.59246294  0.87962577  1.0
  C  C154  1  0.61376772  0.59794386  0.82690150  1.0
  C  C155  1  0.95790213  0.50666238  0.94565765  1.0
  C  C156  1  0.73331344  0.55969096  0.93949297  1.0
  C  C157  1  0.55340703  0.63112553  0.81400812  1.0
  C  C158  1  0.81058650  0.53635195  0.93951929  1.0
  C  C159  1  0.53118469  0.65287851  0.90048398  1.0
  C  C160  1  0.59060956  0.62064437  0.91694983  1.0
  C  C161  1  0.85216104  0.52298874  0.89516072  1.0
  C  C162  1  0.31566219  0.73546320  0.90330012  1.0
  C  C163  1  0.84925220  0.53080679  0.98720933  1.0
  C  C164  1  0.27566428  0.74578984  0.95343221  1.0
  C  C165  1  0.22464626  0.79378636  0.95359188  1.0
  C  C166  1  0.95827598  0.36581360  0.21295598  1.0
  C  C167  1  0.98417687  0.38623667  0.16023246  1.0
  C  C168  1  0.54875868  0.04209961  0.27898218  1.0
  C  C169  1  0.82638036  0.26668316  0.27282529  1.0
  C  C170  1  0.07771904  0.44659598  0.14733792  1.0
  C  C171  1  0.72576689  0.18941008  0.27284747  1.0
  C  C172  1  0.12169488  0.46881904  0.23381411  1.0
  C  C173  1  0.03003681  0.40939695  0.25028048  1.0
  C  C174  1  0.67083017  0.14783895  0.22848820  1.0
  C  C175  1  0.41980224  0.68434156  0.23663142  1.0
  C  C176  1  0.68155372  0.15074498  0.32053524  1.0
  C  C177  1  0.47012552  0.72433301  0.28676383  1.0
  C  C178  1  0.56913988  0.77535264  0.28692219  1.0
  C  C179  1  0.40753580  0.04172144  0.54628980  1.0
  C  C180  1  0.40205511  0.01581878  0.49356783  1.0
  C  C181  1  0.49334116  0.45124102  0.61232259  1.0
  C  C182  1  0.44030362  0.17361971  0.60615872  1.0
  C  C183  1  0.36887272  0.92227862  0.48067378  1.0
  C  C184  1  0.46364551  0.27423108  0.60618400  1.0
  C  C185  1  0.34712159  0.87830482  0.56714999  1.0
  C  C186  1  0.37935458  0.96995965  0.58361401  1.0
  C  C187  1  0.47701332  0.32917243  0.56182510  1.0
  C  C188  1  0.26453635  0.58019689  0.56996812  1.0
  C  C189  1  0.46919349  0.31844424  0.65387409  1.0
  C  C190  1  0.25420882  0.52987393  0.62009975  1.0
  C  C191  1  0.20621501  0.43085920  0.62025972  1.0
  C  C192  1  0.95827784  0.59246336  0.45370790  1.0
  C  C193  1  0.98418023  0.59794643  0.50643100  1.0
  C  C194  1  0.54876033  0.50666295  0.38767716  1.0
  C  C195  1  0.82638206  0.55969562  0.39383952  1.0
  C  C196  1  0.07772129  0.63112835  0.51932489  1.0
  C  C197  1  0.72576695  0.53635173  0.39381358  1.0
  C  C198  1  0.12169601  0.65287770  0.43285020  1.0
  C  C199  1  0.03004211  0.62064642  0.41638395  1.0
  C  C200  1  0.67082843  0.52298576  0.43817409  1.0
  C  C201  1  0.41980538  0.73546437  0.43003097  1.0
  C  C202  1  0.68155399  0.53080725  0.34612471  1.0
  C  C203  1  0.47012702  0.74579376  0.37989966  1.0
  C  C204  1  0.56914219  0.79378670  0.37974040  1.0
  C  C205  1  0.40753671  0.36581370  0.12037514  1.0
  C  C206  1  0.40205805  0.38623755  0.17309789  1.0
  C  C207  1  0.49333997  0.04209811  0.05434264  1.0
  C  C208  1  0.44030793  0.26668669  0.06050580  1.0
  C  C209  1  0.36887723  0.44660015  0.18599216  1.0
  C  C210  1  0.46364686  0.18941429  0.06048088  1.0
  C  C211  1  0.34712265  0.46881962  0.09951676  1.0
  C  C212  1  0.37935722  0.40939466  0.08304999  1.0
  C  C213  1  0.47701142  0.14784106  0.10483937  1.0
  C  C214  1  0.26453417  0.68433872  0.09669912  1.0
  C  C215  1  0.46919176  0.15074772  0.01279116  1.0
  C  C216  1  0.25420292  0.72433013  0.04656750  1.0
  C  C217  1  0.20620722  0.77534910  0.04640915  1.0
  C  C218  1  0.63418635  0.04172289  0.78704371  1.0
  C  C219  1  0.61376452  0.01582170  0.83976761  1.0
  C  C220  1  0.95790574  0.45124093  0.72101686  1.0
  C  C221  1  0.73331574  0.17362038  0.72717561  1.0
  C  C222  1  0.55340487  0.92228015  0.85266203  1.0
  C  C223  1  0.81058823  0.27423174  0.72715230  1.0
  C  C224  1  0.53117954  0.87830344  0.76618619  1.0
  C  C225  1  0.59060283  0.96996248  0.74971987  1.0
  C  C226  1  0.85216139  0.32916748  0.77151121  1.0
  C  C227  1  0.31565815  0.58019908  0.76336876  1.0
  C  C228  1  0.84925407  0.31844626  0.67946338  1.0
  C  C229  1  0.27566569  0.52987467  0.71323594  1.0
  C  C230  1  0.22464612  0.43086135  0.71307751  1.0
  C  C231  1  0.04172108  0.40753501  0.45370725  1.0
  C  C232  1  0.01581954  0.40205410  0.50643040  1.0
  C  C233  1  0.45124211  0.49333818  0.38767741  1.0
  C  C234  1  0.17362025  0.44030410  0.39383906  1.0
  C  C235  1  0.92227852  0.36887361  0.51932456  1.0
  C  C236  1  0.27423283  0.46364659  0.39381413  1.0
  C  C237  1  0.87830432  0.34712207  0.43284992  1.0
  C  C238  1  0.96996179  0.37935545  0.41638315  1.0
  C  C239  1  0.32917309  0.47701401  0.43817378  1.0
  C  C240  1  0.58019775  0.26453609  0.43003231  1.0
  C  C241  1  0.31844608  0.46919243  0.34612441  1.0
  C  C242  1  0.52987483  0.25420736  0.37990030  1.0
  C  C243  1  0.43085983  0.20621231  0.37974194  1.0
  C  C244  1  0.59246612  0.63419071  0.12037492  1.0
  C  C245  1  0.59794457  0.61376691  0.17309803  1.0
  C  C246  1  0.50666401  0.95790554  0.05434296  1.0
  C  C247  1  0.55969418  0.73331696  0.06050653  1.0
  C  C248  1  0.63112482  0.55340574  0.18599220  1.0
  C  C249  1  0.53635332  0.81058795  0.06048097  1.0
  C  C250  1  0.65287571  0.53118055  0.09951750  1.0
  C  C251  1  0.62064375  0.59060690  0.08305009  1.0
  C  C252  1  0.52298965  0.85216334  0.10483993  1.0
  C  C253  1  0.73546429  0.31566285  0.09669907  1.0
  C  C254  1  0.53080975  0.84925307  0.01279209  1.0
  C  C255  1  0.74579469  0.27566928  0.04656854  1.0
  C  C256  1  0.79378662  0.22464889  0.04641005  1.0
  C  C257  1  0.36581464  0.95827649  0.78704352  1.0
  C  C258  1  0.38623529  0.98417702  0.83976664  1.0
  C  C259  1  0.04209857  0.54875839  0.72101561  1.0
  C  C260  1  0.26668118  0.82637400  0.72717466  1.0
  C  C261  1  0.44659620  0.07771999  0.85266183  1.0
  C  C262  1  0.18941255  0.72576547  0.72715293  1.0
  C  C263  1  0.46882030  0.12169591  0.76618717  1.0
  C  C264  1  0.40939612  0.03003616  0.74972008  1.0
  C  C265  1  0.14783912  0.67082836  0.77151107  1.0
  C  C266  1  0.68434174  0.41980523  0.76336931  1.0
  C  C267  1  0.15074761  0.68155232  0.67946325  1.0
  C  C268  1  0.72433412  0.47012535  0.71323687  1.0
  C  C269  1  0.77535150  0.56913796  0.71307846  1.0
  C  C270  1  0.71038065  0.28962254  0.00000029  1.0
  C  C271  1  0.80924585  0.19074893  0.00000091  1.0
  C  C272  1  0.57924000  0.28962061  0.33333333  1.0
  C  C273  1  0.38150034  0.19075133  0.33333333  1.0
  C  C274  1  0.71038031  0.42076018  0.66666667  1.0
  C  C275  1  0.80924767  0.61849743  0.66666667  1.0
  C  C276  1  0.28961557  0.71037612  0.99999994  1.0
  C  C277  1  0.19074896  0.80924691  0.00000047  1.0
  C  C278  1  0.42076118  0.71038118  0.33333333  1.0
  C  C279  1  0.61849882  0.80924764  0.33333333  1.0
  C  C280  1  0.28961968  0.57923979  0.66666667  1.0
  C  C281  1  0.19074988  0.38150255  0.66666667  1.0
  N  N282  1  0.48772833  0.34111416  0.85005107  1.0
  N  N283  1  0.30374312  0.43946009  0.89141006  1.0
  N  N284  1  0.07545720  0.49232209  0.89815882  1.0
  N  N285  1  0.07731596  0.48343900  0.99107641  1.0
  N  N286  1  0.85338774  0.51227429  0.18338070  1.0
  N  N287  1  0.13571401  0.69625359  0.22474217  1.0
  N  N288  1  0.41685820  0.92454216  0.23148358  1.0
  N  N289  1  0.40612349  0.92268440  0.32440197  1.0
  N  N290  1  0.65888517  0.14661302  0.51671767  1.0
  N  N291  1  0.56053687  0.86428160  0.55807656  1.0
  N  N292  1  0.50767692  0.58313386  0.56482574  1.0
  N  N293  1  0.51655826  0.59387697  0.65774295  1.0
  N  N294  1  0.51227835  0.65888740  0.85004986  1.0
  N  N295  1  0.69625314  0.56053444  0.89141037  1.0
  N  N296  1  0.92454063  0.50767809  0.89815981  1.0
  N  N297  1  0.92268166  0.51655916  0.99107664  1.0
  N  N298  1  0.14661054  0.48772524  0.18337996  1.0
  N  N299  1  0.86428490  0.30374880  0.22474187  1.0
  N  N300  1  0.58313760  0.07545530  0.23148352  1.0
  N  N301  1  0.59386959  0.07731456  0.32440267  1.0
  N  N302  1  0.34111019  0.85338612  0.51671623  1.0
  N  N303  1  0.43946565  0.13571757  0.55807567  1.0
  N  N304  1  0.49232689  0.41686673  0.56482470  1.0
  N  N305  1  0.48344325  0.40612230  0.65774114  1.0
  N  N306  1  0.14661344  0.65888734  0.48328277  1.0
  N  N307  1  0.86428400  0.56053419  0.44192213  1.0
  N  N308  1  0.58313420  0.50767444  0.43517500  1.0
  N  N309  1  0.59387737  0.51656178  0.34225739  1.0
  N  N310  1  0.34111453  0.48772729  0.14994975  1.0
  N  N311  1  0.43946651  0.30375099  0.10858924  1.0
  N  N312  1  0.49232334  0.07546092  0.10184053  1.0
  N  N313  1  0.48344079  0.07732009  0.00892371  1.0
  N  N314  1  0.51227378  0.85338903  0.81662033  1.0
  N  N315  1  0.69625082  0.13571548  0.77525787  1.0
  N  N316  1  0.92454747  0.41686034  0.76851513  1.0
  N  N317  1  0.92268573  0.40612500  0.67559714  1.0
  N  N318  1  0.85338633  0.34111177  0.48328253  1.0
  N  N319  1  0.13571671  0.43946276  0.44192251  1.0
  N  N320  1  0.41686428  0.49232532  0.43517493  1.0
  N  N321  1  0.40612377  0.48344002  0.34225772  1.0
  N  N322  1  0.65888565  0.51227574  0.14995007  1.0
  N  N323  1  0.56053734  0.69625413  0.10858993  1.0
  N  N324  1  0.50767809  0.92454419  0.10184120  1.0
  N  N325  1  0.51656321  0.92268564  0.00892398  1.0
  N  N326  1  0.48772779  0.14661179  0.81661975  1.0
  N  N327  1  0.30374697  0.86428107  0.77525884  1.0
  N  N328  1  0.07545655  0.58313761  0.76851463  1.0
  N  N329  1  0.07731850  0.59387498  0.67559743  1.0
  O  O330  1  0.62606931  0.29614927  0.90497643  1.0
  O  O331  1  0.70661174  0.24077306  0.86145146  1.0
  O  O332  1  0.29168706  0.41988899  0.98047618  1.0
  O  O333  1  0.67007834  0.37392534  0.23830786  1.0
  O  O334  1  0.53416154  0.29338698  0.19478230  1.0
  O  O335  1  0.12820540  0.70832158  0.31380909  1.0
  O  O336  1  0.70384955  0.32992198  0.57164403  1.0
  O  O337  1  0.75922525  0.46583862  0.52811920  1.0
  O  O338  1  0.58010980  0.87179754  0.64714267  1.0
  O  O339  1  0.37393094  0.70385092  0.90497476  1.0
  O  O340  1  0.29339376  0.75922992  0.86145000  1.0
  O  O341  1  0.70831196  0.58010209  0.98047727  1.0
  O  O342  1  0.32992033  0.62607425  0.23830656  1.0
  O  O343  1  0.46583714  0.70661468  0.19478123  1.0
  O  O344  1  0.87179292  0.29168654  0.31380798  1.0
  O  O345  1  0.29614873  0.67007861  0.57164091  1.0
  O  O346  1  0.24077006  0.53416053  0.52811718  1.0
  O  O347  1  0.41989194  0.12820454  0.64714142  1.0
  O  O348  1  0.32992280  0.70385141  0.42835711  1.0
  O  O349  1  0.46584496  0.75922898  0.47188110  1.0
  O  O350  1  0.87179666  0.58010952  0.35285562  1.0
  O  O351  1  0.29615071  0.62607278  0.09502358  1.0
  O  O352  1  0.24076740  0.70660554  0.13854854  1.0
  O  O353  1  0.41989655  0.29168936  0.01952196  1.0
  O  O354  1  0.37392665  0.67007797  0.76169211  1.0
  O  O355  1  0.29338094  0.53416064  0.80521736  1.0
  O  O356  1  0.70831113  0.12820659  0.68619134  1.0
  O  O357  1  0.67007956  0.29615116  0.42835870  1.0
  O  O358  1  0.53416087  0.24076870  0.47188288  1.0
  O  O359  1  0.12820646  0.41989511  0.35285599  1.0
  O  O360  1  0.70385021  0.37392879  0.09502249  1.0
  O  O361  1  0.75923019  0.29339466  0.13854764  1.0
  O  O362  1  0.58011062  0.70831426  0.01952301  1.0
  O  O363  1  0.62607409  0.32992068  0.76169422  1.0
  O  O364  1  0.70661385  0.46583875  0.80521870  1.0
  O  O365  1  0.29168953  0.87178634  0.68619040  1.0
