# generated using pymatgen
data_Zn2H29C39N8
_symmetry_space_group_name_H-M   'P 1'
_cell_length_a   19.65637677
_cell_length_b   19.70694326
_cell_length_c   19.88292367
_cell_angle_alpha   103.58158962
_cell_angle_beta   111.39038143
_cell_angle_gamma   111.82920474
_symmetry_Int_Tables_number   1
_chemical_formula_structural   Zn2H29C39N8
_chemical_formula_sum   'Zn4 H58 C78 N16'
_cell_volume   6014.82490057
_cell_formula_units_Z   2
loop_
 _symmetry_equiv_pos_site_id
 _symmetry_equiv_pos_as_xyz
  1  'x, y, z'
loop_
 _atom_site_type_symbol
 _atom_site_label
 _atom_site_symmetry_multiplicity
 _atom_site_fract_x
 _atom_site_fract_y
 _atom_site_fract_z
 _atom_site_occupancy
  Zn  Zn0  1  0.60839324  0.10741879  0.99759186  1.0
  Zn  Zn1  1  0.39861521  0.90176874  0.00099536  1.0
  Zn  Zn2  1  0.60457653  0.99581752  0.09611075  1.0
  Zn  Zn3  1  0.40016826  0.00731389  0.89424758  1.0
  H  H4  1  0.80412337  0.15726421  0.01346447  1.0
  H  H5  1  0.41421905  0.01805722  0.14999138  1.0
  H  H6  1  0.42062975  0.73690902  0.39446343  1.0
  H  H7  1  0.58381624  0.01665077  0.59927261  1.0
  H  H8  1  0.64536120  0.94118515  0.51583768  1.0
  H  H9  1  0.35902424  0.81230105  0.47777848  1.0
  H  H10  1  0.63510189  0.50237897  0.92243126  1.0
  H  H11  1  0.36331352  0.48288628  0.75321964  1.0
  H  H12  1  0.06965334  0.18364689  0.04309549  1.0
  H  H13  1  0.20308974  0.05745502  0.19478499  1.0
  H  H14  1  0.20758917  0.20059327  0.06053038  1.0
  H  H15  1  0.06520896  0.04065383  0.17729075  1.0
  H  H16  1  0.35600549  0.73677409  0.86044413  1.0
  H  H17  1  0.63972815  0.26797699  0.95122573  1.0
  H  H18  1  0.78885302  0.99528959  0.12876675  1.0
  H  H19  1  0.39846947  0.15036455  0.00399419  1.0
  H  H20  1  0.57184540  0.80220994  0.54083047  1.0
  H  H21  1  0.43262740  0.95135246  0.45266937  1.0
  H  H22  1  0.96816472  0.50795092  0.65133598  1.0
  H  H23  1  0.88546046  0.52602151  0.39082632  1.0
  H  H24  1  0.87817662  0.38264560  0.52487954  1.0
  H  H25  1  0.97514450  0.65123180  0.51732745  1.0
  H  H26  1  0.63087894  0.62699473  0.92425159  1.0
  H  H27  1  0.36761841  0.35829126  0.75122670  1.0
  H  H28  1  0.09061792  0.63249953  0.93713905  1.0
  H  H29  1  0.19224291  0.69461681  0.02410623  1.0
  H  H30  1  0.10590842  0.70644356  0.02078204  1.0
  H  H31  1  0.19937617  0.81760881  0.99975165  1.0
  H  H32  1  0.09879044  0.75510099  0.91321108  1.0
  H  H33  1  0.15504722  0.67805301  0.85270956  1.0
  H  H34  1  0.25625021  0.74119567  0.93939550  1.0
  H  H35  1  0.79954556  0.47070654  0.18528152  1.0
  H  H36  1  0.70346978  0.42967329  0.09495490  1.0
  H  H37  1  0.72081899  0.49423885  0.18589015  1.0
  H  H38  1  0.62329175  0.34902674  0.15121428  1.0
  H  H39  1  0.72003621  0.39030948  0.23975322  1.0
  H  H40  1  0.77261277  0.33177455  0.15386281  1.0
  H  H41  1  0.66839694  0.27998001  0.07186319  1.0
  H  H42  1  0.63086170  0.86771541  0.98842293  1.0
  H  H43  1  0.36570381  0.13399915  0.81706047  1.0
  H  H44  1  0.36982635  0.87193417  0.73732831  1.0
  H  H45  1  0.63032682  0.95500815  0.25928364  1.0
  H  H46  1  0.64399672  0.00800643  0.87680316  1.0
  H  H47  1  0.35723545  0.83997674  0.13252360  1.0
  H  H48  1  0.10493964  0.85932351  0.56165531  1.0
  H  H49  1  0.21420681  0.92347359  0.59755562  1.0
  H  H50  1  0.16070544  0.82124823  0.52710043  1.0
  H  H51  1  0.24862224  0.83594655  0.66327118  1.0
  H  H52  1  0.14065966  0.77323479  0.62850985  1.0
  H  H53  1  0.13744208  0.89140026  0.70676656  1.0
  H  H54  1  0.24691126  0.95383249  0.74470187  1.0
  H  H55  1  0.85250076  0.13872086  0.42324993  1.0
  H  H56  1  0.80770291  0.04747666  0.33886064  1.0
  H  H57  1  0.91248020  0.12632266  0.37777308  1.0
  H  H58  1  0.81261137  0.12370946  0.25327946  1.0
  H  H59  1  0.85870999  0.21503089  0.33637950  1.0
  H  H60  1  0.72998058  0.16804905  0.34784935  1.0
  H  H61  1  0.68266103  0.07063758  0.27218824  1.0
  C  C62  1  0.78678837  0.11611115  0.04004899  1.0
  C  C63  1  0.41580860  0.04400644  0.10769788  1.0
  C  C64  1  0.16836296  0.79123302  0.78963986  1.0
  C  C65  1  0.72253056  0.24302564  0.24039956  1.0
  C  C66  1  0.49307039  0.77095584  0.90630837  1.0
  C  C67  1  0.50309844  0.22929442  0.87453178  1.0
  C  C68  1  0.50850328  0.92498536  0.77625919  1.0
  C  C69  1  0.49342515  0.89198018  0.22550344  1.0
  C  C70  1  0.45690925  0.79903450  0.44065754  1.0
  C  C71  1  0.54758372  0.95462016  0.55288137  1.0
  C  C72  1  0.54085291  0.83537971  0.52098519  1.0
  C  C73  1  0.46352615  0.91823181  0.47293582  1.0
  C  C74  1  0.51069385  0.89840846  0.70519138  1.0
  C  C75  1  0.49309989  0.88215207  0.29329857  1.0
  C  C76  1  0.42257507  0.84096432  0.48552459  1.0
  C  C77  1  0.58183986  0.91257494  0.50816354  1.0
  C  C78  1  0.50659118  0.87747552  0.56780642  1.0
  C  C79  1  0.49784305  0.87626595  0.42600154  1.0
  C  C80  1  0.50963831  0.88319047  0.64145458  1.0
  C  C81  1  0.49466662  0.87769566  0.35403398  1.0
  C  C82  1  0.89949542  0.44153323  0.52332690  1.0
  C  C83  1  0.95353524  0.59223834  0.51871447  1.0
  C  C84  1  0.21747901  0.79799888  0.86606749  1.0
  C  C85  1  0.68509706  0.23730441  0.16204204  1.0
  C  C86  1  0.87564611  0.44507392  0.44852502  1.0
  C  C87  1  0.97861258  0.58858534  0.59347852  1.0
  C  C88  1  0.90351120  0.52217271  0.44795506  1.0
  C  C89  1  0.94959120  0.51162103  0.59411085  1.0
  C  C90  1  0.82458126  0.37383260  0.37623320  1.0
  C  C91  1  0.03620049  0.66019824  0.66521296  1.0
  C  C92  1  0.09413007  0.72222420  0.72485284  1.0
  C  C93  1  0.77812319  0.31302649  0.31275015  1.0
  C  C94  1  0.57343979  0.56794992  0.88608259  1.0
  C  C95  1  0.42525311  0.41728871  0.78890045  1.0
  C  C96  1  0.49641492  0.56417762  0.84054945  1.0
  C  C97  1  0.50124663  0.42152915  0.83812014  1.0
  C  C98  1  0.42287215  0.48704229  0.79000664  1.0
  C  C99  1  0.57580378  0.49833017  0.88505991  1.0
  C  C100  1  0.49331843  0.63635806  0.85170329  1.0
  C  C101  1  0.50226916  0.35189534  0.84450051  1.0
  C  C102  1  0.50329479  0.29408270  0.85635304  1.0
  C  C103  1  0.49281663  0.69964366  0.87243479  1.0
  C  C104  1  0.17653920  0.16619476  0.08658690  1.0
  C  C105  1  0.09692332  0.07595332  0.15219218  1.0
  C  C106  1  0.56401121  0.84720652  0.96505693  1.0
  C  C107  1  0.43268107  0.15591357  0.85362071  1.0
  C  C108  1  0.21503364  0.12999287  0.12862859  1.0
  C  C109  1  0.05764267  0.11070390  0.10867089  1.0
  C  C110  1  0.17405189  0.08558351  0.16214258  1.0
  C  C111  1  0.09948057  0.15656892  0.07665756  1.0
  C  C112  1  0.28858158  0.13247184  0.13060335  1.0
  C  C113  1  0.97831733  0.09970363  0.09690639  1.0
  C  C114  1  0.90967729  0.09063560  0.08627486  1.0
  C  C115  1  0.34410799  0.12527528  0.12134603  1.0
  C  C116  1  0.43604805  0.91170156  0.78278769  1.0
  C  C117  1  0.56411926  0.93014359  0.21677459  1.0
  C  C118  1  0.42322811  0.78016122  0.89926191  1.0
  C  C119  1  0.57277034  0.22427131  0.92264110  1.0
  C  C120  1  0.57636027  0.98139619  0.85393404  1.0
  C  C121  1  0.42445281  0.87076464  0.15230897  1.0
  C  C122  1  0.21681733  0.86510884  0.78909582  1.0
  C  C123  1  0.69273010  0.16211818  0.23059721  1.0
  C  C124  1  0.77887734  0.03313563  0.09885143  1.0
  C  C125  1  0.40779807  0.11169410  0.03295761  1.0
  C  C126  1  0.83131421  0.08047897  0.07539124  1.0
  C  C127  1  0.39194449  0.10095585  0.09454398  1.0
  C  C128  1  0.19773531  0.73956188  0.90148474  1.0
  C  C129  1  0.15643969  0.75587618  0.95120279  1.0
  C  C130  1  0.13515341  0.69413567  0.98529274  1.0
  C  C131  1  0.70516842  0.30471800  0.13723383  1.0
  C  C132  1  0.69156703  0.37243054  0.17502505  1.0
  C  C133  1  0.73076404  0.44575299  0.15940122  1.0
  C  C134  1  0.19718361  0.89088544  0.72295537  1.0
  C  C135  1  0.18879290  0.83580814  0.64777189  1.0
  C  C136  1  0.16595215  0.86139603  0.57982521  1.0
  C  C137  1  0.72625760  0.13491927  0.29247209  1.0
  C  C138  1  0.81505461  0.14944235  0.31018581  1.0
  C  C139  1  0.84872919  0.11363525  0.36556446  1.0
  N  N140  1  0.71479393  0.09210724  0.04289400  1.0
  N  N141  1  0.44014847  0.02063533  0.05553134  1.0
  N  N142  1  0.28955645  0.87011490  0.90722117  1.0
  N  N143  1  0.63391222  0.15831903  0.11021232  1.0
  N  N144  1  0.53752157  0.89609791  0.99129187  1.0
  N  N145  1  0.45884953  0.11210986  0.88700567  1.0
  N  N146  1  0.45959064  0.95820620  0.85752738  1.0
  N  N147  1  0.53950554  0.93264551  0.14520853  1.0
  N  N148  1  0.45139037  0.85496829  0.95095379  1.0
  N  N149  1  0.54594891  0.15454522  0.93035792  1.0
  N  N150  1  0.54565112  0.00096272  0.90127130  1.0
  N  N151  1  0.45256003  0.89499833  0.10513281  1.0
  N  N152  1  0.28929576  0.91138723  0.85986626  1.0
  N  N153  1  0.63855452  0.11228073  0.15244208  1.0
  N  N154  1  0.70988822  0.04055016  0.07933623  1.0
  N  N155  1  0.43520440  0.06232919  0.00971315  1.0
