# generated using pymatgen
data_ZnH17(C7O2)3
_symmetry_space_group_name_H-M   'P 1'
_cell_length_a   7.87006074
_cell_length_b   17.74699408
_cell_length_c   34.80526667
_cell_angle_alpha   90.06996210
_cell_angle_beta   90.14857172
_cell_angle_gamma   89.07022084
_symmetry_Int_Tables_number   1
_chemical_formula_structural   ZnH17(C7O2)3
_chemical_formula_sum   'Zn4 H68 C84 O24'
_cell_volume   4860.58907544
_cell_formula_units_Z   4
loop_
 _symmetry_equiv_pos_site_id
 _symmetry_equiv_pos_as_xyz
  1  'x, y, z'
loop_
 _atom_site_type_symbol
 _atom_site_label
 _atom_site_symmetry_multiplicity
 _atom_site_fract_x
 _atom_site_fract_y
 _atom_site_fract_z
 _atom_site_occupancy
  Zn  Zn0  1  0.40942683  0.00240028  0.49984788  1.0
  Zn  Zn1  1  0.75026446  0.99948552  0.50080993  1.0
  Zn  Zn2  1  0.68067467  0.99556492  0.99988825  1.0
  Zn  Zn3  1  0.33962445  0.99974520  0.00036390  1.0
  H  H4  1  0.58487143  0.09228784  0.24751950  1.0
  H  H5  1  0.53293268  0.92219614  0.25250355  1.0
  H  H6  1  0.55222961  0.07479328  0.75164159  1.0
  H  H7  1  0.51664849  0.90370543  0.74829435  1.0
  H  H8  1  0.38137314  0.75987819  0.49863707  1.0
  H  H9  1  0.39402872  0.62189477  0.50063404  1.0
  H  H10  1  0.92793455  0.76706020  0.50469405  1.0
  H  H11  1  0.39004352  0.23588071  0.50318794  1.0
  H  H12  1  0.93745262  0.23662642  0.50029661  1.0
  H  H13  1  0.93190818  0.37483148  0.50142338  1.0
  H  H14  1  0.70645939  0.75506955  0.99904281  1.0
  H  H15  1  0.69502897  0.61744216  0.99757495  1.0
  H  H16  1  0.15923238  0.76904493  0.99524984  1.0
  H  H17  1  0.70191329  0.23031426  0.99859534  1.0
  H  H18  1  0.15429926  0.23981392  0.99982951  1.0
  H  H19  1  0.16097963  0.37763876  0.99847277  1.0
  H  H20  1  0.92436778  0.91606199  0.11492130  1.0
  H  H21  1  0.74331494  0.88349366  0.09045659  1.0
  H  H22  1  0.79360522  0.84825626  0.13684934  1.0
  H  H23  1  0.76788400  0.86355318  0.20429722  1.0
  H  H24  1  0.83253322  0.94486958  0.22938991  1.0
  H  H25  1  0.93610382  0.91748711  0.18609541  1.0
  H  H26  1  0.24007622  0.09592876  0.10375335  1.0
  H  H27  1  0.42266992  0.12802090  0.08005995  1.0
  H  H28  1  0.35312352  0.17320139  0.12272146  1.0
  H  H29  1  0.39459561  0.18519378  0.18817157  1.0
  H  H30  1  0.33841464  0.11523192  0.22206251  1.0
  H  H31  1  0.22569766  0.12367286  0.17824882  1.0
  H  H32  1  0.79084756  0.12929730  0.30122355  1.0
  H  H33  1  0.83833738  0.04199472  0.27893794  1.0
  H  H34  1  0.92428071  0.06318631  0.32488840  1.0
  H  H35  1  0.87820214  0.06752058  0.39468580  1.0
  H  H36  1  0.70007673  0.11591427  0.41362388  1.0
  H  H37  1  0.78546845  0.14372424  0.36885313  1.0
  H  H38  1  0.31073051  0.85105245  0.29756769  1.0
  H  H39  1  0.25994269  0.93573167  0.27284418  1.0
  H  H40  1  0.15190459  0.91309583  0.31572012  1.0
  H  H41  1  0.14550918  0.93969834  0.38871825  1.0
  H  H42  1  0.30942649  0.89249432  0.41396126  1.0
  H  H43  1  0.24126770  0.85728745  0.36891679  1.0
  H  H44  1  0.94401383  0.06615389  0.88709858  1.0
  H  H45  1  0.77998297  0.10874205  0.91418129  1.0
  H  H46  1  0.83727884  0.14749797  0.86917014  1.0
  H  H47  1  0.77594159  0.15345084  0.80095171  1.0
  H  H48  1  0.81766875  0.07289475  0.77201566  1.0
  H  H49  1  0.93555984  0.08751932  0.81464070  1.0
  H  H50  1  0.21992613  0.92698175  0.89415118  1.0
  H  H51  1  0.40197537  0.88214077  0.91356418  1.0
  H  H52  1  0.31970799  0.85185259  0.86880753  1.0
  H  H53  1  0.31470987  0.86441460  0.80121188  1.0
  H  H54  1  0.25917656  0.95022134  0.77837911  1.0
  H  H55  1  0.17515514  0.92865793  0.82433598  1.0
  H  H56  1  0.70331725  0.85244647  0.72014470  1.0
  H  H57  1  0.86666332  0.89788956  0.69516770  1.0
  H  H58  1  0.76773919  0.81911183  0.67436578  1.0
  H  H59  1  0.85965957  0.89259600  0.61039386  1.0
  H  H60  1  0.69110948  0.87806196  0.57798856  1.0
  H  H61  1  0.71586485  0.81877009  0.61850461  1.0
  H  H62  1  0.31140659  0.12755618  0.70473992  1.0
  H  H63  1  0.25373257  0.04511592  0.72957181  1.0
  H  H64  1  0.14729819  0.07113234  0.68632019  1.0
  H  H65  1  0.16047990  0.07355945  0.61395192  1.0
  H  H66  1  0.34103000  0.11094152  0.59153757  1.0
  H  H67  1  0.28169271  0.14242020  0.63805677  1.0
  H  H68  1  0.90705677  0.52501223  0.51843848  1.0
  H  H69  1  0.42016225  0.47845583  0.51213830  1.0
  H  H70  1  0.17906729  0.52536984  0.98594408  1.0
  H  H71  1  0.67572367  0.47392750  0.99170674  1.0
  C  C72  1  0.64694821  0.85688968  0.49988092  1.0
  C  C73  1  0.50994691  0.00295419  0.42781217  1.0
  C  C74  1  0.65969509  0.14267610  0.50126481  1.0
  C  C75  1  0.50995963  0.99441318  0.57260655  1.0
  C  C76  1  0.44068383  0.85544513  0.99891529  1.0
  C  C77  1  0.57887578  0.00164471  0.07245962  1.0
  C  C78  1  0.43129252  0.14135688  0.99972647  1.0
  C  C79  1  0.58151218  0.99809483  0.92763673  1.0
  C  C80  1  0.58189288  0.00945548  0.11516399  1.0
  C  C81  1  0.47654838  0.06515853  0.13226542  1.0
  C  C82  1  0.47425158  0.07118200  0.17247968  1.0
  C  C83  1  0.58102470  0.02391242  0.19511723  1.0
  C  C84  1  0.68895949  0.96945316  0.17756563  1.0
  C  C85  1  0.68615912  0.96094479  0.13727680  1.0
  C  C86  1  0.57623620  0.03426630  0.23714023  1.0
  C  C87  1  0.55277110  0.97939879  0.26318915  1.0
  C  C88  1  0.40812155  0.95282248  0.32446314  1.0
  C  C89  1  0.54124456  0.98967843  0.30508421  1.0
  C  C90  1  0.65929902  0.03340114  0.32581580  1.0
  C  C91  1  0.64046786  0.04183999  0.36581886  1.0
  C  C92  1  0.51294651  0.00135699  0.38499631  1.0
  C  C93  1  0.39712905  0.95592351  0.36473454  1.0
  C  C94  1  0.57906531  0.99915530  0.88480862  1.0
  C  C95  1  0.45546340  0.95617590  0.86554980  1.0
  C  C96  1  0.43685246  0.96333346  0.82548064  1.0
  C  C97  1  0.55109778  0.00877116  0.80474206  1.0
  C  C98  1  0.68012760  0.04842807  0.82425798  1.0
  C  C99  1  0.69128047  0.04594863  0.86456667  1.0
  C  C100  1  0.53857692  0.01758561  0.76275829  1.0
  C  C101  1  0.51895798  0.96130975  0.73721555  1.0
  C  C102  1  0.39787932  0.02287750  0.67770309  1.0
  C  C103  1  0.50967952  0.96973186  0.69518315  1.0
  C  C104  1  0.61693977  0.92292756  0.67244343  1.0
  C  C105  1  0.61410029  0.92931352  0.63216772  1.0
  C  C106  1  0.50665939  0.98460418  0.61521998  1.0
  C  C107  1  0.39971789  0.03172645  0.63747968  1.0
  C  C108  1  0.65433746  0.77278098  0.50092968  1.0
  C  C109  1  0.50445483  0.73107577  0.50008164  1.0
  C  C110  1  0.51235052  0.65290894  0.50128559  1.0
  C  C111  1  0.67036461  0.61436413  0.50390405  1.0
  C  C112  1  0.82220134  0.65676682  0.50553585  1.0
  C  C113  1  0.81100214  0.73521917  0.50361959  1.0
  C  C114  1  0.66954734  0.53441594  0.50441948  1.0
  C  C115  1  0.66092756  0.46533790  0.50410543  1.0
  C  C116  1  0.65613899  0.38546544  0.50343030  1.0
  C  C117  1  0.50150351  0.34491658  0.50393346  1.0
  C  C118  1  0.50884297  0.26642772  0.50296305  1.0
  C  C119  1  0.66349589  0.22678576  0.50183379  1.0
  C  C120  1  0.81578148  0.26669688  0.50127487  1.0
  C  C121  1  0.81197920  0.34502603  0.50194733  1.0
  C  C122  1  0.43314512  0.77144528  0.99761987  1.0
  C  C123  1  0.58350385  0.72790119  0.99802785  1.0
  C  C124  1  0.57628239  0.64984679  0.99714270  1.0
  C  C125  1  0.41851289  0.61313304  0.99552280  1.0
  C  C126  1  0.26597824  0.65736805  0.99449900  1.0
  C  C127  1  0.27664491  0.73579121  0.99580394  1.0
  C  C128  1  0.42098503  0.53317153  0.99548468  1.0
  C  C129  1  0.43182272  0.46403268  0.99622417  1.0
  C  C130  1  0.43698917  0.38411471  0.99727381  1.0
  C  C131  1  0.59145053  0.34115229  0.99744005  1.0
  C  C132  1  0.58338597  0.26276030  0.99840168  1.0
  C  C133  1  0.42841106  0.22555852  0.99904778  1.0
  C  C134  1  0.27635377  0.26781468  0.99913108  1.0
  C  C135  1  0.28082556  0.34605251  0.99831847  1.0
  C  C136  1  0.79158450  0.89902730  0.11886532  1.0
  C  C137  1  0.81251172  0.92163474  0.20061263  1.0
  C  C138  1  0.36811959  0.11834614  0.10848746  1.0
  C  C139  1  0.35270575  0.12655001  0.19132248  1.0
  C  C140  1  0.81057837  0.06861323  0.30666556  1.0
  C  C141  1  0.75639847  0.09493488  0.38688458  1.0
  C  C142  1  0.27619451  0.91105604  0.30152856  1.0
  C  C143  1  0.26710208  0.90889240  0.38512569  1.0
  C  C144  1  0.81896874  0.09467703  0.88484489  1.0
  C  C145  1  0.80839352  0.09277297  0.80177233  1.0
  C  C146  1  0.34407487  0.90155363  0.88665660  1.0
  C  C147  1  0.28926498  0.92486384  0.80628816  1.0
  C  C148  1  0.74341099  0.87003470  0.69145081  1.0
  C  C149  1  0.72493229  0.87718149  0.60840334  1.0
  C  C150  1  0.27138179  0.06880422  0.70085495  1.0
  C  C151  1  0.29081078  0.09280950  0.61928456  1.0
  C  C152  1  0.99810436  0.62450504  0.51004239  1.0
  C  C153  1  0.32630663  0.37904824  0.50544599  1.0
  C  C154  1  0.08961267  0.62727133  0.99176065  1.0
  C  C155  1  0.76726963  0.37232615  0.99670189  1.0
  O  O156  1  0.50182492  0.88878347  0.49853462  1.0
  O  O157  1  0.79051060  0.89114928  0.50100640  1.0
  O  O158  1  0.65160828  0.99687013  0.44531257  1.0
  O  O159  1  0.36531737  0.00919671  0.44528036  1.0
  O  O160  1  0.80325587  0.10638844  0.50027962  1.0
  O  O161  1  0.51505780  0.11218210  0.50171338  1.0
  O  O162  1  0.36655460  0.99510909  0.55433479  1.0
  O  O163  1  0.65348048  0.00150378  0.55644614  1.0
  O  O164  1  0.58629626  0.88488563  0.00030560  1.0
  O  O165  1  0.29766829  0.89213123  0.99835595  1.0
  O  O166  1  0.43528753  0.99572661  0.05602745  1.0
  O  O167  1  0.72246853  0.00185676  0.05445865  1.0
  O  O168  1  0.28719314  0.10754167  0.00036908  1.0
  O  O169  1  0.57549341  0.10839148  0.99989840  1.0
  O  O170  1  0.72615416  0.99324156  0.94537009  1.0
  O  O171  1  0.43943437  0.00279124  0.94485694  1.0
  O  O172  1  0.01709188  0.55083478  0.51857767  1.0
  O  O173  1  0.12410607  0.66362514  0.50710433  1.0
  O  O174  1  0.30870128  0.45392613  0.51063946  1.0
  O  O175  1  0.19932588  0.34048264  0.50244214  1.0
  O  O176  1  0.06904864  0.55279471  0.98607048  1.0
  O  O177  1  0.96398108  0.66857729  0.99397454  1.0
  O  O178  1  0.78660606  0.44731897  0.99312128  1.0
  O  O179  1  0.89364069  0.33146253  0.99907346  1.0
