# generated using pymatgen
data_AlH12(C7O3)3
_symmetry_space_group_name_H-M   'P 1'
_cell_length_a   4.00898136
_cell_length_b   24.62026429
_cell_length_c   24.62002197
_cell_angle_alpha   120.00151504
_cell_angle_beta   90.00061066
_cell_angle_gamma   89.99895153
_symmetry_Int_Tables_number   1
_chemical_formula_structural   AlH12(C7O3)3
_chemical_formula_sum   'Al2 H24 C42 O18'
_cell_volume   2104.45277749
_cell_formula_units_Z   2
loop_
 _symmetry_equiv_pos_site_id
 _symmetry_equiv_pos_as_xyz
  1  'x, y, z'
loop_
 _atom_site_type_symbol
 _atom_site_label
 _atom_site_symmetry_multiplicity
 _atom_site_fract_x
 _atom_site_fract_y
 _atom_site_fract_z
 _atom_site_occupancy
  Al  Al0  1  0.01954315  0.49999990  0.00000084  1.0
  Al  Al1  1  0.01919892  0.83333379  0.66668020  1.0
  H  H2  1  0.24428263  0.65863613  0.17255269  1.0
  H  H3  1  0.24372321  0.67441104  0.49420815  1.0
  H  H4  1  0.82177207  0.82080219  0.49335360  1.0
  H  H5  1  0.81383946  0.76203476  0.37628629  1.0
  H  H6  1  0.82222567  0.51218618  0.17327849  1.0
  H  H7  1  0.81380002  0.57083992  0.29034908  1.0
  H  H8  1  0.24425529  0.51392244  0.84137379  1.0
  H  H9  1  0.24366900  0.81978706  0.82558203  1.0
  H  H10  1  0.82181695  0.67254285  0.67920280  1.0
  H  H11  1  0.81392230  0.61424814  0.73797272  1.0
  H  H12  1  0.82221648  0.66109382  0.98781797  1.0
  H  H13  1  0.81383018  0.71950857  0.92916623  1.0
  H  H14  1  0.24425531  0.32745250  0.98608132  1.0
  H  H15  1  0.24368488  0.00578906  0.68020636  1.0
  H  H16  1  0.82180393  0.00666513  0.82745642  1.0
  H  H17  1  0.81383462  0.12373166  0.88574302  1.0
  H  H18  1  0.82221546  0.32672203  0.83891309  1.0
  H  H19  1  0.81377661  0.20965266  0.78048672  1.0
  H  H20  1  0.10416577  0.73892347  0.26771733  1.0
  H  H21  1  0.10359432  0.59411647  0.39907208  1.0
  H  H22  1  0.10418641  0.52879543  0.76108218  1.0
  H  H23  1  0.10358441  0.80495382  0.90588813  1.0
  H  H24  1  0.10417968  0.23228996  0.97120587  1.0
  H  H25  1  0.10354220  0.10092215  0.69503344  1.0
  C  C26  1  0.52200127  0.40361565  0.95016010  1.0
  C  C27  1  0.52200541  0.54654676  0.09638837  1.0
  C  C28  1  0.52199821  0.54984407  0.95345996  1.0
  C  C29  1  0.52150563  0.78656959  0.57028911  1.0
  C  C30  1  0.52148537  0.78370486  0.71343281  1.0
  C  C31  1  0.52145985  0.92972143  0.71629272  1.0
  C  C32  1  0.53180114  0.58191912  0.16608883  1.0
  C  C33  1  0.53132336  0.75111877  0.50060319  1.0
  C  C34  1  0.37583661  0.64039446  0.19890775  1.0
  C  C35  1  0.38530801  0.67436168  0.26428624  1.0
  C  C36  1  0.37543312  0.69262804  0.46783298  1.0
  C  C37  1  0.38505883  0.65861799  0.40245824  1.0
  C  C38  1  0.69367888  0.77593066  0.46750433  1.0
  C  C39  1  0.68879213  0.74294312  0.40228344  1.0
  C  C40  1  0.69403681  0.55704815  0.19914930  1.0
  C  C41  1  0.68882623  0.58997323  0.26437440  1.0
  C  C42  1  0.53774823  0.64914555  0.29853284  1.0
  C  C43  1  0.53768614  0.68377255  0.36819014  1.0
  C  C44  1  0.53177820  0.58417657  0.91808693  1.0
  C  C45  1  0.53131883  0.74947498  0.74888603  1.0
  C  C46  1  0.37581797  0.55851666  0.85961099  1.0
  C  C47  1  0.38531631  0.58992464  0.82564309  1.0
  C  C48  1  0.37542508  0.77519791  0.80737444  1.0
  C  C49  1  0.38505878  0.74383644  0.84138830  1.0
  C  C50  1  0.69372492  0.69156825  0.72407443  1.0
  C  C51  1  0.68883874  0.65933510  0.75706301  1.0
  C  C52  1  0.69403144  0.64210464  0.94295708  1.0
  C  C53  1  0.68883775  0.67440178  0.91003228  1.0
  C  C54  1  0.53776149  0.64938792  0.85085985  1.0
  C  C55  1  0.53772102  0.68441378  0.81623257  1.0
  C  C56  1  0.53176466  0.33391073  0.91582939  1.0
  C  C57  1  0.53129745  0.99940496  0.75051979  1.0
  C  C58  1  0.37579502  0.30109555  0.94148632  1.0
  C  C59  1  0.38526890  0.23571937  0.91007386  1.0
  C  C60  1  0.37540656  0.03216938  0.72479202  1.0
  C  C61  1  0.38502979  0.09754631  0.75615243  1.0
  C  C62  1  0.69369453  0.03250613  0.80842509  1.0
  C  C63  1  0.68879041  0.09772870  0.84065786  1.0
  C  C64  1  0.69402035  0.30084947  0.85789840  1.0
  C  C65  1  0.68879471  0.23562731  0.82559575  1.0
  C  C66  1  0.53771414  0.20147226  0.85060544  1.0
  C  C67  1  0.53765955  0.13181465  0.81557730  1.0
  O  O68  1  0.75273825  0.56128672  0.99359687  1.0
  O  O69  1  0.75275119  0.43231004  0.93871705  1.0
  O  O70  1  0.75276610  0.50640572  0.06769184  1.0
  O  O71  1  0.28338326  0.51099860  0.94129747  1.0
  O  O72  1  0.28338716  0.55870881  0.06970304  1.0
  O  O73  1  0.28338179  0.43029803  0.98900451  1.0
  O  O74  1  0.75222867  0.90110291  0.72781091  1.0
  O  O75  1  0.75225119  0.82670836  0.59891913  1.0
  O  O76  1  0.75225160  0.77219714  0.67330442  1.0
  O  O77  1  0.28285836  0.90297805  0.67746135  1.0
  O  O78  1  0.28288682  0.82254324  0.72553095  1.0
  O  O79  1  0.28287546  0.77447678  0.59702782  1.0
  O  O80  1  0.24000703  0.73280924  0.29704232  1.0
  O  O81  1  0.23962262  0.60018666  0.36974105  1.0
  O  O82  1  0.24002462  0.56423278  0.76719669  1.0
  O  O83  1  0.23960329  0.76955090  0.89981729  1.0
  O  O84  1  0.23998776  0.20296068  0.93576175  1.0
  O  O85  1  0.23956626  0.13025784  0.73043352  1.0
