# generated using pymatgen
data_Zr6H23C56S10O32F5
_symmetry_space_group_name_H-M   'P 1'
_cell_length_a   16.45085814
_cell_length_b   16.45683095
_cell_length_c   16.45098255
_cell_angle_alpha   60.26160206
_cell_angle_beta   88.62000626
_cell_angle_gamma   60.26332358
_symmetry_Int_Tables_number   1
_chemical_formula_structural   Zr6H23C56S10O32F5
_chemical_formula_sum   'Zr6 H23 C56 S10 O32 F5'
_cell_volume   3209.13002725
_cell_formula_units_Z   1
loop_
 _symmetry_equiv_pos_site_id
 _symmetry_equiv_pos_as_xyz
  1  'x, y, z'
loop_
 _atom_site_type_symbol
 _atom_site_label
 _atom_site_symmetry_multiplicity
 _atom_site_fract_x
 _atom_site_fract_y
 _atom_site_fract_z
 _atom_site_occupancy
  Zr  Zr0  1  0.90431329  0.48673844  0.40017834  1.0
  Zr  Zr1  1  0.10667663  0.50635042  0.60195720  1.0
  Zr  Zr2  1  0.89811502  0.70773488  0.39320817  1.0
  Zr  Zr3  1  0.11331235  0.28606765  0.60788512  1.0
  Zr  Zr4  1  0.89620899  0.49679650  0.61004205  1.0
  Zr  Zr5  1  0.11426400  0.49716404  0.39094579  1.0
  H  H6  1  0.75605397  0.65335947  0.42388923  1.0
  H  H7  1  0.08316134  0.33976845  0.75019124  1.0
  H  H8  1  0.08693031  0.67019888  0.40986573  1.0
  H  H9  1  0.09602224  0.32324929  0.41897248  1.0
  H  H10  1  0.61525251  0.48374063  0.63882123  1.0
  H  H11  1  0.12639644  0.51465044  0.09618533  1.0
  H  H12  1  0.12927344  0.98520253  0.88196514  1.0
  H  H13  1  0.39781014  0.98751159  0.63406902  1.0
  H  H14  1  0.67559244  0.69925885  0.13635968  1.0
  H  H15  1  0.37344266  0.29229312  0.82812200  1.0
  H  H16  1  0.87973099  0.23028093  0.38557709  1.0
  H  H17  1  0.49348318  0.21615931  0.03210553  1.0
  H  H18  1  0.59873871  0.14044514  0.00509608  1.0
  H  H19  1  0.49604127  0.27262775  0.90923701  1.0
  H  H20  1  0.53088163  0.06523814  0.15687991  1.0
  H  H21  1  0.62169768  0.92568166  0.25382561  1.0
  H  H22  1  0.65755745  0.00731678  0.16635021  1.0
  H  H23  1  0.46990799  0.77756470  0.01649181  1.0
  H  H24  1  0.49943676  0.84981806  0.91156519  1.0
  H  H25  1  0.59336318  0.71767691  0.01561293  1.0
  H  H26  1  0.34651214  0.93018209  0.97843325  1.0
  H  H27  1  0.25093082  0.06977516  0.88553679  1.0
  H  H28  1  0.33843408  0.98439299  0.85232961  1.0
  C  C29  1  0.74271147  0.47632021  0.51589289  1.0
  C  C30  1  0.99013313  0.51677521  0.76326679  1.0
  C  C31  1  0.27786022  0.49649502  0.49596330  1.0
  C  C32  1  0.00818734  0.49724780  0.22780740  1.0
  C  C33  1  0.74020440  0.74826177  0.23769243  1.0
  C  C34  1  0.00767392  0.21840820  0.51039035  1.0
  C  C35  1  0.26959013  0.24415778  0.76573135  1.0
  C  C36  1  0.99680306  0.77354531  0.49980152  1.0
  C  C37  1  0.73533142  0.76757084  0.50484172  1.0
  C  C38  1  0.00071756  0.76677183  0.22148319  1.0
  C  C39  1  0.28417773  0.22761181  0.50360472  1.0
  C  C40  1  0.00129538  0.22590912  0.77096408  1.0
  C  C41  1  0.43081897  0.47911252  0.44100455  1.0
  C  C42  1  0.59771620  0.47942673  0.57834624  1.0
  C  C43  1  0.37082269  0.48765883  0.50113272  1.0
  C  C44  1  0.65482496  0.47359952  0.51584510  1.0
  C  C45  1  0.51629397  0.48051587  0.55105137  1.0
  C  C46  1  0.51398419  0.47508417  0.46825073  1.0
  C  C47  1  0.92575633  0.51716551  0.90762706  1.0
  C  C48  1  0.06408110  0.51407295  0.07667955  1.0
  C  C49  1  0.98856884  0.52092994  0.85010920  1.0
  C  C50  1  0.00198622  0.50702666  0.13410962  1.0
  C  C51  1  0.03536644  0.51868368  0.99349080  1.0
  C  C52  1  0.95142308  0.51554581  0.98977056  1.0
  C  C53  1  0.93017784  0.97192896  0.07876995  1.0
  C  C54  1  0.06578797  0.02124896  0.90529881  1.0
  C  C55  1  0.99791274  0.85605742  0.13053283  1.0
  C  C56  1  0.99829773  0.13643463  0.85679976  1.0
  C  C57  1  0.04036226  0.96148028  0.98616431  1.0
  C  C58  1  0.95331691  0.03321090  0.99671826  1.0
  C  C59  1  0.60164850  0.97363702  0.44196271  1.0
  C  C60  1  0.42373145  0.02355377  0.57300930  1.0
  C  C61  1  0.65004282  0.85758604  0.50700705  1.0
  C  C62  1  0.37558118  0.13870899  0.50571991  1.0
  C  C63  1  0.50664079  0.96364935  0.54973222  1.0
  C  C64  1  0.51972456  0.03534218  0.46493923  1.0
  C  C65  1  0.59169112  0.94548635  0.11672560  1.0
  C  C66  1  0.62522897  0.78815620  0.10844154  1.0
  C  C67  1  0.54044374  0.85367389  0.03369292  1.0
  C  C68  1  0.48023263  0.97297229  0.99222490  1.0
  C  C69  1  0.38931063  0.04743513  0.91553585  1.0
  C  C70  1  0.40035718  0.20384041  0.87938021  1.0
  C  C71  1  0.47524026  0.13842548  0.96408643  1.0
  C  C72  1  0.51516663  0.01956845  0.02568542  1.0
  C  C73  1  0.64957338  0.83072011  0.15333270  1.0
  C  C74  1  0.35404015  0.16174876  0.85634463  1.0
  C  C75  1  0.05906583  0.84670807  0.57144722  1.0
  C  C76  1  0.93777302  0.14667018  0.44616967  1.0
  C  C77  1  0.99523971  0.86081574  0.50447751  1.0
  C  C78  1  0.00398624  0.12999409  0.51246840  1.0
  C  C79  1  0.95779268  0.04283240  0.46844479  1.0
  C  C80  1  0.03895949  0.94942882  0.55191588  1.0
  C  C81  1  0.51841907  0.19400571  0.97920890  1.0
  C  C82  1  0.60098211  0.98905059  0.17552114  1.0
  C  C83  1  0.52411957  0.79751048  0.99194268  1.0
  C  C84  1  0.32898429  0.00489976  0.90747609  1.0
  S  S85  1  0.41718491  0.48990829  0.59361547  1.0
  S  S86  1  0.61130619  0.46861702  0.42403496  1.0
  S  S87  1  0.08047525  0.52397380  0.89641476  1.0
  S  S88  1  0.90777362  0.50716974  0.08777829  1.0
  S  S89  1  0.09156563  0.82102663  0.07692150  1.0
  S  S90  1  0.90307727  0.17345231  0.90798269  1.0
  S  S91  1  0.59491280  0.82292702  0.59924594  1.0
  S  S92  1  0.43071511  0.17567662  0.41415482  1.0
  S  S93  1  0.90791381  0.00271205  0.41630420  1.0
  S  S94  1  0.09047973  0.98883380  0.60281840  1.0
  O  O95  1  0.78069420  0.47330218  0.44787348  1.0
  O  O96  1  0.05927825  0.51823980  0.72666888  1.0
  O  O97  1  0.23902917  0.50270388  0.56281783  1.0
  O  O98  1  0.94221854  0.49005481  0.26769705  1.0
  O  O99  1  0.77656862  0.78476825  0.26795518  1.0
  O  O100  1  0.07593189  0.18726607  0.57636022  1.0
  O  O101  1  0.23935275  0.20744857  0.72944392  1.0
  O  O102  1  0.93073401  0.80562729  0.43104366  1.0
  O  O103  1  0.76645783  0.66586859  0.57328937  1.0
  O  O104  1  0.07207994  0.66511789  0.25578641  1.0
  O  O105  1  0.24902047  0.32943247  0.43251248  1.0
  O  O106  1  0.93262523  0.32780973  0.73857495  1.0
  O  O107  1  0.93260005  0.79827434  0.25969783  1.0
  O  O108  1  0.24698356  0.19473183  0.57241121  1.0
  O  O109  1  0.07355304  0.19348258  0.73726605  1.0
  O  O110  1  0.77039882  0.79864477  0.43349524  1.0
  O  O111  1  0.77802048  0.64333683  0.27463571  1.0
  O  O112  1  0.06611072  0.67183846  0.56487336  1.0
  O  O113  1  0.23261744  0.34897046  0.72789391  1.0
  O  O114  1  0.94214985  0.31965562  0.44079042  1.0
  O  O115  1  0.07863124  0.49521919  0.26192860  1.0
  O  O116  1  0.77234714  0.48388731  0.58142353  1.0
  O  O117  1  0.92476572  0.50956262  0.73262076  1.0
  O  O118  1  0.24276473  0.49880599  0.42580120  1.0
  O  O119  1  0.07094888  0.37213156  0.44253322  1.0
  O  O120  1  0.06345941  0.62122474  0.43497907  1.0
  O  O121  1  0.06042117  0.38422839  0.67924938  1.0
  O  O122  1  0.82701900  0.60843313  0.44646409  1.0
  O  O123  1  0.95738595  0.58840528  0.54314608  1.0
  O  O124  1  0.96334204  0.40418545  0.54939933  1.0
  O  O125  1  0.13692225  0.41379656  0.54113419  1.0
  O  O126  1  0.96458056  0.57946743  0.36941568  1.0
  F  F127  1  0.41278991  0.47570846  0.36380878  1.0
  F  F128  1  0.84856930  0.51391026  0.88921640  1.0
  F  F129  1  0.85012498  0.02332821  0.10290193  1.0
  F  F130  1  0.62798924  0.02460358  0.36374242  1.0
  F  F131  1  0.13363941  0.74654476  0.64740857  1.0
