# generated using pymatgen
data_Zn2H25C36(BrN2)4
_symmetry_space_group_name_H-M   'P 1'
_cell_length_a   20.03833425
_cell_length_b   20.22190528
_cell_length_c   20.22711489
_cell_angle_alpha   107.34275508
_cell_angle_beta   107.71900204
_cell_angle_gamma   111.88512703
_symmetry_Int_Tables_number   1
_chemical_formula_structural   Zn2H25C36(BrN2)4
_chemical_formula_sum   'Zn4 H50 C72 Br8 N16'
_cell_volume   6411.69522710
_cell_formula_units_Z   2
loop_
 _symmetry_equiv_pos_site_id
 _symmetry_equiv_pos_as_xyz
  1  'x, y, z'
loop_
 _atom_site_type_symbol
 _atom_site_label
 _atom_site_symmetry_multiplicity
 _atom_site_fract_x
 _atom_site_fract_y
 _atom_site_fract_z
 _atom_site_occupancy
  Zn  Zn0  1  0.38757707  0.41300104  0.48555567  1.0
  Zn  Zn1  1  0.61065962  0.60436908  0.49638391  1.0
  Zn  Zn2  1  0.40663276  0.50554308  0.37509151  1.0
  Zn  Zn3  1  0.59996388  0.52136391  0.62369992  1.0
  H  H4  1  0.22386643  0.24220683  0.35498303  1.0
  H  H5  1  0.57027622  0.03154776  0.68226041  1.0
  H  H6  1  0.63454932  0.13142458  0.61843112  1.0
  H  H7  1  0.07168254  0.54359144  0.44702731  1.0
  H  H8  1  0.95381634  0.53558756  0.45198376  1.0
  H  H9  1  0.02419842  0.51275742  0.63392188  1.0
  H  H10  1  0.97507093  0.46142282  0.53043974  1.0
  H  H11  1  0.10021219  0.48145765  0.53680409  1.0
  H  H12  1  0.15113858  0.54226005  0.63932434  1.0
  H  H13  1  0.39440436  0.36296457  0.24628961  1.0
  H  H14  1  0.09207679  0.66519374  0.70374540  1.0
  H  H15  1  0.60328736  0.76542022  0.56827267  1.0
  H  H16  1  0.19045578  0.73587216  0.63296092  1.0
  H  H17  1  0.00169876  0.64146143  0.50099671  1.0
  H  H18  1  0.11547742  0.64893058  0.48626657  1.0
  H  H19  1  0.21377968  0.69511908  0.69669434  1.0
  H  H20  1  0.39142957  0.37310528  0.89913648  1.0
  H  H21  1  0.61791895  0.45724135  0.97710818  1.0
  H  H22  1  0.54332032  0.48302550  0.98000200  1.0
  H  H23  1  0.58018868  0.49023423  0.10321867  1.0
  H  H24  1  0.61700479  0.37182049  0.57575181  1.0
  H  H25  1  0.47332619  0.23296373  0.87284845  1.0
  H  H26  1  0.60352338  0.65778921  0.74798261  1.0
  H  H27  1  0.57707175  0.30914352  0.93260570  1.0
  H  H28  1  0.45454691  0.23134325  0.98208297  1.0
  H  H29  1  0.36661570  0.27246783  0.87305608  1.0
  H  H30  1  0.37697527  0.29830200  0.99734140  1.0
  H  H31  1  0.56184638  0.28475759  0.03509309  1.0
  H  H32  1  0.91028082  0.89280346  0.94171193  1.0
  H  H33  1  0.03167154  0.00795095  0.04073166  1.0
  H  H34  1  0.02730998  0.10946910  0.99520866  1.0
  H  H35  1  0.92174675  0.98504212  0.88972450  1.0
  H  H36  1  0.89863173  0.03960644  0.12067545  1.0
  H  H37  1  0.73632099  0.79629147  0.65703274  1.0
  H  H38  1  0.90073239  0.12220896  0.10538889  1.0
  H  H39  1  0.99532077  0.99606974  0.10811192  1.0
  H  H40  1  0.80474692  0.04035572  0.97200714  1.0
  H  H41  1  0.78775317  0.53708660  0.67860816  1.0
  H  H42  1  0.33257551  0.61135465  0.44115835  1.0
  H  H43  1  0.41567993  0.01133246  0.42962077  1.0
  H  H44  1  0.55430033  0.99244707  0.47076851  1.0
  H  H45  1  0.07541299  0.71728087  0.65022388  1.0
  H  H46  1  0.64922828  0.53574954  0.33989595  1.0
  H  H47  1  0.85983394  0.02863777  0.88431243  1.0
  H  H48  1  0.35914392  0.52250330  0.61243849  1.0
  H  H49  1  0.35902762  0.25072560  0.50611919  1.0
  H  H50  1  0.38937818  0.65808348  0.34720766  1.0
  H  H51  1  0.35184590  0.91142346  0.49426101  1.0
  H  H52  1  0.74179110  0.56452293  0.46771844  1.0
  H  H53  1  0.43258757  0.05028692  0.64136747  1.0
  C  C54  1  0.23782896  0.28257013  0.32948564  1.0
  C  C55  1  0.35887420  0.53823084  0.56558884  1.0
  C  C56  1  0.56829154  0.46196105  0.73834421  1.0
  C  C57  1  0.74025420  0.55766912  0.51854655  1.0
  C  C58  1  0.44329152  0.67275155  0.39656259  1.0
  C  C59  1  0.49951231  0.42339283  0.74752522  1.0
  C  C60  1  0.49453994  0.74309394  0.46923988  1.0
  C  C61  1  0.32638604  0.58138081  0.53861131  1.0
  C  C62  1  0.68599187  0.75868869  0.73386713  1.0
  C  C63  1  0.52721601  0.00649761  0.50849285  1.0
  C  C64  1  0.45000691  0.01445674  0.48517618  1.0
  C  C65  1  0.79828683  0.55465352  0.57617702  1.0
  C  C66  1  0.49408209  0.21999591  0.56003908  1.0
  C  C67  1  0.49063480  0.81346242  0.49740729  1.0
  C  C68  1  0.57174605  0.08181166  0.59021623  1.0
  C  C69  1  0.45718665  0.41192017  0.28176418  1.0
  C  C70  1  0.49487919  0.09251888  0.56680170  1.0
  C  C71  1  0.53605877  0.02738143  0.62599665  1.0
  C  C72  1  0.49141802  0.94993919  0.54366219  1.0
  C  C73  1  0.45935589  0.03688555  0.60305929  1.0
  C  C74  1  0.41458727  0.96083707  0.52148141  1.0
  C  C75  1  0.49561392  0.16379627  0.57000864  1.0
  C  C76  1  0.52168189  0.42908431  0.26307479  1.0
  C  C77  1  0.49003390  0.87586245  0.52410705  1.0
  C  C78  1  0.00878631  0.59034466  0.50199249  1.0
  C  C79  1  0.02617522  0.51794055  0.58190656  1.0
  C  C80  1  0.10825902  0.53310708  0.58368137  1.0
  C  C81  1  0.55307652  0.35289127  0.55579035  1.0
  C  C82  1  0.27433785  0.60508534  0.55847036  1.0
  C  C83  1  0.01283589  0.58785482  0.57897449  1.0
  C  C84  1  0.08635048  0.59759309  0.49639304  1.0
  C  C85  1  0.14807521  0.60877876  0.57309745  1.0
  C  C86  1  0.16592450  0.68305619  0.64251300  1.0
  C  C87  1  0.49011132  0.28312716  0.54654445  1.0
  C  C88  1  0.08710043  0.66812096  0.64916192  1.0
  C  C89  1  0.22084193  0.61458296  0.56814560  1.0
  C  C90  1  0.93751302  0.57572443  0.58121224  1.0
  C  C91  1  0.87327333  0.56421999  0.58093663  1.0
  C  C92  1  0.41315739  0.33546715  0.91622883  1.0
  C  C93  1  0.58753561  0.50101400  0.32989290  1.0
  C  C94  1  0.56224663  0.43907317  0.98325368  1.0
  C  C95  1  0.57677848  0.43843365  0.06173604  1.0
  C  C96  1  0.51842151  0.39206525  0.19013371  1.0
  C  C97  1  0.49442459  0.35482104  0.91375691  1.0
  C  C98  1  0.44433967  0.43969451  0.70181146  1.0
  C  C99  1  0.42497764  0.34866243  0.99876856  1.0
  C  C100  1  0.50840260  0.36007069  0.04964809  1.0
  C  C101  1  0.50981825  0.28633815  0.99869000  1.0
  C  C102  1  0.51542689  0.29159049  0.92552163  1.0
  C  C103  1  0.51512807  0.36791863  0.12574814  1.0
  C  C104  1  0.48909969  0.36069845  0.84256234  1.0
  C  C105  1  0.42113586  0.29090246  0.52056297  1.0
  C  C106  1  0.49198601  0.38693480  0.79587952  1.0
  C  C107  1  0.98123737  0.00226692  0.05429495  1.0
  C  C108  1  0.96957950  0.09237005  0.99722715  1.0
  C  C109  1  0.55283421  0.72728896  0.50940612  1.0
  C  C110  1  0.89842303  0.01531830  0.92317815  1.0
  C  C111  1  0.73121245  0.82814430  0.80713484  1.0
  C  C112  1  0.97713328  0.08042791  0.07058003  1.0
  C  C113  1  0.90027074  0.92861557  0.98598580  1.0
  C  C114  1  0.84404364  0.95515160  0.94443281  1.0
  C  C115  1  0.82407573  0.00717221  0.99969465  1.0
  C  C116  1  0.89938803  0.06539489  0.08001862  1.0
  C  C117  1  0.76446601  0.54378203  0.62650887  1.0
  C  C118  1  0.77549427  0.88725798  0.87120394  1.0
  C  C119  1  0.05152300  0.14782412  0.13919712  1.0
  C  C120  1  0.34560723  0.58308262  0.47736027  1.0
  C  C121  1  0.11727226  0.20349999  0.19298333  1.0
  C  C122  1  0.24057741  0.34243585  0.25451003  1.0
  C  C123  1  0.19249806  0.27014448  0.25400733  1.0
  C  C124  1  0.62859073  0.68003525  0.71339151  1.0
  C  C125  1  0.69684207  0.75039339  0.66666241  1.0
  Br  Br126  1  0.66846066  0.46689639  0.77933924  1.0
  Br  Br127  1  0.41163742  0.44021073  0.05019919  1.0
  Br  Br128  1  0.68527247  0.45205254  0.11762665  1.0
  Br  Br129  1  0.95755599  0.18719309  0.00562476  1.0
  Br  Br130  1  0.72828237  0.94686902  0.01037303  1.0
  Br  Br131  1  0.84857372  0.85097899  0.02051401  1.0
  Br  Br132  1  0.22159635  0.37014386  0.17319449  1.0
  Br  Br133  1  0.33609990  0.40501405  0.68344853  1.0
  N  N134  1  0.30573370  0.35583299  0.37067189  1.0
  N  N135  1  0.48269894  0.46972014  0.35354832  1.0
  N  N136  1  0.52449463  0.39952024  0.53826837  1.0
  N  N137  1  0.56310268  0.52469865  0.38264536  1.0
  N  N138  1  0.44306767  0.36042837  0.51643437  1.0
  N  N139  1  0.69319846  0.54212569  0.60075360  1.0
  N  N140  1  0.30737329  0.39317302  0.32405327  1.0
  N  N141  1  0.47579326  0.48301395  0.66947049  1.0
  N  N142  1  0.53783199  0.65421280  0.46446843  1.0
  N  N143  1  0.38449100  0.54240863  0.46742994  1.0
  N  N144  1  0.60799114  0.62917187  0.64022145  1.0
  N  N145  1  0.65019567  0.67310417  0.61178242  1.0
  N  N146  1  0.39296104  0.51488759  0.52180624  1.0
  N  N147  1  0.55419681  0.49736485  0.69321451  1.0
  N  N148  1  0.46947916  0.61985866  0.39393305  1.0
  N  N149  1  0.67789290  0.55043119  0.53395992  1.0
