# generated using pymatgen
data_AlH13C16O6F
_symmetry_space_group_name_H-M   'P 1'
_cell_length_a   6.66333094
_cell_length_b   19.48206034
_cell_length_c   19.99970280
_cell_angle_alpha   81.10225662
_cell_angle_beta   89.99920673
_cell_angle_gamma   89.99961267
_symmetry_Int_Tables_number   1
_chemical_formula_structural   AlH13C16O6F
_chemical_formula_sum   'Al4 H52 C64 O24 F4'
_cell_volume   2565.02610929
_cell_formula_units_Z   4
loop_
 _symmetry_equiv_pos_site_id
 _symmetry_equiv_pos_as_xyz
  1  'x, y, z'
loop_
 _atom_site_type_symbol
 _atom_site_label
 _atom_site_symmetry_multiplicity
 _atom_site_fract_x
 _atom_site_fract_y
 _atom_site_fract_z
 _atom_site_occupancy
  Al  Al0  1  0.77318731  0.74946162  0.24750289  1.0
  Al  Al1  1  0.23579884  0.24978094  0.75079283  1.0
  Al  Al2  1  0.27318202  0.75053196  0.25250320  1.0
  Al  Al3  1  0.73580255  0.25021409  0.74921231  1.0
  H  H4  1  0.68177159  0.98786709  0.44635188  1.0
  H  H5  1  0.30141270  0.06277280  0.50112590  1.0
  H  H6  1  0.18179577  0.51211664  0.05366930  1.0
  H  H7  1  0.80145787  0.43726457  0.99883079  1.0
  H  H8  1  0.31799909  0.86937513  0.40522150  1.0
  H  H9  1  0.68373798  0.09673673  0.63037551  1.0
  H  H10  1  0.81801009  0.63063110  0.09476868  1.0
  H  H11  1  0.18371580  0.40325464  0.86963745  1.0
  H  H12  1  0.31294053  0.95167884  0.48813099  1.0
  H  H13  1  0.68388154  0.00926242  0.55219912  1.0
  H  H14  1  0.81293408  0.54833965  0.01184654  1.0
  H  H15  1  0.18385588  0.49072042  0.94782246  1.0
  H  H16  1  0.27098541  0.83648092  0.04413648  1.0
  H  H17  1  0.75706174  0.16313345  0.95577127  1.0
  H  H18  1  0.77098671  0.66351432  0.45587215  1.0
  H  H19  1  0.25706193  0.33686155  0.54423377  1.0
  H  H20  1  0.73557096  0.07717192  0.06121327  1.0
  H  H21  1  0.30145963  0.92487894  0.94008548  1.0
  H  H22  1  0.23556953  0.42282853  0.43879617  1.0
  H  H23  1  0.80147167  0.57511427  0.55991971  1.0
  H  H24  1  0.56289070  0.90276988  0.14612175  1.0
  H  H25  1  0.54132387  0.98126269  0.08697326  1.0
  H  H26  1  0.58267544  0.97167528  0.24115608  1.0
  H  H27  1  0.57311539  0.04988678  0.18355292  1.0
  H  H28  1  0.22261305  0.01993981  0.14805777  1.0
  H  H29  1  0.23409193  0.02208384  0.23627346  1.0
  H  H30  1  0.23214609  0.94132408  0.20569217  1.0
  H  H31  1  0.22698366  0.05480907  0.75947102  1.0
  H  H32  1  0.98129640  0.05021797  0.79473722  1.0
  H  H33  1  0.26491794  0.92692121  0.79083266  1.0
  H  H34  1  0.03262336  0.92144062  0.83397917  1.0
  H  H35  1  0.84990870  0.96029469  0.72454927  1.0
  H  H36  1  0.99706269  0.88561794  0.71835824  1.0
  H  H37  1  0.08020742  0.96897105  0.67975422  1.0
  H  H38  1  0.06286917  0.59722278  0.35389335  1.0
  H  H39  1  0.04132543  0.51873517  0.41305154  1.0
  H  H40  1  0.08262021  0.52831493  0.25886450  1.0
  H  H41  1  0.07315004  0.45010410  0.31647090  1.0
  H  H42  1  0.72265599  0.48002533  0.35200037  1.0
  H  H43  1  0.73408157  0.47786138  0.26378720  1.0
  H  H44  1  0.73207964  0.55863005  0.29435011  1.0
  H  H45  1  0.72699591  0.44519764  0.74053513  1.0
  H  H46  1  0.48130867  0.44977749  0.70527140  1.0
  H  H47  1  0.76490278  0.57308494  0.70915596  1.0
  H  H48  1  0.53259939  0.57855572  0.66601656  1.0
  H  H49  1  0.34991258  0.53970760  0.77545620  1.0
  H  H50  1  0.49705584  0.61438799  0.78163494  1.0
  H  H51  1  0.58022147  0.53103892  0.82024229  1.0
  H  H52  1  0.53062267  0.83348124  0.26916306  1.0
  H  H53  1  0.48685798  0.16504907  0.78968413  1.0
  H  H54  1  0.03062893  0.66651112  0.23084459  1.0
  H  H55  1  0.98686165  0.33494389  0.71032397  1.0
  C  C56  1  0.52601536  0.66219089  0.35000755  1.0
  C  C57  1  0.48469956  0.33961780  0.65181542  1.0
  C  C58  1  0.02602163  0.83780377  0.14999860  1.0
  C  C59  1  0.98467839  0.16037616  0.84818964  1.0
  C  C60  1  0.51736273  0.66971855  0.16877742  1.0
  C  C61  1  0.48750228  0.32747220  0.83430376  1.0
  C  C62  1  0.01735859  0.83027411  0.33123181  1.0
  C  C63  1  0.98749749  0.17253191  0.66569216  1.0
  C  C64  1  0.82306618  0.96155644  0.43992515  1.0
  C  C65  1  0.16520090  0.06699298  0.53034822  1.0
  C  C66  1  0.32308957  0.53843018  0.06009186  1.0
  C  C67  1  0.66522935  0.43303256  0.96962376  1.0
  C  C68  1  0.82890851  0.91410370  0.39496623  1.0
  C  C69  1  0.16232105  0.11434782  0.57552591  1.0
  C  C70  1  0.32892909  0.58588026  0.10505127  1.0
  C  C71  1  0.66233431  0.38567603  0.92444711  1.0
  C  C72  1  0.00587032  0.87998688  0.38069307  1.0
  C  C73  1  0.99094927  0.12561408  0.61321051  1.0
  C  C74  1  0.50589101  0.62000536  0.11931570  1.0
  C  C75  1  0.49095095  0.37439737  0.88677779  1.0
  C  C76  1  0.17933074  0.89541929  0.41544930  1.0
  C  C77  1  0.81832300  0.08763211  0.60205783  1.0
  C  C78  1  0.67933667  0.60458365  0.08454756  1.0
  C  C79  1  0.31831297  0.41236994  0.89794389  1.0
  C  C80  1  0.17607270  0.94223623  0.46113510  1.0
  C  C81  1  0.81888868  0.03953896  0.55754705  1.0
  C  C82  1  0.67607395  0.55777407  0.03885417  1.0
  C  C83  1  0.31887585  0.46045977  0.94245619  1.0
  C  C84  1  0.99768069  0.97672261  0.47395242  1.0
  C  C85  1  0.99332633  0.02788650  0.52118764  1.0
  C  C86  1  0.49768779  0.52327925  0.02604660  1.0
  C  C87  1  0.49333127  0.47212258  0.97880268  1.0
  C  C88  1  0.03806140  0.89186360  0.08862121  1.0
  C  C89  1  0.97642806  0.10499437  0.90833547  1.0
  C  C90  1  0.53806564  0.60813333  0.41138994  1.0
  C  C91  1  0.47642663  0.39500090  0.59167115  1.0
  C  C92  1  0.83171303  0.06755349  0.01963502  1.0
  C  C93  1  0.19585989  0.93188749  0.98000648  1.0
  C  C94  1  0.33171117  0.43244452  0.48037552  1.0
  C  C95  1  0.69586172  0.56810716  0.52000423  1.0
  C  C96  1  0.84508262  0.11541865  0.96165350  1.0
  C  C97  1  0.17775545  0.88302218  0.03717313  1.0
  C  C98  1  0.34508663  0.38457617  0.53835470  1.0
  C  C99  1  0.67775137  0.61697361  0.46283336  1.0
  C  C100  1  0.09173137  0.04478276  0.91371439  1.0
  C  C101  1  0.92516978  0.95238978  0.08383302  1.0
  C  C102  1  0.59173335  0.45521133  0.58629239  1.0
  C  C103  1  0.42516914  0.54761097  0.41617745  1.0
  C  C104  1  0.07821258  0.99332958  0.97272579  1.0
  C  C105  1  0.94347443  0.00490923  0.02581088  1.0
  C  C106  1  0.57821231  0.50666498  0.52728391  1.0
  C  C107  1  0.44347311  0.49509021  0.47419866  1.0
  C  C108  1  0.59980281  0.95852048  0.13713202  1.0
  C  C109  1  0.51799235  0.99591192  0.19249767  1.0
  C  C110  1  0.28919832  0.99472497  0.19585858  1.0
  C  C111  1  0.13063942  0.02559435  0.79855645  1.0
  C  C112  1  0.11327736  0.94949930  0.78999543  1.0
  C  C113  1  0.00461394  0.94060051  0.72458251  1.0
  C  C114  1  0.09979251  0.54147322  0.36288899  1.0
  C  C115  1  0.01798359  0.50407298  0.30752826  1.0
  C  C116  1  0.78919704  0.50523842  0.30418595  1.0
  C  C117  1  0.63064523  0.47440469  0.70144762  1.0
  C  C118  1  0.61326861  0.55050137  0.71000096  1.0
  C  C119  1  0.50461580  0.55940437  0.77541484  1.0
  O  O120  1  0.35286926  0.68973302  0.19108928  1.0
  O  O121  1  0.65629086  0.31074860  0.81215165  1.0
  O  O122  1  0.85284830  0.81025561  0.30892102  1.0
  O  O123  1  0.15630447  0.18925467  0.68784470  1.0
  O  O124  1  0.69426338  0.68270541  0.32394878  1.0
  O  O125  1  0.31598788  0.31649173  0.67547980  1.0
  O  O126  1  0.19425846  0.81728407  0.17605513  1.0
  O  O127  1  0.81598675  0.18350281  0.82453055  1.0
  O  O128  1  0.69153335  0.68842754  0.18532640  1.0
  O  O129  1  0.31532171  0.31059498  0.81440460  1.0
  O  O130  1  0.19151676  0.81156835  0.31467599  1.0
  O  O131  1  0.81533977  0.18940274  0.68559867  1.0
  O  O132  1  0.85354445  0.81660092  0.17129192  1.0
  O  O133  1  0.15528417  0.18147811  0.82506511  1.0
  O  O134  1  0.35355830  0.68339308  0.32871685  1.0
  O  O135  1  0.65528214  0.31851339  0.67493431  1.0
  O  O136  1  0.52363754  0.79294916  0.24648661  1.0
  O  O137  1  0.48601484  0.20688782  0.75621288  1.0
  O  O138  1  0.02364056  0.70704337  0.25352006  1.0
  O  O139  1  0.98601644  0.29310456  0.74379572  1.0
  O  O140  1  0.81664020  0.96611546  0.13838785  1.0
  O  O141  1  0.22001823  0.03182737  0.86345615  1.0
  O  O142  1  0.31663611  0.53388295  0.36162613  1.0
  O  O143  1  0.72002837  0.46815924  0.63655058  1.0
  F  F144  1  0.65252000  0.90352589  0.36369331  1.0
  F  F145  1  0.33351575  0.15089344  0.58051148  1.0
  F  F146  1  0.15253908  0.59645224  0.13632801  1.0
  F  F147  1  0.83354494  0.34913791  0.91945368  1.0
