# generated using pymatgen
data_Zn2H20C31N2O9
_symmetry_space_group_name_H-M   'P 1'
_cell_length_a   9.75754312
_cell_length_b   11.00773662
_cell_length_c   14.03419031
_cell_angle_alpha   94.10858280
_cell_angle_beta   97.59995645
_cell_angle_gamma   90.94902101
_symmetry_Int_Tables_number   1
_chemical_formula_structural   Zn2H20C31N2O9
_chemical_formula_sum   'Zn2 H20 C31 N2 O9'
_cell_volume   1489.79254619
_cell_formula_units_Z   1
loop_
 _symmetry_equiv_pos_site_id
 _symmetry_equiv_pos_as_xyz
  1  'x, y, z'
loop_
 _atom_site_type_symbol
 _atom_site_label
 _atom_site_symmetry_multiplicity
 _atom_site_fract_x
 _atom_site_fract_y
 _atom_site_fract_z
 _atom_site_occupancy
  Zn  Zn0  1  0.35742970  0.49548958  0.49339099  1.0
  Zn  Zn1  1  0.64578023  0.50641260  0.49921528  1.0
  H  H2  1  0.34656165  0.49110356  0.97250387  1.0
  H  H3  1  0.71387746  0.32609349  0.36810938  1.0
  H  H4  1  0.81413082  0.18533836  0.25205687  1.0
  H  H5  1  0.06823531  0.18993022  0.24452497  1.0
  H  H6  1  0.22339536  0.33151409  0.35583067  1.0
  H  H7  1  0.15698127  0.62499379  0.59889823  1.0
  H  H8  1  0.66490726  0.50792494  0.02025480  1.0
  H  H9  1  0.24374629  0.22392940  0.53132883  1.0
  H  H10  1  0.02036712  0.11216103  0.49651993  1.0
  H  H11  1  0.01292563  0.88989392  0.44401442  1.0
  H  H12  1  0.23145543  0.77814156  0.44965125  1.0
  H  H13  1  0.71194236  0.88948583  0.53902298  1.0
  H  H14  1  0.89687825  0.63031671  0.59919615  1.0
  H  H15  1  0.92944501  0.13265605  0.64647820  1.0
  H  H16  1  0.80459312  0.02603160  0.67527293  1.0
  H  H17  1  0.78248253  0.30485089  0.69279001  1.0
  H  H18  1  0.65265616  0.20198002  0.71542828  1.0
  H  H19  1  0.81417561  0.11945553  0.84982323  1.0
  H  H20  1  0.79768881  0.27938328  0.86974872  1.0
  H  H21  1  0.94833694  0.22017024  0.82714619  1.0
  C  C22  1  0.50851687  0.26813071  0.50648799  1.0
  C  C23  1  0.44902982  0.49741170  0.20504057  1.0
  C  C24  1  0.24178421  0.12683303  0.51174430  1.0
  C  C25  1  0.11654405  0.06399317  0.49245936  1.0
  C  C26  1  0.11215934  0.93812742  0.46514222  1.0
  C  C27  1  0.23377309  0.87583954  0.46728370  1.0
  C  C28  1  0.36468283  0.93661094  0.49363290  1.0
  C  C29  1  0.36973503  0.06772571  0.50721393  1.0
  C  C30  1  0.50138876  0.13379651  0.51936762  1.0
  C  C31  1  0.62216089  0.06689021  0.53484315  1.0
  C  C32  1  0.61551522  0.93837058  0.52881859  1.0
  C  C33  1  0.45822588  0.49953300  0.30863361  1.0
  C  C34  1  0.49226000  0.87297537  0.50647410  1.0
  C  C35  1  0.82433479  0.32696599  0.36516865  1.0
  C  C36  1  0.88124967  0.24960563  0.30043141  1.0
  C  C37  1  0.02515244  0.25237876  0.29590294  1.0
  C  C38  1  0.11252369  0.33136441  0.35715829  1.0
  C  C39  1  0.05762663  0.41142229  0.42493628  1.0
  C  C40  1  0.91072090  0.41106774  0.42775913  1.0
  C  C41  1  0.94249249  0.56702485  0.54963464  1.0
  C  C42  1  0.08689806  0.56428169  0.54935235  1.0
  C  C43  1  0.50054634  0.73646772  0.50294196  1.0
  C  C44  1  0.53795185  0.51128986  0.68414786  1.0
  C  C45  1  0.55379853  0.51009988  0.78790471  1.0
  C  C46  1  0.56429157  0.50317184  0.97516821  1.0
  C  C47  1  0.44690392  0.49576508  0.01790153  1.0
  C  C48  1  0.44837735  0.49602015  0.11793529  1.0
  C  C49  1  0.56060953  0.50679582  0.87518484  1.0
  C  C50  1  0.81860700  0.11786050  0.65016163  1.0
  C  C51  1  0.76539957  0.21451607  0.71834424  1.0
  C  C52  1  0.83534531  0.20778779  0.82187982  1.0
  N  N53  1  0.85683726  0.49218070  0.49064083  1.0
  N  N54  1  0.14276317  0.48860331  0.48841068  1.0
  O  O55  1  0.39809183  0.31695540  0.46839464  1.0
  O  O56  1  0.62268847  0.32696859  0.52890612  1.0
  O  O57  1  0.34910433  0.52176574  0.34659608  1.0
  O  O58  1  0.57704200  0.47788721  0.35298189  1.0
  O  O59  1  0.39573704  0.67671214  0.52226825  1.0
  O  O60  1  0.61334157  0.68967814  0.48379879  1.0
  O  O61  1  0.41858941  0.47874066  0.64032207  1.0
  O  O62  1  0.64367480  0.54358500  0.64657083  1.0
  O  O63  1  0.75276410  0.11992090  0.55141023  1.0
