# generated using pymatgen
data_ZnH13C19N5O4
_symmetry_space_group_name_H-M   'P 1'
_cell_length_a   15.90933512
_cell_length_b   24.34415286
_cell_length_c   24.47082943
_cell_angle_alpha   89.98002299
_cell_angle_beta   89.81507453
_cell_angle_gamma   93.09283768
_symmetry_Int_Tables_number   1
_chemical_formula_structural   ZnH13C19N5O4
_chemical_formula_sum   'Zn4 H52 C76 N20 O16'
_cell_volume   9463.67941609
_cell_formula_units_Z   4
loop_
 _symmetry_equiv_pos_site_id
 _symmetry_equiv_pos_as_xyz
  1  'x, y, z'
loop_
 _atom_site_type_symbol
 _atom_site_label
 _atom_site_symmetry_multiplicity
 _atom_site_fract_x
 _atom_site_fract_y
 _atom_site_fract_z
 _atom_site_occupancy
  Zn  Zn0  1  0.41221254  0.50145296  0.99992758  1.0
  Zn  Zn1  1  0.58777194  0.49858946  0.99964138  1.0
  Zn  Zn2  1  0.41220722  0.00157134  0.49992428  1.0
  Zn  Zn3  1  0.58788755  0.99848994  0.49945034  1.0
  H  H4  1  0.37943480  0.60904235  0.13699872  1.0
  H  H5  1  0.61541321  0.32308429  0.78472125  1.0
  H  H6  1  0.60685398  0.27868456  0.17080488  1.0
  H  H7  1  0.39315596  0.72157584  0.82895066  1.0
  H  H8  1  0.39318162  0.22152817  0.67127335  1.0
  H  H9  1  0.60630659  0.77809686  0.32889641  1.0
  H  H10  1  0.61552495  0.82359728  0.71481565  1.0
  H  H11  1  0.38494883  0.17668679  0.28523485  1.0
  H  H12  1  0.34524631  0.31630097  0.79113742  1.0
  H  H13  1  0.65448275  0.68350530  0.20877460  1.0
  H  H14  1  0.65807352  0.70192233  0.80843468  1.0
  H  H15  1  0.62047914  0.39072759  0.86269734  1.0
  H  H16  1  0.34192729  0.29825025  0.19136789  1.0
  H  H17  1  0.34163167  0.79822448  0.30880324  1.0
  H  H18  1  0.65786763  0.20131430  0.69112623  1.0
  H  H19  1  0.65513968  0.18396258  0.29043242  1.0
  H  H20  1  0.34535974  0.81624445  0.70885184  1.0
  H  H21  1  0.35072439  0.38403146  0.86949719  1.0
  H  H22  1  0.64919183  0.61597146  0.13025114  1.0
  H  H23  1  0.65076545  0.62450666  0.87741084  1.0
  H  H24  1  0.34910824  0.37558476  0.12230891  1.0
  H  H25  1  0.34885764  0.87564894  0.37766819  1.0
  H  H26  1  0.61384910  0.35622698  0.10250126  1.0
  H  H27  1  0.65054077  0.12408688  0.62200636  1.0
  H  H28  1  0.65003174  0.11613756  0.36875536  1.0
  H  H29  1  0.35095800  0.88382754  0.63031102  1.0
  H  H30  1  0.26469549  0.42152107  0.99785207  1.0
  H  H31  1  0.73533847  0.57844071  0.00184465  1.0
  H  H32  1  0.26465439  0.92202148  0.49642002  1.0
  H  H33  1  0.73539153  0.07824241  0.49770346  1.0
  H  H34  1  0.10584873  0.42506225  0.99798926  1.0
  H  H35  1  0.89416827  0.57486276  0.00191509  1.0
  H  H36  1  0.10582973  0.92547849  0.49823185  1.0
  H  H37  1  0.38604445  0.64392306  0.89713142  1.0
  H  H38  1  0.89419358  0.07478599  0.49968598  1.0
  H  H39  1  0.70358612  0.40871962  0.99710443  1.0
  H  H40  1  0.29636364  0.59125119  0.00254171  1.0
  H  H41  1  0.70367611  0.90857400  0.50391361  1.0
  H  H42  1  0.29634898  0.09150551  0.50633200  1.0
  H  H43  1  0.82957078  0.35277981  0.99146684  1.0
  H  H44  1  0.93078756  0.38421427  0.99405534  1.0
  H  H45  1  0.17031430  0.64714229  0.00857903  1.0
  H  H46  1  0.06912356  0.61565571  0.00610616  1.0
  H  H47  1  0.82945509  0.85239408  0.50816316  1.0
  H  H48  1  0.38605163  0.14404199  0.60299022  1.0
  H  H49  1  0.93091768  0.88401648  0.50850175  1.0
  H  H50  1  0.17040651  0.14766956  0.50885886  1.0
  H  H51  1  0.06905580  0.11605454  0.50935666  1.0
  H  H52  1  0.61333933  0.85577856  0.39697528  1.0
  H  H53  1  0.62069970  0.89110168  0.63667290  1.0
  H  H54  1  0.38023862  0.10902048  0.36322389  1.0
  H  H55  1  0.38429418  0.67650930  0.21510624  1.0
  C  C56  1  0.48738467  0.41713895  0.06873889  1.0
  C  C57  1  0.10992472  0.51369632  0.00050052  1.0
  C  C58  1  0.89011757  0.98620376  0.50347263  1.0
  C  C59  1  0.10987853  0.01396566  0.50382009  1.0
  C  C60  1  0.83621975  0.43747925  0.99798951  1.0
  C  C61  1  0.16373688  0.56245766  0.00190222  1.0
  C  C62  1  0.83628587  0.93742400  0.50486000  1.0
  C  C63  1  0.16370255  0.06268368  0.50623932  1.0
  C  C64  1  0.74850722  0.44425382  0.99809158  1.0
  C  C65  1  0.25144613  0.55571135  0.00162443  1.0
  C  C66  1  0.74857263  0.94412493  0.50315054  1.0
  C  C67  1  0.51250813  0.58292111  0.93085948  1.0
  C  C68  1  0.25142839  0.05599733  0.50465300  1.0
  C  C69  1  0.48596527  0.39050911  0.87096317  1.0
  C  C70  1  0.51395195  0.60935911  0.12876802  1.0
  C  C71  1  0.51788799  0.62976438  0.89094192  1.0
  C  C72  1  0.48197772  0.37031980  0.10868999  1.0
  C  C73  1  0.48161527  0.87018384  0.39098398  1.0
  C  C74  1  0.51779839  0.12968230  0.60875183  1.0
  C  C75  1  0.51477707  0.10940699  0.37084838  1.0
  C  C76  1  0.48621239  0.89062211  0.62864300  1.0
  C  C77  1  0.56072225  0.37370448  0.84676821  1.0
  C  C78  1  0.50982234  0.56995286  0.08157958  1.0
  C  C79  1  0.43916064  0.62605000  0.15299450  1.0
  C  C80  1  0.44522538  0.65727652  0.87747366  1.0
  C  C81  1  0.55467692  0.34285985  0.12217209  1.0
  C  C82  1  0.55422618  0.84253023  0.37742418  1.0
  C  C83  1  0.44520705  0.15727822  0.62249020  1.0
  C  C84  1  0.43993368  0.12611096  0.34699801  1.0
  C  C85  1  0.56090554  0.87400619  0.65274932  1.0
  C  C86  1  0.55812876  0.33657206  0.80380687  1.0
  C  C87  1  0.44163853  0.66308397  0.19603934  1.0
  C  C88  1  0.44887242  0.69992794  0.83985444  1.0
  C  C89  1  0.49022377  0.43002537  0.91805338  1.0
  C  C90  1  0.55109912  0.30026913  0.15984353  1.0
  C  C91  1  0.55062365  0.79985698  0.33987825  1.0
  C  C92  1  0.44885681  0.19982573  0.66016401  1.0
  C  C93  1  0.44232342  0.16328029  0.30403265  1.0
  C  C94  1  0.55826405  0.83694692  0.69580688  1.0
  C  C95  1  0.47969804  0.31539933  0.78432665  1.0
  C  C96  1  0.52001628  0.68428937  0.21558541  1.0
  C  C97  1  0.52615524  0.71547420  0.81451771  1.0
  C  C98  1  0.47384578  0.28471812  0.18521742  1.0
  C  C99  1  0.47344117  0.78445228  0.31467052  1.0
  C  C100  1  0.49061049  0.93011380  0.58149339  1.0
  C  C101  1  0.52609660  0.21517530  0.68530957  1.0
  C  C102  1  0.52065553  0.18463749  0.28420651  1.0
  C  C103  1  0.47981408  0.81562637  0.71547417  1.0
  C  C104  1  0.40493390  0.33300860  0.80756482  1.0
  C  C105  1  0.59482978  0.66677012  0.19231815  1.0
  C  C106  1  0.59913099  0.68872689  0.82855149  1.0
  C  C107  1  0.40083780  0.31141749  0.17119309  1.0
  C  C108  1  0.40050733  0.81131999  0.32880209  1.0
  C  C109  1  0.59899105  0.18831982  0.67108078  1.0
  C  C110  1  0.59552780  0.16713408  0.30711136  1.0
  C  C111  1  0.51069430  0.06986410  0.41795802  1.0
  C  C112  1  0.40508580  0.83304194  0.69229784  1.0
  C  C113  1  0.40806142  0.37020573  0.85073358  1.0
  C  C114  1  0.59180470  0.62967921  0.14905895  1.0
  C  C115  1  0.59499546  0.64611535  0.86648465  1.0
  C  C116  1  0.40491169  0.35399324  0.13321055  1.0
  C  C117  1  0.40459420  0.85394407  0.36668384  1.0
  C  C118  1  0.59484117  0.14580287  0.63306954  1.0
  C  C119  1  0.59259290  0.12986426  0.35026612  1.0
  C  C120  1  0.40827245  0.87017417  0.64902719  1.0
  C  C121  1  0.76700262  0.53988753  0.00093822  1.0
  C  C122  1  0.51225994  0.08296266  0.56872895  1.0
  C  C123  1  0.23300668  0.46006805  0.99879653  1.0
  C  C124  1  0.76706468  0.03974573  0.49957011  1.0
  C  C125  1  0.23297065  0.96047257  0.49929660  1.0
  C  C126  1  0.85343124  0.53754143  0.00098387  1.0
  C  C127  1  0.14657515  0.46239062  0.99888942  1.0
  C  C128  1  0.85347337  0.03745951  0.50085766  1.0
  C  C129  1  0.14654161  0.96275561  0.50037884  1.0
  C  C130  1  0.48694421  0.91705981  0.43085749  1.0
  C  C131  1  0.89006261  0.48622520  0.99943572  1.0
  N  N132  1  0.46915855  0.27578456  0.74244686  1.0
  N  N133  1  0.28391246  0.50654176  0.00012518  1.0
  N  N134  1  0.71615525  0.99325750  0.50060696  1.0
  N  N135  1  0.28389934  0.00690750  0.50136262  1.0
  N  N136  1  0.97596193  0.47810202  0.99854466  1.0
  N  N137  1  0.02401957  0.52180697  0.00144554  1.0
  N  N138  1  0.97600625  0.97815259  0.50440292  1.0
  N  N139  1  0.02396611  0.02203177  0.50435769  1.0
  N  N140  1  0.86768388  0.38678357  0.99745436  1.0
  N  N141  1  0.13223095  0.61314203  0.00252854  1.0
  N  N142  1  0.86770334  0.88687191  0.50779186  1.0
  N  N143  1  0.53047944  0.72387728  0.25750900  1.0
  N  N144  1  0.13226754  0.11316853  0.51058023  1.0
  N  N145  1  0.53696958  0.75640894  0.77382672  1.0
  N  N146  1  0.46315413  0.24379827  0.22594056  1.0
  N  N147  1  0.46270948  0.74355893  0.27400649  1.0
  N  N148  1  0.53690181  0.25603174  0.72598783  1.0
  N  N149  1  0.53100996  0.22432557  0.24230498  1.0
  N  N150  1  0.46921669  0.77600430  0.75743766  1.0
  N  N151  1  0.71606943  0.49343550  0.99951438  1.0
  O  O152  1  0.41838707  0.43690982  0.05416512  1.0
  O  O153  1  0.43914289  0.56627572  0.94680922  1.0
  O  O154  1  0.43680422  0.55590399  0.06342828  1.0
  O  O155  1  0.56325651  0.44422347  0.93603219  1.0
  O  O156  1  0.56365467  0.94383912  0.56291522  1.0
  O  O157  1  0.43766460  0.05535354  0.43607780  1.0
  O  O158  1  0.43887007  0.06671079  0.55279739  1.0
  O  O159  1  0.56032535  0.93388985  0.44626099  1.0
  O  O160  1  0.58151204  0.56322726  0.94549412  1.0
  O  O161  1  0.57927240  0.55366836  0.06327146  1.0
  O  O162  1  0.42076642  0.44624757  0.93645183  1.0
  O  O163  1  0.42128991  0.94680609  0.56365332  1.0
  O  O164  1  0.58023134  0.05392841  0.43625746  1.0
  O  O165  1  0.58110741  0.06295863  0.55400106  1.0
  O  O166  1  0.41788878  0.93655056  0.44598290  1.0
  O  O167  1  0.56073296  0.43371558  0.05270990  1.0
