# generated using pymatgen
data_ZnH12C22BrNO4
_symmetry_space_group_name_H-M   'P 1'
_cell_length_a   11.23802831
_cell_length_b   13.97083142
_cell_length_c   16.05403480
_cell_angle_alpha   90.00002424
_cell_angle_beta   89.99998334
_cell_angle_gamma   89.99982113
_symmetry_Int_Tables_number   1
_chemical_formula_structural   ZnH12C22BrNO4
_chemical_formula_sum   'Zn2 H24 C44 Br2 N2 O8'
_cell_volume   2520.55729629
_cell_formula_units_Z   2
loop_
 _symmetry_equiv_pos_site_id
 _symmetry_equiv_pos_as_xyz
  1  'x, y, z'
loop_
 _atom_site_type_symbol
 _atom_site_label
 _atom_site_symmetry_multiplicity
 _atom_site_fract_x
 _atom_site_fract_y
 _atom_site_fract_z
 _atom_site_occupancy
  Zn  Zn0  1  0.49999944  0.09873580  0.00000059  1.0
  Zn  Zn1  1  0.50000034  0.90126595  0.99999982  1.0
  H  H2  1  0.13490141  0.15394565  0.33394286  1.0
  H  H3  1  0.86509755  0.84605387  0.33394291  1.0
  H  H4  1  0.86509794  0.15394553  0.66605742  1.0
  H  H5  1  0.13490089  0.84605487  0.66605762  1.0
  H  H6  1  0.86509837  0.84605466  0.66605755  1.0
  H  H7  1  0.13490312  0.15394573  0.66605750  1.0
  H  H8  1  0.13490274  0.84605407  0.33394298  1.0
  H  H9  1  0.86509889  0.15394545  0.33394278  1.0
  H  H10  1  0.25315261  0.15333706  0.20171316  1.0
  H  H11  1  0.74684730  0.84666383  0.20171323  1.0
  H  H12  1  0.74684674  0.15333730  0.79828712  1.0
  H  H13  1  0.25315292  0.84666316  0.79828730  1.0
  H  H14  1  0.74684717  0.84666326  0.79828725  1.0
  H  H15  1  0.25315337  0.15333649  0.79828717  1.0
  H  H16  1  0.25315304  0.84666373  0.20171266  1.0
  H  H17  1  0.74684864  0.15333644  0.20171248  1.0
  H  H18  1  0.31628186  0.25152293  0.00000064  1.0
  H  H19  1  0.68371792  0.74847810  0.99999977  1.0
  H  H20  1  0.68371909  0.25152318  0.00000060  1.0
  H  H21  1  0.31628090  0.74847761  0.00000073  1.0
  H  H22  1  0.30707439  0.42901202  0.00000067  1.0
  H  H23  1  0.69292540  0.57098758  0.99999911  1.0
  H  H24  1  0.69292300  0.42901249  0.99999909  1.0
  H  H25  1  0.30707678  0.57098711  0.00000070  1.0
  C  C26  1  0.12291203  0.99999997  0.50000077  1.0
  C  C27  1  0.87708687  0.99999963  0.50000026  1.0
  C  C28  1  0.06272800  0.00000002  0.42338639  1.0
  C  C29  1  0.93727198  0.00000036  0.42338630  1.0
  C  C30  1  0.93727178  0.99999958  0.57661401  1.0
  C  C31  1  0.06272797  0.00000006  0.57661454  1.0
  C  C32  1  0.12847871  0.99999982  0.34282738  1.0
  C  C33  1  0.87152203  0.99999971  0.34282775  1.0
  C  C34  1  0.87152196  0.99999978  0.65717302  1.0
  C  C35  1  0.12847792  0.00000000  0.65717310  1.0
  C  C36  1  0.16033661  0.08651369  0.30467169  1.0
  C  C37  1  0.83966414  0.91348581  0.30467116  1.0
  C  C38  1  0.83966299  0.08651365  0.69532856  1.0
  C  C39  1  0.16033671  0.91348676  0.69532816  1.0
  C  C40  1  0.83966317  0.91348591  0.69532809  1.0
  C  C41  1  0.16033742  0.08651450  0.69532863  1.0
  C  C42  1  0.16033679  0.91348595  0.30467185  1.0
  C  C43  1  0.83966396  0.08651356  0.30467225  1.0
  C  C44  1  0.22590151  0.08653149  0.23109766  1.0
  C  C45  1  0.77409838  0.91346870  0.23109776  1.0
  C  C46  1  0.77409810  0.08653236  0.76890259  1.0
  C  C47  1  0.22590246  0.91346880  0.76890280  1.0
  C  C48  1  0.77409827  0.91346883  0.76890212  1.0
  C  C49  1  0.22590229  0.08653233  0.76890203  1.0
  C  C50  1  0.22590169  0.91346796  0.23109781  1.0
  C  C51  1  0.77409910  0.08653223  0.23109760  1.0
  C  C52  1  0.26055278  0.99999972  0.19427575  1.0
  C  C53  1  0.73944729  0.99999912  0.19427507  1.0
  C  C54  1  0.73944627  0.99999998  0.80572448  1.0
  C  C55  1  0.26055355  0.99999987  0.80572390  1.0
  C  C56  1  0.33944920  0.00000032  0.11899996  1.0
  C  C57  1  0.66055179  0.00000206  0.11899992  1.0
  C  C58  1  0.66055074  0.00000153  0.88100027  1.0
  C  C59  1  0.33944993  0.00000050  0.88100030  1.0
  C  C60  1  0.39709934  0.29471067  0.00000064  1.0
  C  C61  1  0.60290045  0.70528894  0.99999915  1.0
  C  C62  1  0.60290124  0.29470994  0.99999907  1.0
  C  C63  1  0.39709854  0.70528967  0.00000134  1.0
  C  C64  1  0.39356184  0.39406792  0.99999973  1.0
  C  C65  1  0.60643774  0.60593264  0.99999850  1.0
  C  C66  1  0.60643726  0.39406765  0.99999784  1.0
  C  C67  1  0.39356252  0.60593338  0.00000069  1.0
  C  C68  1  0.50000122  0.44689714  0.99999786  1.0
  C  C69  1  0.49999924  0.55310485  0.99999851  1.0
  Br  Br70  1  0.29282690  0.99999965  0.49999907  1.0
  Br  Br71  1  0.70717288  0.99999995  0.49999884  1.0
  N  N72  1  0.50000004  0.24588023  0.00000124  1.0
  N  N73  1  0.49999906  0.75412056  0.00000133  1.0
  O  O74  1  0.37141106  0.08119157  0.09044142  1.0
  O  O75  1  0.62858889  0.91880711  0.09044030  1.0
  O  O76  1  0.62858946  0.08119145  0.90955946  1.0
  O  O77  1  0.37141104  0.91880763  0.90955964  1.0
  O  O78  1  0.62858783  0.91880660  0.90955899  1.0
  O  O79  1  0.37141089  0.08119249  0.90955886  1.0
  O  O80  1  0.37141121  0.91880672  0.09044032  1.0
  O  O81  1  0.62858874  0.08119125  0.09044139  1.0
