# generated using pymatgen
data_AlH10C19I2NO5
_symmetry_space_group_name_H-M   'P 1'
_cell_length_a   6.63763435
_cell_length_b   25.73622092
_cell_length_c   28.52277969
_cell_angle_alpha   90.35459595
_cell_angle_beta   90.43323342
_cell_angle_gamma   88.48925167
_symmetry_Int_Tables_number   1
_chemical_formula_structural   AlH10C19I2NO5
_chemical_formula_sum   'Al4 H40 C76 I8 N4 O20'
_cell_volume   4870.55832398
_cell_formula_units_Z   4
loop_
 _symmetry_equiv_pos_site_id
 _symmetry_equiv_pos_as_xyz
  1  'x, y, z'
loop_
 _atom_site_type_symbol
 _atom_site_label
 _atom_site_symmetry_multiplicity
 _atom_site_fract_x
 _atom_site_fract_y
 _atom_site_fract_z
 _atom_site_occupancy
  Al  Al0  1  0.77088102  0.74852662  0.74685950  1.0
  Al  Al1  1  0.22911634  0.25147440  0.25314217  1.0
  Al  Al2  1  0.27099187  0.74691998  0.74567513  1.0
  Al  Al3  1  0.72900840  0.25308259  0.25432585  1.0
  H  H4  1  0.69480028  0.65045083  0.63761751  1.0
  H  H5  1  0.30521210  0.34955093  0.36238420  1.0
  H  H6  1  0.33255048  0.56925059  0.57791800  1.0
  H  H7  1  0.66745137  0.43075080  0.42208054  1.0
  H  H8  1  0.33964029  0.63482346  0.64371916  1.0
  H  H9  1  0.66036767  0.36517675  0.35628078  1.0
  H  H10  1  0.75320012  0.67551065  0.87429183  1.0
  H  H11  1  0.24679003  0.32448573  0.12571367  1.0
  H  H12  1  0.15070439  0.47321999  0.92399213  1.0
  H  H13  1  0.84931445  0.52677515  0.07600816  1.0
  H  H14  1  0.24159513  0.05356973  0.39751544  1.0
  H  H15  1  0.75839311  0.94643247  0.60248237  1.0
  H  H16  1  0.23451308  0.12180563  0.33547037  1.0
  H  H17  1  0.76547636  0.87820124  0.66453167  1.0
  H  H18  1  0.20208708  0.06045284  0.49571964  1.0
  H  H19  1  0.79790446  0.93954508  0.50427956  1.0
  H  H20  1  0.76361183  0.11294848  0.05242393  1.0
  H  H21  1  0.23638389  0.88705449  0.94757670  1.0
  H  H22  1  0.20412081  0.05459891  0.10371846  1.0
  H  H23  1  0.79587798  0.94540327  0.89628252  1.0
  H  H24  1  0.21133498  0.11966520  0.16791540  1.0
  H  H25  1  0.78867449  0.88033502  0.83208770  1.0
  H  H26  1  0.34500823  0.97963753  0.07638467  1.0
  H  H27  1  0.65499204  0.02036504  0.92361526  1.0
  H  H28  1  0.35873186  0.91328986  0.01422414  1.0
  H  H29  1  0.64126230  0.08671388  0.98577509  1.0
  H  H30  1  0.13720285  0.41026074  0.98823221  1.0
  H  H31  1  0.86281911  0.58973283  0.01176773  1.0
  H  H32  1  0.20517453  0.98663924  0.55130582  1.0
  H  H33  1  0.79481849  0.01335907  0.44869339  1.0
  H  H34  1  0.68656813  0.58536456  0.57153020  1.0
  H  H35  1  0.31343070  0.41463723  0.42847219  1.0
  H  H36  1  0.73488419  0.61436672  0.94087316  1.0
  H  H37  1  0.26512711  0.38562884  0.05913168  1.0
  H  H38  1  0.29689907  0.54252382  0.89686540  1.0
  H  H39  1  0.70310153  0.45747368  0.10313066  1.0
  H  H40  1  0.52810221  0.68395023  0.76627264  1.0
  H  H41  1  0.47189510  0.31605157  0.23372869  1.0
  H  H42  1  0.02165180  0.80949109  0.76912021  1.0
  H  H43  1  0.97834551  0.19051071  0.23088042  1.0
  C  C44  1  0.51228069  0.80455263  0.67930749  1.0
  C  C45  1  0.48768802  0.19544884  0.32069449  1.0
  C  C46  1  0.51519495  0.81165134  0.81067513  1.0
  C  C47  1  0.48479184  0.18835009  0.18932653  1.0
  C  C48  1  0.03059114  0.68408704  0.80989642  1.0
  C  C49  1  0.96939126  0.31591246  0.19010522  1.0
  C  C50  1  0.02124819  0.68385266  0.68423019  1.0
  C  C51  1  0.97876125  0.31614794  0.31577116  1.0
  C  C52  1  0.83305190  0.63226320  0.62422916  1.0
  C  C53  1  0.16695604  0.36773740  0.37577253  1.0
  C  C54  1  0.82845326  0.59631240  0.58773453  1.0
  C  C55  1  0.17154556  0.40368940  0.41226645  1.0
  C  C56  1  0.00905707  0.57324050  0.57117885  1.0
  C  C57  1  0.99093883  0.42675975  0.42882177  1.0
  C  C58  1  0.19417049  0.58728541  0.59130628  1.0
  C  C59  1  0.80582986  0.41271599  0.40869400  1.0
  C  C60  1  0.19806794  0.62341900  0.62765951  1.0
  C  C61  1  0.80193696  0.37658200  0.37234183  1.0
  C  C62  1  0.01771328  0.64583649  0.64458453  1.0
  C  C63  1  0.98229162  0.35416451  0.35541751  1.0
  C  C64  1  0.99572364  0.46563563  0.46678515  1.0
  C  C65  1  0.00427224  0.53436501  0.53321478  1.0
  C  C66  1  0.87350274  0.64661414  0.88022799  1.0
  C  C67  1  0.12649481  0.35338417  0.11977614  1.0
  C  C68  1  0.86429786  0.61245188  0.91755017  1.0
  C  C69  1  0.13571193  0.38754368  0.08245326  1.0
  C  C70  1  0.01644538  0.57411405  0.92419225  1.0
  C  C71  1  0.98356588  0.42588189  0.07580873  1.0
  C  C72  1  0.17656606  0.57168115  0.89223156  1.0
  C  C73  1  0.82343610  0.42831558  0.10776660  1.0
  C  C74  1  0.18569730  0.60619664  0.85482571  1.0
  C  C75  1  0.81429567  0.39380245  0.14517350  1.0
  C  C76  1  0.03411467  0.64480012  0.84829105  1.0
  C  C77  1  0.96587825  0.35519975  0.15170956  1.0
  C  C78  1  0.08717370  0.48547677  0.95756399  1.0
  C  C79  1  0.91284669  0.51451797  0.04243630  1.0
  C  C80  1  0.07924386  0.44982813  0.99388149  1.0
  C  C81  1  0.92077800  0.55016700  0.00611811  1.0
  C  C82  1  0.99170854  0.46355922  0.03711840  1.0
  C  C83  1  0.00830878  0.53643632  0.96288259  1.0
  C  C84  1  0.62690004  0.16516161  0.40114179  1.0
  C  C85  1  0.37310805  0.83483666  0.59885919  1.0
  C  C86  1  0.62811330  0.12700894  0.43639374  1.0
  C  C87  1  0.37188884  0.87298818  0.56360548  1.0
  C  C88  1  0.49406736  0.08531857  0.43441925  1.0
  C  C89  1  0.50592716  0.91467973  0.56557995  1.0
  C  C90  1  0.34930956  0.08485026  0.39836679  1.0
  C  C91  1  0.65068325  0.91515116  0.60163278  1.0
  C  C92  1  0.34605492  0.12241794  0.36367776  1.0
  C  C93  1  0.65393618  0.87758660  0.63632322  1.0
  C  C94  1  0.48898234  0.16154323  0.36333161  1.0
  C  C95  1  0.51101944  0.83845933  0.63667008  1.0
  C  C96  1  0.33245362  0.03376827  0.49743319  1.0
  C  C97  1  0.66754090  0.96623003  0.50256427  1.0
  C  C98  1  0.33429198  0.99233737  0.52864677  1.0
  C  C99  1  0.66570109  0.00766015  0.47135138  1.0
  C  C100  1  0.50142119  0.95796625  0.53143249  1.0
  C  C101  1  0.49857188  0.04203127  0.46856531  1.0
  C  C102  1  0.64307906  0.15106768  0.11357881  1.0
  C  C103  1  0.35691825  0.84893411  0.88642217  1.0
  C  C104  1  0.64108199  0.11406789  0.07763216  1.0
  C  C105  1  0.35891672  0.88593546  0.92236813  1.0
  C  C106  1  0.48694725  0.07787849  0.07378981  1.0
  C  C107  1  0.51304998  0.92212447  0.92621047  1.0
  C  C108  1  0.33055446  0.08063969  0.10675827  1.0
  C  C109  1  0.66944888  0.91936210  0.89324342  1.0
  C  C110  1  0.33333333  0.11734172  0.14260760  1.0
  C  C111  1  0.66666667  0.88265890  0.85739514  1.0
  C  C112  1  0.49034062  0.15267422  0.14765470  1.0
  C  C113  1  0.50966573  0.84732756  0.85234734  1.0
  C  C114  1  0.41065512  0.98913228  0.04266826  1.0
  C  C115  1  0.58934058  0.01087107  0.95733132  1.0
  C  C116  1  0.41853240  0.95156131  0.00746109  1.0
  C  C117  1  0.58146179  0.04844204  0.99253849  1.0
  C  C118  1  0.50778869  0.96159379  0.96396919  1.0
  C  C119  1  0.49220402  0.03840918  0.03603109  1.0
  I  I120  1  0.81012256  0.23033969  0.40789450  1.0
  I  I121  1  0.18990839  0.76965464  0.59210405  1.0
  I  I122  1  0.81956749  0.13249263  0.49570014  1.0
  I  I123  1  0.18043022  0.86750334  0.50430047  1.0
  I  I124  1  0.87671590  0.20497107  0.10975687  1.0
  I  I125  1  0.12329048  0.79503032  0.89024518  1.0
  I  I126  1  0.42766777  0.59179159  0.80819623  1.0
  I  I127  1  0.57231006  0.40820830  0.19179910  1.0
  N  N128  1  0.18168944  0.51200868  0.51952761  1.0
  N  N129  1  0.81830793  0.48799233  0.48047232  1.0
  N  N130  1  0.17735330  0.47706474  0.48572860  1.0
  N  N131  1  0.82264255  0.52293628  0.51427132  1.0
  O  O132  1  0.34752508  0.79852474  0.79295639  1.0
  O  O133  1  0.65248114  0.20147898  0.20704531  1.0
  O  O134  1  0.68342511  0.79443893  0.69792810  1.0
  O  O135  1  0.31659180  0.20556283  0.30207536  1.0
  O  O136  1  0.85162377  0.70043568  0.69941425  1.0
  O  O137  1  0.14836915  0.29956419  0.30058742  1.0
  O  O138  1  0.68908489  0.79841218  0.79522747  1.0
  O  O139  1  0.31092148  0.20158920  0.20477282  1.0
  O  O140  1  0.85695350  0.69980847  0.79573359  1.0
  O  O141  1  0.14304249  0.30019061  0.20426773  1.0
  O  O142  1  0.34385337  0.79097704  0.69534953  1.0
  O  O143  1  0.65616190  0.20902666  0.30465113  1.0
  O  O144  1  0.52506372  0.71653592  0.74903715  1.0
  O  O145  1  0.47493058  0.28346588  0.25096383  1.0
  O  O146  1  0.19896235  0.69920021  0.79502739  1.0
  O  O147  1  0.80103052  0.30080043  0.20497323  1.0
  O  O148  1  0.19237003  0.69657387  0.70039913  1.0
  O  O149  1  0.80762131  0.30342717  0.29960219  1.0
  O  O150  1  0.01912562  0.77987821  0.74790650  1.0
  O  O151  1  0.98087475  0.22012280  0.25209448  1.0
