# generated using pymatgen
data_Zn4H12C58Cl24O13
_symmetry_space_group_name_H-M   'P 1'
_cell_length_a   21.53465048
_cell_length_b   21.53467171
_cell_length_c   34.54927616
_cell_angle_alpha   89.99961572
_cell_angle_beta   90.00036187
_cell_angle_gamma   89.99980337
_symmetry_Int_Tables_number   1
_chemical_formula_structural   Zn4H12C58Cl24O13
_chemical_formula_sum   'Zn8 H24 C116 Cl48 O26'
_cell_volume   16021.93758834
_cell_formula_units_Z   2
loop_
 _symmetry_equiv_pos_site_id
 _symmetry_equiv_pos_as_xyz
  1  'x, y, z'
loop_
 _atom_site_type_symbol
 _atom_site_label
 _atom_site_symmetry_multiplicity
 _atom_site_fract_x
 _atom_site_fract_y
 _atom_site_fract_z
 _atom_site_occupancy
  Zn  Zn0  1  0.44860618  0.44753717  0.96642281  1.0
  Zn  Zn1  1  0.44860684  0.55246786  0.03357787  1.0
  Zn  Zn2  1  0.55139104  0.55246778  0.96642337  1.0
  Zn  Zn3  1  0.55139206  0.44753644  0.03357887  1.0
  Zn  Zn4  1  0.55247083  0.55139091  0.53357697  1.0
  Zn  Zn5  1  0.44753449  0.55139006  0.46641935  1.0
  Zn  Zn6  1  0.44753222  0.44860986  0.53357872  1.0
  Zn  Zn7  1  0.55246602  0.44860447  0.46642180  1.0
  H  H8  1  0.56167986  0.57846508  0.84809409  1.0
  H  H9  1  0.43832173  0.42153928  0.84809301  1.0
  H  H10  1  0.42153845  0.43832168  0.65190678  1.0
  H  H11  1  0.57846672  0.56167968  0.65190828  1.0
  H  H12  1  0.53538775  0.63245016  0.76193351  1.0
  H  H13  1  0.60526088  0.61528874  0.78661871  1.0
  H  H14  1  0.46461715  0.36754863  0.76193363  1.0
  H  H15  1  0.39474613  0.38471164  0.78661849  1.0
  H  H16  1  0.36755143  0.46461890  0.73806704  1.0
  H  H17  1  0.38471121  0.39474749  0.71338218  1.0
  H  H18  1  0.63245694  0.53538247  0.73806712  1.0
  H  H19  1  0.61529319  0.60525832  0.71338104  1.0
  H  H20  1  0.56167892  0.42153817  0.15190559  1.0
  H  H21  1  0.43831793  0.57846300  0.15190618  1.0
  H  H22  1  0.42153716  0.56167648  0.34809292  1.0
  H  H23  1  0.57846586  0.43831608  0.34809378  1.0
  H  H24  1  0.53537951  0.36754529  0.23806520  1.0
  H  H25  1  0.60525233  0.38470786  0.21338056  1.0
  H  H26  1  0.46462054  0.63244938  0.23806711  1.0
  H  H27  1  0.39474608  0.61529126  0.21338227  1.0
  H  H28  1  0.36754797  0.53538455  0.26193332  1.0
  H  H29  1  0.38471380  0.60525590  0.28661853  1.0
  H  H30  1  0.63244861  0.46461265  0.26193226  1.0
  H  H31  1  0.61528814  0.39474150  0.28661653  1.0
  C  C32  1  0.33566270  0.50000234  0.99999916  1.0
  C  C33  1  0.49999993  0.66546434  0.00000076  1.0
  C  C34  1  0.49999825  0.50000077  0.89512608  1.0
  C  C35  1  0.66434000  0.50000437  0.00000172  1.0
  C  C36  1  0.50000138  0.33453680  0.99999925  1.0
  C  C37  1  0.49999842  0.50000084  0.10487653  1.0
  C  C38  1  0.49999596  0.66433881  0.49999764  1.0
  C  C39  1  0.33453082  0.50000364  0.49999939  1.0
  C  C40  1  0.50000421  0.50000186  0.60487746  1.0
  C  C41  1  0.49999374  0.33566187  0.50000382  1.0
  C  C42  1  0.66546631  0.49999796  0.49999744  1.0
  C  C43  1  0.50000036  0.49999417  0.39512169  1.0
  C  C44  1  0.49999934  0.73530752  0.00000062  1.0
  C  C45  1  0.55623332  0.76769796  0.00293647  1.0
  C  C46  1  0.55614823  0.83289097  0.00279942  1.0
  C  C47  1  0.44376335  0.76769559  0.99706330  1.0
  C  C48  1  0.44385008  0.83288953  0.99719601  1.0
  C  C49  1  0.49999862  0.86567979  0.99999553  1.0
  C  C50  1  0.49999850  0.93461142  0.99999713  1.0
  C  C51  1  0.49981523  0.96740188  0.03510825  1.0
  C  C52  1  0.50018494  0.96740106  0.96488460  1.0
  C  C53  1  0.49999918  0.26469408  0.99999882  1.0
  C  C54  1  0.44376573  0.23230249  0.00293852  1.0
  C  C55  1  0.44385175  0.16710994  0.00280233  1.0
  C  C56  1  0.55623603  0.23230623  0.99706174  1.0
  C  C57  1  0.55614931  0.16711462  0.99719618  1.0
  C  C58  1  0.50000080  0.13432293  0.99999619  1.0
  C  C59  1  0.50000231  0.06539037  0.99999808  1.0
  C  C60  1  0.49981366  0.03260204  0.96488424  1.0
  C  C61  1  0.50018740  0.03260101  0.03510933  1.0
  C  C62  1  0.56827949  0.59466216  0.76885999  1.0
  C  C63  1  0.43172687  0.40534073  0.76885925  1.0
  C  C64  1  0.40533939  0.43172726  0.73114229  1.0
  C  C65  1  0.59466519  0.56827603  0.73114266  1.0
  C  C66  1  0.53481151  0.54436578  0.83184485  1.0
  C  C67  1  0.53437991  0.54540340  0.79157078  1.0
  C  C68  1  0.46518945  0.45563829  0.83184490  1.0
  C  C69  1  0.46562622  0.45459786  0.79157112  1.0
  C  C70  1  0.45564167  0.46519262  0.66815605  1.0
  C  C71  1  0.45460215  0.46562566  0.70843185  1.0
  C  C72  1  0.54436739  0.53481321  0.66815781  1.0
  C  C73  1  0.54540871  0.53437928  0.70843073  1.0
  C  C74  1  0.49999896  0.50000053  0.85213155  1.0
  C  C75  1  0.50000505  0.49999957  0.77121148  1.0
  C  C76  1  0.50000350  0.50000070  0.64786938  1.0
  C  C77  1  0.50000344  0.49999980  0.72879033  1.0
  C  C78  1  0.56827105  0.40533503  0.23113942  1.0
  C  C79  1  0.43172707  0.59466297  0.23114078  1.0
  C  C80  1  0.40533867  0.56827513  0.26885851  1.0
  C  C81  1  0.59466076  0.43172106  0.26885714  1.0
  C  C82  1  0.53481155  0.45563756  0.16815530  1.0
  C  C83  1  0.53437571  0.45459438  0.20842879  1.0
  C  C84  1  0.46518408  0.54436251  0.16815787  1.0
  C  C85  1  0.46562125  0.54540386  0.20843049  1.0
  C  C86  1  0.45563613  0.53480914  0.33184205  1.0
  C  C87  1  0.45459388  0.53437564  0.29157001  1.0
  C  C88  1  0.54436395  0.46518266  0.33184237  1.0
  C  C89  1  0.54540253  0.46561938  0.29156744  1.0
  C  C90  1  0.49999725  0.50000061  0.14787164  1.0
  C  C91  1  0.49999766  0.49999785  0.22878882  1.0
  C  C92  1  0.50000153  0.49999208  0.35212744  1.0
  C  C93  1  0.49999880  0.49999669  0.27120968  1.0
  C  C94  1  0.73441915  0.50000518  0.00000041  1.0
  C  C95  1  0.76706679  0.49641734  0.96495123  1.0
  C  C96  1  0.83233834  0.49652171  0.96500115  1.0
  C  C97  1  0.76706996  0.50358196  0.03504925  1.0
  C  C98  1  0.83234244  0.50347133  0.03499786  1.0
  C  C99  1  0.86532071  0.49999679  0.99999904  1.0
  C  C100  1  0.93441075  0.49999713  0.99999715  1.0
  C  C101  1  0.96737915  0.44374852  0.00008985  1.0
  C  C102  1  0.96737706  0.55624590  0.99990274  1.0
  C  C103  1  0.26558355  0.50000385  0.99999844  1.0
  C  C104  1  0.23293175  0.49642372  0.03504763  1.0
  C  C105  1  0.16766159  0.49652878  0.03499714  1.0
  C  C106  1  0.23293366  0.50358716  0.96495046  1.0
  C  C107  1  0.16766211  0.50347814  0.96500098  1.0
  C  C108  1  0.13468057  0.50000036  0.99999905  1.0
  C  C109  1  0.06558866  0.49999770  0.99999776  1.0
  C  C110  1  0.03262081  0.55624824  0.00009009  1.0
  C  C111  1  0.03262236  0.44374939  0.99990345  1.0
  C  C112  1  0.26469268  0.50000004  0.49999896  1.0
  C  C113  1  0.23230264  0.44376476  0.49706119  1.0
  C  C114  1  0.16710910  0.44385263  0.49719680  1.0
  C  C115  1  0.23230433  0.55623637  0.50293430  1.0
  C  C116  1  0.16711219  0.55615336  0.50279871  1.0
  C  C117  1  0.13432233  0.50000213  0.49999929  1.0
  C  C118  1  0.06539109  0.50000503  0.50000031  1.0
  C  C119  1  0.03260329  0.50018777  0.46488605  1.0
  C  C120  1  0.03259993  0.49981729  0.53511126  1.0
  C  C121  1  0.73530677  0.49999831  0.49999700  1.0
  C  C122  1  0.76769539  0.55623502  0.49706056  1.0
  C  C123  1  0.83288893  0.55614900  0.49719499  1.0
  C  C124  1  0.76769887  0.44376891  0.50293327  1.0
  C  C125  1  0.83289333  0.44385239  0.50279563  1.0
  C  C126  1  0.86568038  0.50000180  0.49999580  1.0
  C  C127  1  0.93461254  0.50000307  0.49999883  1.0
  C  C128  1  0.96740173  0.50018997  0.53511020  1.0
  C  C129  1  0.96740324  0.49981328  0.46488615  1.0
  C  C130  1  0.49999247  0.26558232  0.50000368  1.0
  C  C131  1  0.50357437  0.23293617  0.53505630  1.0
  C  C132  1  0.50347186  0.16766376  0.53500347  1.0
  C  C133  1  0.49641857  0.23293424  0.46495409  1.0
  C  C134  1  0.49652920  0.16766089  0.46500691  1.0
  C  C135  1  0.50000244  0.13468132  0.50000482  1.0
  C  C136  1  0.50000628  0.06558856  0.50000497  1.0
  C  C137  1  0.55625568  0.03262209  0.49991137  1.0
  C  C138  1  0.44375699  0.03262275  0.50009812  1.0
  C  C139  1  0.49999584  0.73441742  0.49999952  1.0
  C  C140  1  0.50357124  0.76706867  0.46495183  1.0
  C  C141  1  0.50347083  0.83233969  0.46500235  1.0
  C  C142  1  0.49641801  0.76706506  0.53504909  1.0
  C  C143  1  0.49652424  0.83233654  0.53499946  1.0
  C  C144  1  0.50000398  0.86531703  0.50000185  1.0
  C  C145  1  0.50000572  0.93440840  0.50000315  1.0
  C  C146  1  0.44375863  0.96737858  0.49991151  1.0
  C  C147  1  0.55625222  0.96737885  0.50009639  1.0
  Cl  Cl148  1  0.37525567  0.72750567  0.99246431  1.0
  Cl  Cl149  1  0.37532416  0.87335278  0.99404840  1.0
  Cl  Cl150  1  0.62474115  0.72750496  0.00753649  1.0
  Cl  Cl151  1  0.62467402  0.87335396  0.00594136  1.0
  Cl  Cl152  1  0.49907114  0.92701376  0.07795525  1.0
  Cl  Cl153  1  0.50092915  0.07298588  0.07795733  1.0
  Cl  Cl154  1  0.50092407  0.92701804  0.92203661  1.0
  Cl  Cl155  1  0.49907688  0.07299017  0.92203666  1.0
  Cl  Cl156  1  0.62467613  0.12665000  0.99404901  1.0
  Cl  Cl157  1  0.62474413  0.27249157  0.99246459  1.0
  Cl  Cl158  1  0.37532554  0.12664693  0.00594677  1.0
  Cl  Cl159  1  0.37525889  0.27249126  0.00753869  1.0
  Cl  Cl160  1  0.72710249  0.50991577  0.07790100  1.0
  Cl  Cl161  1  0.87273569  0.50761736  0.07778435  1.0
  Cl  Cl162  1  0.72709008  0.49007948  0.92210251  1.0
  Cl  Cl163  1  0.87272328  0.49237367  0.92221336  1.0
  Cl  Cl164  1  0.92709025  0.37495256  0.00046705  1.0
  Cl  Cl165  1  0.07291289  0.37495515  0.99952625  1.0
  Cl  Cl166  1  0.92708513  0.62503922  0.99952480  1.0
  Cl  Cl167  1  0.07290739  0.62504421  0.00046630  1.0
  Cl  Cl168  1  0.12727349  0.50762989  0.92221331  1.0
  Cl  Cl169  1  0.27290901  0.50992454  0.92210100  1.0
  Cl  Cl170  1  0.12727156  0.49238321  0.07778408  1.0
  Cl  Cl171  1  0.27290058  0.49008759  0.07789956  1.0
  Cl  Cl172  1  0.27249853  0.62474162  0.50752825  1.0
  Cl  Cl173  1  0.12665171  0.62468151  0.50594385  1.0
  Cl  Cl174  1  0.27249284  0.37525705  0.49246334  1.0
  Cl  Cl175  1  0.12664419  0.37532695  0.49405469  1.0
  Cl  Cl176  1  0.07298868  0.50092303  0.42204008  1.0
  Cl  Cl177  1  0.92701369  0.49907106  0.42204060  1.0
  Cl  Cl178  1  0.07298623  0.49907865  0.57795941  1.0
  Cl  Cl179  1  0.92701262  0.50092815  0.57795733  1.0
  Cl  Cl180  1  0.87335755  0.37532607  0.50594324  1.0
  Cl  Cl181  1  0.72751075  0.37525619  0.50752736  1.0
  Cl  Cl182  1  0.87335381  0.62467472  0.49405159  1.0
  Cl  Cl183  1  0.72750607  0.62474324  0.49245705  1.0
  Cl  Cl184  1  0.49008431  0.27290119  0.42210216  1.0
  Cl  Cl185  1  0.49238643  0.12726674  0.42221940  1.0
  Cl  Cl186  1  0.50990339  0.27291193  0.57790517  1.0
  Cl  Cl187  1  0.50761802  0.12727284  0.57779172  1.0
  Cl  Cl188  1  0.62505171  0.07291003  0.49953370  1.0
  Cl  Cl189  1  0.62504746  0.92708697  0.50046912  1.0
  Cl  Cl190  1  0.37496546  0.07291603  0.50047389  1.0
  Cl  Cl191  1  0.37496121  0.92709344  0.49953692  1.0
  Cl  Cl192  1  0.49237990  0.87271725  0.57778869  1.0
  Cl  Cl193  1  0.49008432  0.72708605  0.57789868  1.0
  Cl  Cl194  1  0.50761874  0.87273245  0.42221585  1.0
  Cl  Cl195  1  0.50990089  0.72710357  0.42209719  1.0
  O  O196  1  0.49999924  0.50000113  0.99999890  1.0
  O  O197  1  0.36160229  0.45294338  0.98484385  1.0
  O  O198  1  0.47654397  0.63963564  0.02960139  1.0
  O  O199  1  0.54364422  0.52999363  0.91199564  1.0
  O  O200  1  0.36160000  0.54706055  0.01515561  1.0
  O  O201  1  0.45635245  0.47000819  0.91199472  1.0
  O  O202  1  0.52345500  0.63963003  0.97040412  1.0
  O  O203  1  0.63839929  0.54706275  0.98484218  1.0
  O  O204  1  0.52345304  0.36036685  0.02959715  1.0
  O  O205  1  0.63840289  0.45294905  0.01515867  1.0
  O  O206  1  0.47653993  0.36037487  0.97040200  1.0
  O  O207  1  0.45634492  0.52998660  0.08800772  1.0
  O  O208  1  0.54365036  0.47001711  0.08800918  1.0
  O  O209  1  0.50000228  0.49999918  0.50000058  1.0
  O  O210  1  0.54705605  0.63839583  0.51515469  1.0
  O  O211  1  0.36036667  0.52345338  0.47039733  1.0
  O  O212  1  0.47000649  0.45635983  0.58800796  1.0
  O  O213  1  0.45293921  0.63839987  0.48484012  1.0
  O  O214  1  0.53000314  0.54364501  0.58800847  1.0
  O  O215  1  0.36036891  0.47654545  0.52959808  1.0
  O  O216  1  0.45293520  0.36160329  0.51515971  1.0
  O  O217  1  0.63963156  0.47654390  0.47039710  1.0
  O  O218  1  0.54705405  0.36159725  0.48484377  1.0
  O  O219  1  0.63963178  0.52345908  0.52959593  1.0
  O  O220  1  0.47001195  0.54364513  0.41199020  1.0
  O  O221  1  0.52998847  0.45634302  0.41199079  1.0
