# generated using pymatgen
data_CuSiH12C24(N2F5)2
_symmetry_space_group_name_H-M   'P 1'
_cell_length_a   7.97423520
_cell_length_b   13.77242354
_cell_length_c   13.77239185
_cell_angle_alpha   90.00703086
_cell_angle_beta   89.98460332
_cell_angle_gamma   89.98542053
_symmetry_Int_Tables_number   1
_chemical_formula_structural   CuSiH12C24(N2F5)2
_chemical_formula_sum   'Cu1 Si1 H12 C24 N4 F10'
_cell_volume   1512.54654775
_cell_formula_units_Z   1
loop_
 _symmetry_equiv_pos_site_id
 _symmetry_equiv_pos_as_xyz
  1  'x, y, z'
loop_
 _atom_site_type_symbol
 _atom_site_label
 _atom_site_symmetry_multiplicity
 _atom_site_fract_x
 _atom_site_fract_y
 _atom_site_fract_z
 _atom_site_occupancy
  Cu  Cu0  1  0.50001073  0.49999165  0.50000314  1.0
  Si  Si1  1  0.00000917  0.50000224  0.49999323  1.0
  H  H2  1  0.24081156  0.65597742  0.50013877  1.0
  H  H3  1  0.22906880  0.83642651  0.50010062  1.0
  H  H4  1  0.76553987  0.65798359  0.49985217  1.0
  H  H5  1  0.23446907  0.34200334  0.50009747  1.0
  H  H6  1  0.75919233  0.34401679  0.49996988  1.0
  H  H7  1  0.77095013  0.16356914  0.50001965  1.0
  H  H8  1  0.24082713  0.50018941  0.65597651  1.0
  H  H9  1  0.22907959  0.50010765  0.83642897  1.0
  H  H10  1  0.76555542  0.49988750  0.65798276  1.0
  H  H11  1  0.23448234  0.50017277  0.34201190  1.0
  H  H12  1  0.75921066  0.49970022  0.34402177  1.0
  H  H13  1  0.77095945  0.49977908  0.16356931  1.0
  C  C14  1  0.35552627  0.69871488  0.50006894  1.0
  C  C15  1  0.34968574  0.79931923  0.50006031  1.0
  C  C16  1  0.49951718  0.85351553  0.50002196  1.0
  C  C17  1  0.64903609  0.79938669  0.49996247  1.0
  C  C18  1  0.64819638  0.69867607  0.49994692  1.0
  C  C19  1  0.50046563  0.95577924  0.50002381  1.0
  C  C20  1  0.49955958  0.04420843  0.50003474  1.0
  C  C21  1  0.50050428  0.14647214  0.50003949  1.0
  C  C22  1  0.35098036  0.20060025  0.50004961  1.0
  C  C23  1  0.35181380  0.30131014  0.50005645  1.0
  C  C24  1  0.64448138  0.30127787  0.50001139  1.0
  C  C25  1  0.65032818  0.20067062  0.50002293  1.0
  C  C26  1  0.35553629  0.50010916  0.69871869  1.0
  C  C27  1  0.34969700  0.50007145  0.79932257  1.0
  C  C28  1  0.49952776  0.50001120  0.85352057  1.0
  C  C29  1  0.64904861  0.49996974  0.79938955  1.0
  C  C30  1  0.64821393  0.49997524  0.69867943  1.0
  C  C31  1  0.50046991  0.49997893  0.95577724  1.0
  C  C32  1  0.49956411  0.49995137  0.04421959  1.0
  C  C33  1  0.50051629  0.49993217  0.14647626  1.0
  C  C34  1  0.35099418  0.50002663  0.20060801  1.0
  C  C35  1  0.35182509  0.50003929  0.30131813  1.0
  C  C36  1  0.64449773  0.49981098  0.30128540  1.0
  C  C37  1  0.65034956  0.49984215  0.20067644  1.0
  N  N38  1  0.50209958  0.64949824  0.49999763  1.0
  N  N39  1  0.49791185  0.35049088  0.50004059  1.0
  N  N40  1  0.50211147  0.50004134  0.64950352  1.0
  N  N41  1  0.49792254  0.49992744  0.35050057  1.0
  F  F42  1  0.21773048  0.49976033  0.49976060  1.0
  F  F43  1  0.78228723  0.50023968  0.50022752  1.0
  F  F44  1  0.00001529  0.58771853  0.41228182  1.0
  F  F45  1  0.00000054  0.41228450  0.58770391  1.0
  F  F46  1  0.99993714  0.58772628  0.58772651  1.0
  F  F47  1  0.00008056  0.41227736  0.41226306  1.0
  F  F48  1  0.79796503  0.84635048  0.49990488  1.0
  F  F49  1  0.20205771  0.15363064  0.50004549  1.0
  F  F50  1  0.79797569  0.49991056  0.84635430  1.0
  F  F51  1  0.20207084  0.50014245  0.15364471  1.0
