# generated using pymatgen
data_Zn8H59C73N7O26
_symmetry_space_group_name_H-M   'P 1'
_cell_length_a   18.35706222
_cell_length_b   18.37479122
_cell_length_c   18.42236425
_cell_angle_alpha   119.64197487
_cell_angle_beta   119.86688370
_cell_angle_gamma   60.43032462
_symmetry_Int_Tables_number   1
_chemical_formula_structural   Zn8H59C73N7O26
_chemical_formula_sum   'Zn8 H59 C73 N7 O26'
_cell_volume   4424.43414384
_cell_formula_units_Z   1
loop_
 _symmetry_equiv_pos_site_id
 _symmetry_equiv_pos_as_xyz
  1  'x, y, z'
loop_
 _atom_site_type_symbol
 _atom_site_label
 _atom_site_symmetry_multiplicity
 _atom_site_fract_x
 _atom_site_fract_y
 _atom_site_fract_z
 _atom_site_occupancy
  Zn  Zn0  1  0.45650534  0.95405786  0.54010595  1.0
  Zn  Zn1  1  0.45070687  0.12880833  0.53889173  1.0
  Zn  Zn2  1  0.45561004  0.95577207  0.36729949  1.0
  Zn  Zn3  1  0.62884985  0.95441345  0.53689937  1.0
  Zn  Zn4  1  0.04262219  0.53948416  0.95114888  1.0
  Zn  Zn5  1  0.04238663  0.54149675  0.12800529  1.0
  Zn  Zn6  1  0.03967669  0.37027478  0.95495842  1.0
  Zn  Zn7  1  0.86803408  0.54541645  0.95321828  1.0
  H  H8  1  0.15941090  0.74109669  0.08747496  1.0
  H  H9  1  0.68193297  0.41224206  0.82174541  1.0
  H  H10  1  0.93253731  0.15041423  0.68511406  1.0
  H  H11  1  0.97214376  0.12398546  0.78214639  1.0
  H  H12  1  0.87516224  0.02969749  0.70134322  1.0
  H  H13  1  0.24071088  0.19531809  0.08913629  1.0
  H  H14  1  0.17499292  0.46366820  0.37938384  1.0
  H  H15  1  0.27944183  0.36332316  0.47135786  1.0
  H  H16  1  0.19594009  0.31571989  0.42910046  1.0
  H  H17  1  0.35314316  0.09289625  0.75142964  1.0
  H  H18  1  0.16376480  0.31997258  0.57089583  1.0
  H  H19  1  0.21507238  0.68376934  0.37268413  1.0
  H  H20  1  0.24529905  0.37293756  0.65498393  1.0
  H  H21  1  0.91677220  0.77182302  0.96176988  1.0
  H  H22  1  0.78710478  0.53670071  0.72379116  1.0
  H  H23  1  0.60838991  0.72416753  0.53011207  1.0
  H  H24  1  0.24938330  0.84241422  0.18362087  1.0
  H  H25  1  0.63494861  0.50291694  0.40647475  1.0
  H  H26  1  0.54269423  0.54171954  0.43931960  1.0
  H  H27  1  0.55792935  0.61105726  0.41018525  1.0
  H  H28  1  0.32434971  0.77074548  0.54423788  1.0
  H  H29  1  0.34079341  0.84928606  0.52895329  1.0
  H  H30  1  0.30659937  0.59626585  0.33888057  1.0
  H  H31  1  0.23352725  0.83871345  0.48017650  1.0
  H  H32  1  0.56783959  0.69812794  0.21830471  1.0
  H  H33  1  0.51979880  0.76905986  0.15707637  1.0
  H  H34  1  0.57629546  0.65445997  0.11115630  1.0
  H  H35  1  0.87865705  0.87604376  0.29209315  1.0
  H  H36  1  0.97536543  0.85982627  0.37189452  1.0
  H  H37  1  0.68781956  0.01988319  0.74751658  1.0
  H  H38  1  0.61044413  0.99212362  0.75193014  1.0
  H  H39  1  0.65714507  0.07171088  0.84333660  1.0
  H  H40  1  0.79662054  0.00483753  0.54908264  1.0
  H  H41  1  0.39941488  0.69471829  0.43151220  1.0
  H  H42  1  0.81392270  0.08434827  0.54961215  1.0
  H  H43  1  0.39735901  0.03692967  0.20453317  1.0
  H  H44  1  0.34921633  0.05955224  0.10563420  1.0
  H  H45  1  0.88002207  0.05860458  0.99326900  1.0
  H  H46  1  0.78477014  0.08880128  0.90473039  1.0
  H  H47  1  0.77320532  0.09887869  0.99950387  1.0
  H  H48  1  0.04452566  0.47433990  0.38524574  1.0
  H  H49  1  0.04614726  0.37495483  0.31107954  1.0
  H  H50  1  0.22587005  0.20797515  0.89786974  1.0
  H  H51  1  0.30682608  0.11236258  0.85908954  1.0
  H  H52  1  0.69897716  0.63444987  0.09559710  1.0
  H  H53  1  0.00611800  0.44095338  0.70119885  1.0
  H  H54  1  0.01145409  0.45419138  0.61475884  1.0
  H  H55  1  0.03172934  0.34636771  0.60909663  1.0
  H  H56  1  0.12575430  0.52943382  0.73552519  1.0
  H  H57  1  0.13528231  0.50708880  0.81658879  1.0
  H  H58  1  0.98780470  0.94728682  0.04344872  1.0
  H  H59  1  0.91019021  0.98790363  0.09561786  1.0
  H  H60  1  0.98124557  0.87561911  0.07672690  1.0
  H  H61  1  0.67443079  0.43052808  0.49600616  1.0
  H  H62  1  0.73730925  0.42030818  0.59819792  1.0
  H  H63  1  0.96210811  0.74060956  0.37656142  1.0
  H  H64  1  0.86112498  0.84078682  0.46718072  1.0
  H  H65  1  0.81341639  0.91849363  0.41143786  1.0
  H  H66  1  0.58536159  0.31748946  0.73278321  1.0
  C  C67  1  0.63195882  0.13971098  0.63833243  1.0
  C  C68  1  0.69720937  0.54506313  0.59542248  1.0
  C  C69  1  0.64642169  0.59906248  0.53897783  1.0
  C  C70  1  0.35337638  0.86833693  0.35683395  1.0
  C  C71  1  0.64787378  0.68410184  0.57363071  1.0
  C  C72  1  0.29256642  0.75872603  0.33322870  1.0
  C  C73  1  0.29707632  0.81036434  0.30083950  1.0
  C  C74  1  0.24720217  0.80287192  0.21076861  1.0
  C  C75  1  0.19689537  0.74608901  0.15691621  1.0
  C  C76  1  0.19325802  0.69352381  0.18996811  1.0
  C  C77  1  0.24202556  0.70190892  0.27911896  1.0
  C  C78  1  0.87050221  0.81716053  0.92385093  1.0
  C  C79  1  0.26937939  0.66752131  0.35169258  1.0
  C  C80  1  0.32749723  0.73148410  0.41371729  1.0
  C  C81  1  0.77405093  0.79820383  0.32648941  1.0
  C  C82  1  0.35536167  0.13246346  0.63039762  1.0
  C  C83  1  0.69072776  0.79131385  0.29777891  1.0
  C  C84  1  0.66369781  0.72938163  0.21194318  1.0
  C  C85  1  0.72030985  0.68112986  0.16144335  1.0
  C  C86  1  0.80397922  0.68885587  0.19107776  1.0
  C  C87  1  0.82971614  0.74825982  0.27566175  1.0
  C  C88  1  0.90282351  0.78847695  0.34584628  1.0
  C  C89  1  0.81016753  0.78616960  0.83846136  1.0
  C  C90  1  0.83705368  0.84770647  0.40234630  1.0
  C  C91  1  0.77856679  0.16353192  0.70284443  1.0
  C  C92  1  0.68899702  0.19711240  0.69398685  1.0
  C  C93  1  0.65523684  0.28861189  0.73828338  1.0
  C  C94  1  0.63467883  0.85052236  0.35545207  1.0
  C  C95  1  0.70937736  0.34175214  0.78810419  1.0
  C  C96  1  0.80011045  0.30693954  0.79628855  1.0
  C  C97  1  0.83253156  0.21673187  0.75162003  1.0
  C  C98  1  0.91257068  0.14210348  0.72707883  1.0
  C  C99  1  0.85259608  0.08056769  0.67279557  1.0
  C  C100  1  0.74975328  0.84596244  0.78753565  1.0
  C  C101  1  0.25641276  0.27470358  0.33072116  1.0
  C  C102  1  0.31426402  0.19029683  0.29947358  1.0
  C  C103  1  0.30800016  0.16144163  0.20914867  1.0
  C  C104  1  0.24533079  0.21809677  0.15792694  1.0
  C  C105  1  0.18932882  0.30231701  0.19165179  1.0
  C  C106  1  0.37329069  0.13514769  0.35692074  1.0
  C  C107  1  0.19624166  0.32971606  0.27987462  1.0
  C  C108  1  0.15873073  0.40310518  0.35307977  1.0
  C  C109  1  0.22791325  0.33878814  0.41113822  1.0
  C  C110  1  0.24184410  0.27459033  0.68849794  1.0
  C  C111  1  0.80705971  0.69968040  0.80404865  1.0
  C  C112  1  0.30077266  0.18937439  0.68948059  1.0
  C  C113  1  0.30749101  0.15917393  0.74961453  1.0
  C  C114  1  0.25820384  0.21097066  0.80835547  1.0
  C  C115  1  0.19773118  0.29824399  0.80653872  1.0
  C  C116  1  0.19251636  0.32577338  0.74498193  1.0
  C  C117  1  0.14054271  0.40045307  0.70455272  1.0
  C  C118  1  0.63998397  0.86223989  0.63664795  1.0
  C  C119  1  0.20037427  0.34179610  0.64246421  1.0
  C  C120  1  0.86078113  0.63472449  0.13410055  1.0
  C  C121  1  0.14265639  0.35621051  0.86395739  1.0
  C  C122  1  0.75101064  0.66607695  0.71811294  1.0
  C  C123  1  0.13985537  0.63267276  0.13211313  1.0
  C  C124  1  0.85722458  0.36423691  0.85005193  1.0
  C  C125  1  0.12802220  0.35943853  0.13468578  1.0
  C  C126  1  0.86448704  0.64089546  0.86005879  1.0
  C  C127  1  0.74670030  0.93754908  0.83004801  1.0
  C  C128  1  0.81019448  0.96309639  0.91167278  1.0
  C  C129  1  0.87381161  0.90153556  0.95908083  1.0
  C  C130  1  0.59277501  0.56195216  0.44410085  1.0
  C  C131  1  0.30526055  0.80178674  0.49661291  1.0
  C  C132  1  0.57739433  0.71168622  0.17241971  1.0
  C  C133  1  0.69756683  0.72203483  0.66355435  1.0
  C  C134  1  0.67213054  0.00846950  0.79067718  1.0
  C  C135  1  0.81190234  0.05689750  0.95390968  1.0
  C  C136  1  0.04158928  0.41072324  0.65429097  1.0
  C  C137  1  0.94158445  0.92938539  0.04821189  1.0
  C  C138  1  0.69698218  0.81035038  0.69949273  1.0
  C  C139  1  0.74834234  0.57855835  0.68196969  1.0
  N  N140  1  0.93144128  0.82918486  0.31881242  1.0
  N  N141  1  0.84132691  0.03748461  0.57890864  1.0
  N  N142  1  0.36272086  0.08156425  0.17181407  1.0
  N  N143  1  0.06373401  0.42861144  0.33154987  1.0
  N  N144  1  0.27207876  0.17743902  0.86780656  1.0
  N  N145  1  0.15920375  0.48309620  0.76661648  1.0
  N  N146  1  0.69090872  0.46140331  0.56245634  1.0
  O  O147  1  0.49882314  0.99902569  0.49679699  1.0
  O  O148  1  0.94109310  0.32398317  0.86735279  1.0
  O  O149  1  0.10652037  0.44277938  0.17474950  1.0
  O  O150  1  0.67256183  0.05661530  0.60893343  1.0
  O  O151  1  0.82440776  0.62500426  0.88805122  1.0
  O  O152  1  0.10366040  0.31994472  0.05083791  1.0
  O  O153  1  0.94788590  0.61072288  0.87443256  1.0
  O  O154  1  0.11068894  0.61786946  0.04864121  1.0
  O  O155  1  0.81824823  0.44783067  0.87417193  1.0
  O  O156  1  0.94387460  0.62214780  0.17382275  1.0
  O  O157  1  0.13228815  0.32134664  0.90261060  1.0
  O  O158  1  0.38825044  0.04924575  0.61814708  1.0
  O  O159  1  0.38984963  0.87598578  0.43904980  1.0
  O  O160  1  0.36512984  0.17210092  0.59682172  1.0
  O  O161  1  0.55125388  0.86237800  0.31991662  1.0
  O  O162  1  0.38151289  0.17371644  0.43904335  1.0
  O  O163  1  0.67971868  0.87918620  0.60928222  1.0
  O  O164  1  0.41184284  0.05183839  0.32154090  1.0
  O  O165  1  0.55613769  0.88197998  0.61310983  1.0
  O  O166  1  0.67462366  0.88713981  0.43720106  1.0
  O  O167  1  0.54844238  0.17735608  0.62378240  1.0
  O  O168  1  0.36200030  0.90486837  0.31905629  1.0
  O  O169  1  0.99828909  0.49951251  0.99738368  1.0
  O  O170  1  0.82115425  0.60572267  0.05070684  1.0
  O  O171  1  0.10723701  0.43853343  0.87149730  1.0
  O  O172  1  0.12795334  0.60040780  0.17130303  1.0
