# generated using pymatgen
data_Zn4H9C28S2Cl5O13
_symmetry_space_group_name_H-M   'P 1'
_cell_length_a   18.37478688
_cell_length_b   19.63119007
_cell_length_c   32.66135446
_cell_angle_alpha   86.13134079
_cell_angle_beta   73.70469474
_cell_angle_gamma   62.10456999
_symmetry_Int_Tables_number   1
_chemical_formula_structural   Zn4H9C28S2Cl5O13
_chemical_formula_sum   'Zn16 H36 C112 S8 Cl20 O52'
_cell_volume   9965.98233450
_cell_formula_units_Z   4
loop_
 _symmetry_equiv_pos_site_id
 _symmetry_equiv_pos_as_xyz
  1  'x, y, z'
loop_
 _atom_site_type_symbol
 _atom_site_label
 _atom_site_symmetry_multiplicity
 _atom_site_fract_x
 _atom_site_fract_y
 _atom_site_fract_z
 _atom_site_occupancy
  Zn  Zn0  1  0.87536242  0.54522797  0.51875576  1.0
  Zn  Zn1  1  0.04692896  0.47934160  0.43947601  1.0
  Zn  Zn2  1  0.05468930  0.39946097  0.52493091  1.0
  Zn  Zn3  1  0.03971598  0.57009378  0.51653808  1.0
  Zn  Zn4  1  0.62445236  0.18195257  0.73642501  1.0
  Zn  Zn5  1  0.47913646  0.34961051  0.72561961  1.0
  Zn  Zn6  1  0.44485042  0.26935164  0.81196355  1.0
  Zn  Zn7  1  0.44889668  0.20185606  0.72478278  1.0
  Zn  Zn8  1  0.46877249  0.75454456  0.31408961  1.0
  Zn  Zn9  1  0.46475726  0.68528461  0.22767967  1.0
  Zn  Zn10  1  0.62622441  0.70197118  0.22768135  1.0
  Zn  Zn11  1  0.44611702  0.85145223  0.22969481  1.0
  Zn  Zn12  1  0.02328896  0.90159303  0.02490285  1.0
  Zn  Zn13  1  0.06555980  0.04654018  0.01522597  1.0
  Zn  Zn14  1  0.87590724  0.06998950  0.02381872  1.0
  Zn  Zn15  1  0.02284609  0.98873953  0.93871217  1.0
  H  H16  1  0.79124315  0.95462035  0.66289495  1.0
  H  H17  1  0.32347630  0.96896832  0.40925103  1.0
  H  H18  1  0.56977181  0.44553641  0.62304093  1.0
  H  H19  1  0.56967655  0.49668577  0.66608112  1.0
  H  H20  1  0.66293021  0.54468326  0.61396695  1.0
  H  H21  1  0.66424760  0.49277261  0.57086791  1.0
  H  H22  1  0.36404690  0.66032707  0.42448113  1.0
  H  H23  1  0.27738892  0.75331107  0.42329550  1.0
  H  H24  1  0.17322739  0.71355144  0.47282140  1.0
  H  H25  1  0.26014829  0.62100515  0.47466136  1.0
  H  H26  1  0.55890610  0.75210233  0.42472378  1.0
  H  H27  1  0.55644137  0.66249349  0.42453125  1.0
  H  H28  1  0.65259995  0.61194390  0.47337178  1.0
  H  H29  1  0.65483296  0.70164731  0.47384075  1.0
  H  H30  1  0.33456304  0.20506306  0.63081706  1.0
  H  H31  1  0.24447235  0.24833456  0.67670145  1.0
  H  H32  1  0.14558749  0.29835710  0.62914898  1.0
  H  H33  1  0.23558768  0.25530087  0.58321438  1.0
  H  H34  1  0.17775294  0.66198440  0.96204263  1.0
  H  H35  1  0.92856318  0.10021686  0.83335869  1.0
  H  H36  1  0.93401241  0.00731186  0.83191365  1.0
  H  H37  1  0.83813160  0.05236136  0.78303439  1.0
  H  H38  1  0.83183198  0.14552280  0.78467532  1.0
  H  H39  1  0.17319250  0.19748982  0.96878788  1.0
  H  H40  1  0.26681563  0.10784581  0.96649000  1.0
  H  H41  1  0.35787877  0.16147763  0.91746464  1.0
  H  H42  1  0.26419019  0.25086019  0.91951549  1.0
  H  H43  1  0.95975523  0.29327785  0.08799987  1.0
  H  H44  1  0.26418607  0.00734354  0.06974428  1.0
  H  H45  1  0.17127603  0.05635337  0.11368649  1.0
  H  H46  1  0.26349633  0.01073366  0.16441712  1.0
  H  H47  1  0.35672769  0.96339194  0.12032957  1.0
  H  H48  1  0.93002849  0.74695619  0.08663569  1.0
  H  H49  1  0.93198359  0.79331143  0.13110587  1.0
  H  H50  1  0.83290695  0.74863999  0.18111138  1.0
  H  H51  1  0.83229999  0.70103230  0.13679571  1.0
  C  C52  1  0.87375728  0.56204072  0.42925741  1.0
  C  C53  1  0.13252952  0.31201103  0.44184933  1.0
  C  C54  1  0.88301721  0.41297103  0.56949667  1.0
  C  C55  1  0.14305174  0.45387243  0.56648904  1.0
  C  C56  1  0.85987298  0.68156666  0.56116266  1.0
  C  C57  1  0.13393848  0.57239022  0.43049070  1.0
  C  C58  1  0.66373964  0.29937923  0.68894694  1.0
  C  C59  1  0.37365506  0.43852478  0.80872387  1.0
  C  C60  1  0.61576281  0.18061103  0.82800381  1.0
  C  C61  1  0.35102629  0.18318391  0.80973187  1.0
  C  C62  1  0.61422898  0.06740661  0.68660321  1.0
  C  C63  1  0.37387842  0.33723975  0.67708186  1.0
  C  C64  1  0.36723699  0.67449400  0.31479764  1.0
  C  C65  1  0.64207113  0.56883947  0.18519970  1.0
  C  C66  1  0.64833815  0.67779875  0.31552448  1.0
  C  C67  1  0.61450637  0.83782357  0.18129552  1.0
  C  C68  1  0.37508806  0.92485348  0.31843036  1.0
  C  C69  1  0.35834850  0.80915664  0.18331287  1.0
  C  C70  1  0.13248210  0.91956019  0.07006577  1.0
  C  C71  1  0.91171110  0.18257463  0.06129927  1.0
  C  C72  1  0.84301450  0.94803817  0.06835988  1.0
  C  C73  1  0.84138159  0.07752927  0.94131308  1.0
  C  C74  1  0.11599194  0.81903285  0.93922806  1.0
  C  C75  1  0.13314521  0.06318328  0.92423753  1.0
  C  C76  1  0.71919419  0.80685726  0.59654811  1.0
  C  C77  1  0.74732450  0.94164772  0.65268871  1.0
  C  C78  1  0.80702804  0.75674468  0.58611994  1.0
  C  C79  1  0.66026793  0.99173478  0.66215857  1.0
  C  C80  1  0.76876468  0.87461504  0.62852438  1.0
  C  C81  1  0.69725276  0.87461536  0.62054249  1.0
  C  C82  1  0.20184764  0.21963534  0.37370135  1.0
  C  C83  1  0.30623064  0.01459517  0.38749496  1.0
  C  C84  1  0.18028660  0.23654031  0.41756179  1.0
  C  C85  1  0.32737291  0.99976938  0.34374061  1.0
  C  C86  1  0.26086825  0.09508997  0.39863190  1.0
  C  C87  1  0.24815700  0.13908509  0.36296160  1.0
  C  C88  1  0.72581187  0.32318114  0.66010253  1.0
  C  C89  1  0.83380565  0.37912023  0.60060482  1.0
  C  C90  1  0.69283587  0.39174635  0.64014883  1.0
  C  C91  1  0.86963690  0.30944951  0.62112244  1.0
  C  C92  1  0.74442980  0.41820842  0.61162746  1.0
  C  C93  1  0.81679314  0.28226463  0.65010477  1.0
  C  C94  1  0.61006886  0.45983442  0.63634550  1.0
  C  C95  1  0.66870541  0.48972844  0.60383824  1.0
  C  C96  1  0.30508053  0.64891234  0.34151740  1.0
  C  C97  1  0.18706433  0.60177343  0.39903045  1.0
  C  C98  1  0.28231338  0.66025575  0.38594931  1.0
  C  C99  1  0.20646084  0.59150092  0.35395248  1.0
  C  C100  1  0.22535403  0.63818897  0.41350394  1.0
  C  C101  1  0.26469157  0.61376912  0.32570854  1.0
  C  C102  1  0.29786220  0.69101111  0.42223959  1.0
  C  C103  1  0.23292861  0.66602098  0.45349840  1.0
  C  C104  1  0.71095633  0.64780684  0.34156274  1.0
  C  C105  1  0.82197365  0.58912029  0.39791267  1.0
  C  C106  1  0.67981511  0.65644566  0.38605894  1.0
  C  C107  1  0.85617256  0.57890930  0.35258727  1.0
  C  C108  1  0.73274737  0.62850458  0.41298368  1.0
  C  C109  1  0.80209008  0.60846843  0.32505480  1.0
  C  C110  1  0.59812133  0.68904115  0.42275759  1.0
  C  C111  1  0.65822989  0.65746292  0.45337737  1.0
  C  C112  1  0.31407126  0.37413750  0.64993826  1.0
  C  C113  1  0.19997791  0.43190680  0.59527482  1.0
  C  C114  1  0.27754653  0.33264800  0.63862454  1.0
  C  C115  1  0.23434168  0.47672914  0.60715787  1.0
  C  C116  1  0.22317907  0.36019899  0.61244699  1.0
  C  C117  1  0.29004587  0.44848620  0.63388954  1.0
  C  C118  1  0.27332201  0.25719153  0.64383051  1.0
  C  C119  1  0.21150676  0.28850751  0.61408798  1.0
  C  C120  1  0.29968804  0.58813506  0.81907507  1.0
  C  C121  1  0.19411109  0.67150632  0.92824875  1.0
  C  C122  1  0.32441249  0.51405282  0.83316398  1.0
  C  C123  1  0.16875138  0.74462560  0.91352656  1.0
  C  C124  1  0.24176288  0.61425180  0.89379511  1.0
  C  C125  1  0.25212911  0.64534478  0.85367970  1.0
  C  C126  1  0.77837101  0.10423148  0.91564461  1.0
  C  C127  1  0.66697484  0.15482422  0.85966715  1.0
  C  C128  1  0.80938797  0.09709856  0.87123332  1.0
  C  C129  1  0.63333443  0.16115751  0.90498764  1.0
  C  C130  1  0.75617481  0.12171228  0.84445410  1.0
  C  C131  1  0.68777745  0.13687977  0.93229546  1.0
  C  C132  1  0.89089256  0.06975639  0.83456923  1.0
  C  C133  1  0.83054524  0.09795341  0.80407526  1.0
  C  C134  1  0.18938947  0.08948319  0.89237375  1.0
  C  C135  1  0.29507143  0.15056225  0.83571605  1.0
  C  C136  1  0.22617253  0.12723144  0.90719790  1.0
  C  C137  1  0.25929068  0.11145011  0.81942633  1.0
  C  C138  1  0.27622597  0.15677316  0.88014932  1.0
  C  C139  1  0.20810801  0.08129691  0.84710459  1.0
  C  C140  1  0.23384537  0.15430826  0.94741859  1.0
  C  C141  1  0.29080069  0.18776672  0.91668129  1.0
  C  C142  1  0.67142363  0.44233769  0.14937695  1.0
  C  C143  1  0.89247364  0.30706747  0.09668929  1.0
  C  C144  1  0.69634862  0.49355233  0.16084997  1.0
  C  C145  1  0.86446841  0.25832748  0.08569993  1.0
  C  C146  1  0.82190677  0.37508781  0.11998340  1.0
  C  C147  1  0.74277681  0.37532060  0.12606709  1.0
  C  C148  1  0.18795627  0.88673942  0.09963765  1.0
  C  C149  1  0.29740263  0.83374961  0.15659408  1.0
  C  C150  1  0.22459215  0.92878123  0.11030252  1.0
  C  C151  1  0.26027675  0.78979025  0.14695669  1.0
  C  C152  1  0.27612874  0.90387448  0.13793257  1.0
  C  C153  1  0.20704331  0.81543262  0.11904363  1.0
  C  C154  1  0.23188449  0.00268927  0.10282015  1.0
  C  C155  1  0.29005310  0.97451944  0.13440616  1.0
  C  C156  1  0.77941739  0.92435660  0.09530417  1.0
  C  C157  1  0.66601927  0.87121720  0.15188225  1.0
  C  C158  1  0.80953884  0.85375951  0.11357277  1.0
  C  C159  1  0.63314486  0.94306703  0.13312799  1.0
  C  C160  1  0.75531271  0.82867707  0.14094159  1.0
  C  C161  1  0.68861023  0.96896113  0.10547430  1.0
  C  C162  1  0.89044374  0.78266005  0.11680639  1.0
  C  C163  1  0.82883383  0.75425364  0.14805017  1.0
  S  S164  1  0.86237326  0.79243747  0.60584551  1.0
  S  S165  1  0.60380074  0.95776741  0.64211076  1.0
  S  S166  1  0.21698728  0.15368491  0.44529766  1.0
  S  S167  1  0.29260638  0.08248235  0.31590185  1.0
  S  S168  1  0.28973753  0.51481483  0.88863749  1.0
  S  S169  1  0.20283497  0.74463252  0.85811996  1.0
  S  S170  1  0.80726125  0.45898983  0.14293836  1.0
  S  S171  1  0.75368440  0.29386865  0.10335085  1.0
  Cl  Cl172  1  0.64452344  0.79209084  0.58253530  1.0
  Cl  Cl173  1  0.17921986  0.28425880  0.33566659  1.0
  Cl  Cl174  1  0.32057942  0.61139309  0.76727756  1.0
  Cl  Cl175  1  0.56959332  0.45441416  0.16004890  1.0
  Cl  Cl176  1  0.97884535  0.25535662  0.61248029  1.0
  Cl  Cl177  1  0.86613611  0.19897611  0.67435306  1.0
  Cl  Cl178  1  0.15532190  0.55498430  0.33244071  1.0
  Cl  Cl179  1  0.28485335  0.59556882  0.27185471  1.0
  Cl  Cl180  1  0.96489374  0.52726309  0.32901111  1.0
  Cl  Cl181  1  0.85159821  0.59468443  0.27091584  1.0
  Cl  Cl182  1  0.20854826  0.56797886  0.59015386  1.0
  Cl  Cl183  1  0.32573373  0.50827896  0.64756510  1.0
  Cl  Cl184  1  0.52497734  0.19633473  0.92878399  1.0
  Cl  Cl185  1  0.64149992  0.14446187  0.98650048  1.0
  Cl  Cl186  1  0.27518523  0.10009840  0.76532122  1.0
  Cl  Cl187  1  0.17167067  0.03175616  0.82387586  1.0
  Cl  Cl188  1  0.27589885  0.70517451  0.17088685  1.0
  Cl  Cl189  1  0.16811864  0.75588608  0.10873017  1.0
  Cl  Cl190  1  0.52438220  0.00260531  0.14386931  1.0
  Cl  Cl191  1  0.64245961  0.05527931  0.08325751  1.0
  O  O192  1  0.00085781  0.49984701  0.50184255  1.0
  O  O193  1  0.83305300  0.55892825  0.46763696  1.0
  O  O194  1  0.09491017  0.37057758  0.42192787  1.0
  O  O195  1  0.96412791  0.37389164  0.55650073  1.0
  O  O196  1  0.95236248  0.54611034  0.41608930  1.0
  O  O197  1  0.83723605  0.47998559  0.55831285  1.0
  O  O198  1  0.13214116  0.31259359  0.48115785  1.0
  O  O199  1  0.11521894  0.40592206  0.56396848  1.0
  O  O200  1  0.94083715  0.65512993  0.55503580  1.0
  O  O201  1  0.12752816  0.51505096  0.54681985  1.0
  O  O202  1  0.82306228  0.64962671  0.54815388  1.0
  O  O203  1  0.13872583  0.50871158  0.42021666  1.0
  O  O204  1  0.09070133  0.61205354  0.46643551  1.0
  O  O205  1  0.50016831  0.25023251  0.75000974  1.0
  O  O206  1  0.68936676  0.22943474  0.69817450  1.0
  O  O207  1  0.40424356  0.43729217  0.76841837  1.0
  O  O208  1  0.53528816  0.22407846  0.84119588  1.0
  O  O209  1  0.58670798  0.35416454  0.70118045  1.0
  O  O210  1  0.66007178  0.15648606  0.78909811  1.0
  O  O211  1  0.38135836  0.38012130  0.83069967  1.0
  O  O212  1  0.36492374  0.22587872  0.83123368  1.0
  O  O213  1  0.53509014  0.10823176  0.68771426  1.0
  O  O214  1  0.38127912  0.16599150  0.76967097  1.0
  O  O215  1  0.65713334  0.08535087  0.70442743  1.0
  O  O216  1  0.42307547  0.36431522  0.68012859  1.0
  O  O217  1  0.37096322  0.27800312  0.69477660  1.0
  O  O218  1  0.50125416  0.74951075  0.25136734  1.0
  O  O219  1  0.40010548  0.70001572  0.33569937  1.0
  O  O220  1  0.56305171  0.58714225  0.20178908  1.0
  O  O221  1  0.67719503  0.66702246  0.27512079  1.0
  O  O222  1  0.38218027  0.66990157  0.27441295  1.0
  O  O223  1  0.56897607  0.71177415  0.33703292  1.0
  O  O224  1  0.67863185  0.60956032  0.18796720  1.0
  O  O225  1  0.65884198  0.77808607  0.19869638  1.0
  O  O226  1  0.38935623  0.92958985  0.27790265  1.0
  O  O227  1  0.53401817  0.86840368  0.18655513  1.0
  O  O228  1  0.39748811  0.86347994  0.33842961  1.0
  O  O229  1  0.40826944  0.73739648  0.18343426  1.0
  O  O230  1  0.35729620  0.86410522  0.20283074  1.0
  O  O231  1  0.99917898  0.00171370  0.00080526  1.0
  O  O232  1  0.08419190  0.89116163  0.06746668  1.0
  O  O233  1  0.99353513  0.15014553  0.04732345  1.0
  O  O234  1  0.81935739  0.01957711  0.06432635  1.0
  O  O235  1  0.13791339  0.97613425  0.05002836  1.0
  O  O236  1  0.91850428  0.89257930  0.05239961  1.0
  O  O237  1  0.86262525  0.15605310  0.05655712  1.0
  O  O238  1  0.81770612  0.10857971  0.97885799  1.0
  O  O239  1  0.09700360  0.87951367  0.91815723  1.0
  O  O240  1  0.91673662  0.02534821  0.92184647  1.0
  O  O241  1  0.09381611  0.81647959  0.97977385  1.0
  O  O242  1  0.14148148  0.05875797  0.96207853  1.0
  O  O243  1  0.08077941  0.04960360  0.91220213  1.0
