# generated using pymatgen
data_ZnH7C9(NO3)2
_symmetry_space_group_name_H-M   'P 1'
_cell_length_a   7.85422538
_cell_length_b   8.87309430
_cell_length_c   15.93430150
_cell_angle_alpha   86.07788288
_cell_angle_beta   84.10244415
_cell_angle_gamma   82.91527375
_symmetry_Int_Tables_number   1
_chemical_formula_structural   ZnH7C9(NO3)2
_chemical_formula_sum   'Zn2 H14 C18 N4 O12'
_cell_volume   1094.42229237
_cell_formula_units_Z   2
loop_
 _symmetry_equiv_pos_site_id
 _symmetry_equiv_pos_as_xyz
  1  'x, y, z'
loop_
 _atom_site_type_symbol
 _atom_site_label
 _atom_site_symmetry_multiplicity
 _atom_site_fract_x
 _atom_site_fract_y
 _atom_site_fract_z
 _atom_site_occupancy
  Zn  Zn0  1  0.65000145  0.50227840  0.48657730  1.0
  Zn  Zn1  1  0.30017226  0.50055804  0.51942359  1.0
  H  H2  1  0.76495295  0.62047843  0.92960218  1.0
  H  H3  1  0.73740597  0.60454396  0.07791681  1.0
  H  H4  1  0.26090108  0.65159608  0.06093968  1.0
  H  H5  1  0.44833135  0.74499137  0.05159325  1.0
  H  H6  1  0.45631720  0.72523553  0.90503498  1.0
  H  H7  1  0.29584721  0.59935263  0.91813967  1.0
  H  H8  1  0.51737354  0.25884352  0.09275968  1.0
  H  H9  1  0.59296155  0.24242901  0.94786130  1.0
  H  H10  1  0.76704785  0.40487155  0.08123892  1.0
  H  H11  1  0.82882669  0.42250294  0.93429684  1.0
  H  H12  1  0.37761223  0.31637417  0.93115785  1.0
  H  H13  1  0.24741699  0.00867808  0.54327714  1.0
  H  H14  1  0.63559534  0.99132097  0.48238359  1.0
  H  H15  1  0.94458411  0.47968483  0.57776666  1.0
  C  C16  1  0.40311868  0.78898030  0.52084627  1.0
  C  C17  1  0.48592151  0.52778628  0.33870550  1.0
  C  C18  1  0.47904307  0.21106754  0.50370931  1.0
  C  C19  1  0.57030993  0.47271738  0.66088476  1.0
  C  C20  1  0.69423257  0.50539385  0.05238920  1.0
  C  C21  1  0.39719537  0.64144922  0.03621929  1.0
  C  C22  1  0.41781284  0.62190057  0.94002458  1.0
  C  C23  1  0.58277690  0.47051374  0.75058050  1.0
  C  C24  1  0.49895350  0.50553045  0.08237012  1.0
  C  C25  1  0.72506801  0.51057199  0.95495735  1.0
  C  C26  1  0.55674902  0.48663033  0.91784123  1.0
  C  C27  1  0.49272971  0.33837175  0.95974459  1.0
  C  C28  1  0.45028058  0.35161681  0.05546246  1.0
  C  C29  1  0.57848709  0.47616854  0.82679499  1.0
  C  C30  1  0.47552428  0.51593352  0.17340552  1.0
  C  C31  1  0.47227007  0.52625975  0.24916221  1.0
  C  C32  1  0.37754965  0.95692862  0.52410062  1.0
  C  C33  1  0.50571039  0.04286254  0.50221037  1.0
  N  N34  1  0.02028147  0.49938021  0.52001341  1.0
  N  N35  1  0.92227933  0.51330854  0.46486003  1.0
  N  N36  1  0.00964192  0.54995705  0.36544853  1.0
  N  N37  1  0.26024104  0.33791289  0.08228889  1.0
  O  O38  1  0.55545931  0.72324553  0.50528178  1.0
  O  O39  1  0.26580599  0.72274261  0.53348432  1.0
  O  O40  1  0.63684391  0.53319616  0.36030055  1.0
  O  O41  1  0.34964901  0.52123677  0.38891609  1.0
  O  O42  1  0.61354108  0.27897603  0.48677697  1.0
  O  O43  1  0.32575994  0.27536859  0.52149187  1.0
  O  O44  1  0.71033244  0.47356852  0.61116086  1.0
  O  O45  1  0.42081982  0.47560282  0.63717923  1.0
  O  O46  1  0.03684762  0.43838623  0.32528746  1.0
  O  O47  1  0.01342576  0.68410724  0.34885440  1.0
  O  O48  1  0.22646639  0.26916966  0.15072705  1.0
  O  O49  1  0.15196884  0.39855969  0.03499474  1.0
