# generated using pymatgen
data_Y2Cu3H24(C4O5)6
_symmetry_space_group_name_H-M   'P 1'
_cell_length_a   12.72281241
_cell_length_b   12.72413582
_cell_length_c   16.39551309
_cell_angle_alpha   89.99670418
_cell_angle_beta   90.00118350
_cell_angle_gamma   59.99706626
_symmetry_Int_Tables_number   1
_chemical_formula_structural   Y2Cu3H24(C4O5)6
_chemical_formula_sum   'Y4 Cu6 H48 C48 O60'
_cell_volume   2298.55141733
_cell_formula_units_Z   2
loop_
 _symmetry_equiv_pos_site_id
 _symmetry_equiv_pos_as_xyz
  1  'x, y, z'
loop_
 _atom_site_type_symbol
 _atom_site_label
 _atom_site_symmetry_multiplicity
 _atom_site_fract_x
 _atom_site_fract_y
 _atom_site_fract_z
 _atom_site_occupancy
  Y  Y0  1  0.33333333  0.33329617  0.75004641  1.0
  Y  Y1  1  0.66662177  0.66671156  0.74996455  1.0
  Y  Y2  1  0.66666667  0.66676428  0.24997166  1.0
  Y  Y3  1  0.33333333  0.33333333  0.25001143  1.0
  Cu  Cu4  1  0.50000664  0.00000660  0.00000730  1.0
  Cu  Cu5  1  0.50001497  0.49999134  0.00000207  1.0
  Cu  Cu6  1  0.99998097  0.50005624  0.99999416  1.0
  Cu  Cu7  1  0.50002387  0.49996651  0.49998102  1.0
  Cu  Cu8  1  0.49997660  0.00001446  0.50001666  1.0
  Cu  Cu9  1  0.00000556  0.49999426  0.50000948  1.0
  H  H10  1  0.80288883  0.34616696  0.14285992  1.0
  H  H11  1  0.93682231  0.29807453  0.20373492  1.0
  H  H12  1  0.85108631  0.80291179  0.14284489  1.0
  H  H13  1  0.76514610  0.93694696  0.20372130  1.0
  H  H14  1  0.34604737  0.85098282  0.14285762  1.0
  H  H15  1  0.29818165  0.76490311  0.20382083  1.0
  H  H16  1  0.19711796  0.65392183  0.14288163  1.0
  H  H17  1  0.06315331  0.70205101  0.20373017  1.0
  H  H18  1  0.14902361  0.19710815  0.14284848  1.0
  H  H19  1  0.23502547  0.06307700  0.20375660  1.0
  H  H20  1  0.65385483  0.14905380  0.14285525  1.0
  H  H21  1  0.70182357  0.23505490  0.20379919  1.0
  H  H22  1  0.19710597  0.14899995  0.35711609  1.0
  H  H23  1  0.06315092  0.23488249  0.29627114  1.0
  H  H24  1  0.14903631  0.65384870  0.35717252  1.0
  H  H25  1  0.23492959  0.70198415  0.29626823  1.0
  H  H26  1  0.65390223  0.19702370  0.35715983  1.0
  H  H27  1  0.70183224  0.06308450  0.29619750  1.0
  H  H28  1  0.80292252  0.85104230  0.35712318  1.0
  H  H29  1  0.93689139  0.76518350  0.29628789  1.0
  H  H30  1  0.85098740  0.34615779  0.35712347  1.0
  H  H31  1  0.76498267  0.29812985  0.29624017  1.0
  H  H32  1  0.34616322  0.80285533  0.35715324  1.0
  H  H33  1  0.29809619  0.93687844  0.29622491  1.0
  H  H34  1  0.19713195  0.65387020  0.85711668  1.0
  H  H35  1  0.06321290  0.70195062  0.79622703  1.0
  H  H36  1  0.14896773  0.19706448  0.85717684  1.0
  H  H37  1  0.23493062  0.06305567  0.79627603  1.0
  H  H38  1  0.65400142  0.14898640  0.85718667  1.0
  H  H39  1  0.70190299  0.23502758  0.79621737  1.0
  H  H40  1  0.80288361  0.34612745  0.85711509  1.0
  H  H41  1  0.93684676  0.29801444  0.79628240  1.0
  H  H42  1  0.85094995  0.80280997  0.85717325  1.0
  H  H43  1  0.76501790  0.93687083  0.79628037  1.0
  H  H44  1  0.34606062  0.85095720  0.85713170  1.0
  H  H45  1  0.29806198  0.76496758  0.79621522  1.0
  H  H46  1  0.80289808  0.85100174  0.64289953  1.0
  H  H47  1  0.93683562  0.76508375  0.70374937  1.0
  H  H48  1  0.85099191  0.34609142  0.64284127  1.0
  H  H49  1  0.76503911  0.29803544  0.70375837  1.0
  H  H50  1  0.34600720  0.80297042  0.64280822  1.0
  H  H51  1  0.29801977  0.93691459  0.70377970  1.0
  H  H52  1  0.19715778  0.14895126  0.64290160  1.0
  H  H53  1  0.06316047  0.23479730  0.70371615  1.0
  H  H54  1  0.14906017  0.65376663  0.64283970  1.0
  H  H55  1  0.23504027  0.70186691  0.70370044  1.0
  H  H56  1  0.65394976  0.19703611  0.64287885  1.0
  H  H57  1  0.70193166  0.06304286  0.70381634  1.0
  C  C58  1  0.34222999  0.53750306  0.63425964  1.0
  C  C59  1  0.77097938  0.37720160  0.31709081  1.0
  C  C60  1  0.12018161  0.34222497  0.63429719  1.0
  C  C61  1  0.85191088  0.77101603  0.31710036  1.0
  C  C62  1  0.53760970  0.12014355  0.63432030  1.0
  C  C63  1  0.37717606  0.85185380  0.31711061  1.0
  C  C64  1  0.65779271  0.46236028  0.63425627  1.0
  C  C65  1  0.22901054  0.62286918  0.31712229  1.0
  C  C66  1  0.87980463  0.65774506  0.63424678  1.0
  C  C67  1  0.14812346  0.22904741  0.31710360  1.0
  C  C68  1  0.46230594  0.87989634  0.63427613  1.0
  C  C69  1  0.62279724  0.14811604  0.31710859  1.0
  C  C70  1  0.65776183  0.87975546  0.86571105  1.0
  C  C71  1  0.22902354  0.14814765  0.18289081  1.0
  C  C72  1  0.87981780  0.46246109  0.86571657  1.0
  C  C73  1  0.14811131  0.62289607  0.18290213  1.0
  C  C74  1  0.46239711  0.65773873  0.86569457  1.0
  C  C75  1  0.62277944  0.22905851  0.18290515  1.0
  C  C76  1  0.34217588  0.12013636  0.86576628  1.0
  C  C77  1  0.77107271  0.85191140  0.18285799  1.0
  C  C78  1  0.12015370  0.53758416  0.86573149  1.0
  C  C79  1  0.85186399  0.37722148  0.18288570  1.0
  C  C80  1  0.53762409  0.34219682  0.86574129  1.0
  C  C81  1  0.37718229  0.77095177  0.18289915  1.0
  C  C82  1  0.65781230  0.46246006  0.36571451  1.0
  C  C83  1  0.22906403  0.62277225  0.68287053  1.0
  C  C84  1  0.87987303  0.65776474  0.36571416  1.0
  C  C85  1  0.14813541  0.22898285  0.68291649  1.0
  C  C86  1  0.46241706  0.87983876  0.36571301  1.0
  C  C87  1  0.62288151  0.14808740  0.68292148  1.0
  C  C88  1  0.34222565  0.53760519  0.36571605  1.0
  C  C89  1  0.77099522  0.37712081  0.68287748  1.0
  C  C90  1  0.12015497  0.34227385  0.36574262  1.0
  C  C91  1  0.85185677  0.77094499  0.68290654  1.0
  C  C92  1  0.53755086  0.12015644  0.36571937  1.0
  C  C93  1  0.37707323  0.85189695  0.68287044  1.0
  C  C94  1  0.34221776  0.12023337  0.13428994  1.0
  C  C95  1  0.77096836  0.85181399  0.81712298  1.0
  C  C96  1  0.12013125  0.53763519  0.13427100  1.0
  C  C97  1  0.85187531  0.37716792  0.81709520  1.0
  C  C98  1  0.53753492  0.34226560  0.13429178  1.0
  C  C99  1  0.37712555  0.77094647  0.81709034  1.0
  C  C100  1  0.65786298  0.87987794  0.13424324  1.0
  C  C101  1  0.22897506  0.14809910  0.81715093  1.0
  C  C102  1  0.87985567  0.46246852  0.13425425  1.0
  C  C103  1  0.14816454  0.62281100  0.81708723  1.0
  C  C104  1  0.46244220  0.65778992  0.13426397  1.0
  C  C105  1  0.62288637  0.22899904  0.81712990  1.0
  O  O106  1  0.39544086  0.42574583  0.65028257  1.0
  O  O107  1  0.37097320  0.58998712  0.57987710  1.0
  O  O108  1  0.17877923  0.39538278  0.65030871  1.0
  O  O109  1  0.03893321  0.37098676  0.57991058  1.0
  O  O110  1  0.42584985  0.17867195  0.65033498  1.0
  O  O111  1  0.59007630  0.03894160  0.57992408  1.0
  O  O112  1  0.60454051  0.57411230  0.65026894  1.0
  O  O113  1  0.62907030  0.40985623  0.57987796  1.0
  O  O114  1  0.82118504  0.60458428  0.65019461  1.0
  O  O115  1  0.96109162  0.62900143  0.57989205  1.0
  O  O116  1  0.57408456  0.82131466  0.65024154  1.0
  O  O117  1  0.40980278  0.96116309  0.57991637  1.0
  O  O118  1  0.60452991  0.82123811  0.84970324  1.0
  O  O119  1  0.62902183  0.96100778  0.92007649  1.0
  O  O120  1  0.82123246  0.57421556  0.84968869  1.0
  O  O121  1  0.96104588  0.40997380  0.92011772  1.0
  O  O122  1  0.57415577  0.60451009  0.84968846  1.0
  O  O123  1  0.40991795  0.62901749  0.92009885  1.0
  O  O124  1  0.39541712  0.17865521  0.84975924  1.0
  O  O125  1  0.37093396  0.03888695  0.92013852  1.0
  O  O126  1  0.17873213  0.42580287  0.84977561  1.0
  O  O127  1  0.03889180  0.59013478  0.92009120  1.0
  O  O128  1  0.42584342  0.39535327  0.84979537  1.0
  O  O129  1  0.59012908  0.37096202  0.92009299  1.0
  O  O130  1  0.60461019  0.57421706  0.34971720  1.0
  O  O131  1  0.62906789  0.40994911  0.42008120  1.0
  O  O132  1  0.82128312  0.60459419  0.34969532  1.0
  O  O133  1  0.96111451  0.62899774  0.42010382  1.0
  O  O134  1  0.57417998  0.82133987  0.34969773  1.0
  O  O135  1  0.40992380  0.96103239  0.42010923  1.0
  O  O136  1  0.39542917  0.42585793  0.34971070  1.0
  O  O137  1  0.37099896  0.59009008  0.42007972  1.0
  O  O138  1  0.17872505  0.39546722  0.34975880  1.0
  O  O139  1  0.03890241  0.37099333  0.42012296  1.0
  O  O140  1  0.42577696  0.17871201  0.34974664  1.0
  O  O141  1  0.59006279  0.03892534  0.42009926  1.0
  O  O142  1  0.39541441  0.17878477  0.15028250  1.0
  O  O143  1  0.37099883  0.03895943  0.07993243  1.0
  O  O144  1  0.17868283  0.42588064  0.15027631  1.0
  O  O145  1  0.03889408  0.59015768  0.07987229  1.0
  O  O146  1  0.42576464  0.39548735  0.15025764  1.0
  O  O147  1  0.59005397  0.37099215  0.07992227  1.0
  O  O148  1  0.60466099  0.82132496  0.15025151  1.0
  O  O149  1  0.62907412  0.96114065  0.07987711  1.0
  O  O150  1  0.82129160  0.57423959  0.15024611  1.0
  O  O151  1  0.96109599  0.40994800  0.07987808  1.0
  O  O152  1  0.57422800  0.60463424  0.15020928  1.0
  O  O153  1  0.40994609  0.62903078  0.07990434  1.0
  O  O154  1  0.77778451  0.44446141  0.24998138  1.0
  O  O155  1  0.77784622  0.77787743  0.24998161  1.0
  O  O156  1  0.44442647  0.77782748  0.24999042  1.0
  O  O157  1  0.22216417  0.55564119  0.25001147  1.0
  O  O158  1  0.22218088  0.22223046  0.24999782  1.0
  O  O159  1  0.55554373  0.22221901  0.25001158  1.0
  O  O160  1  0.22226784  0.55554448  0.75000863  1.0
  O  O161  1  0.22216374  0.22217075  0.75004255  1.0
  O  O162  1  0.55564657  0.22213219  0.75003558  1.0
  O  O163  1  0.77782825  0.44438141  0.74997183  1.0
  O  O164  1  0.77777624  0.77777237  0.74999829  1.0
  O  O165  1  0.44433397  0.77779202  0.74996745  1.0
