# generated using pymatgen
data_Zn2H10C13(N3O2)2
_symmetry_space_group_name_H-M   'P 1'
_cell_length_a   8.41252782
_cell_length_b   19.17651008
_cell_length_c   19.17782394
_cell_angle_alpha   117.89475758
_cell_angle_beta   98.40748870
_cell_angle_gamma   98.41120956
_symmetry_Int_Tables_number   1
_chemical_formula_structural   Zn2H10C13(N3O2)2
_chemical_formula_sum   'Zn12 H60 C78 N36 O24'
_cell_volume   2622.14984728
_cell_formula_units_Z   6
loop_
 _symmetry_equiv_pos_site_id
 _symmetry_equiv_pos_as_xyz
  1  'x, y, z'
loop_
 _atom_site_type_symbol
 _atom_site_label
 _atom_site_symmetry_multiplicity
 _atom_site_fract_x
 _atom_site_fract_y
 _atom_site_fract_z
 _atom_site_occupancy
  Zn  Zn0  1  0.30946996  0.40636310  0.45489901  1.0
  Zn  Zn1  1  0.95006055  0.29920281  0.48438179  1.0
  Zn  Zn2  1  0.90333665  0.04845596  0.59367449  1.0
  Zn  Zn3  1  0.65113875  0.18517000  0.70081937  1.0
  Zn  Zn4  1  0.85474948  0.54523918  0.95151996  1.0
  Zn  Zn5  1  0.46584993  0.51557769  0.81486103  1.0
  Zn  Zn6  1  0.69052760  0.59363760  0.54510288  1.0
  Zn  Zn7  1  0.04993519  0.70079667  0.51561785  1.0
  Zn  Zn8  1  0.09666540  0.95154413  0.40632636  1.0
  Zn  Zn9  1  0.34886271  0.81483131  0.29918097  1.0
  Zn  Zn10  1  0.14525138  0.45476091  0.04847977  1.0
  Zn  Zn11  1  0.53415003  0.48442300  0.18513840  1.0
  H  H12  1  0.37650568  0.19512800  0.23394529  1.0
  H  H13  1  0.66175734  0.17557062  0.24015876  1.0
  H  H14  1  0.75685514  0.09597942  0.30316690  1.0
  H  H15  1  0.55843077  0.03254280  0.35449644  1.0
  H  H16  1  0.03852844  0.09288654  0.27249033  1.0
  H  H17  1  0.11251666  0.16725758  0.24658731  1.0
  H  H18  1  0.48915922  0.52061960  0.65212098  1.0
  H  H19  1  0.10125366  0.38214377  0.68476313  1.0
  H  H20  1  0.93707049  0.48396424  0.54614413  1.0
  H  H21  1  0.53830539  0.27466521  0.42192359  1.0
  H  H22  1  0.18146313  0.03887511  0.80491236  1.0
  H  H23  1  0.48627214  0.06463508  0.82443511  1.0
  H  H24  1  0.66101072  0.20721776  0.90400688  1.0
  H  H25  1  0.52607875  0.32200046  0.96741861  1.0
  H  H26  1  0.94575098  0.17964184  0.90712869  1.0
  H  H27  1  0.94548784  0.07936922  0.83283762  1.0
  H  H28  1  0.96857011  0.13143627  0.47932838  1.0
  H  H29  1  0.71904081  0.30246718  0.61779515  1.0
  H  H30  1  0.45354081  0.06213998  0.51600980  1.0
  H  H31  1  0.26404596  0.14724956  0.72528719  1.0
  H  H32  1  0.14255329  0.76608985  0.96120147  1.0
  H  H33  1  0.42147048  0.75979318  0.93530898  1.0
  H  H34  1  0.45332002  0.69672037  0.79267398  1.0
  H  H35  1  0.20340777  0.64541547  0.67801978  1.0
  H  H36  1  0.76585544  0.72756229  0.82043529  1.0
  H  H37  1  0.86574197  0.75352697  0.92072770  1.0
  H  H38  1  0.83728941  0.34792677  0.86863494  1.0
  H  H39  1  0.41680244  0.31528259  0.69750517  1.0
  H  H40  1  0.39081212  0.45371051  0.93784604  1.0
  H  H41  1  0.11679961  0.57807450  0.85273860  1.0
  H  H42  1  0.62348946  0.80487026  0.76605269  1.0
  H  H43  1  0.33823809  0.82442826  0.75983953  1.0
  H  H44  1  0.24314211  0.90402067  0.69683208  1.0
  H  H45  1  0.44157098  0.96745668  0.64550306  1.0
  H  H46  1  0.96146942  0.90711477  0.72751186  1.0
  H  H47  1  0.88748360  0.83274372  0.75341503  1.0
  H  H48  1  0.51083652  0.47937988  0.34787918  1.0
  H  H49  1  0.89874088  0.61785571  0.31523747  1.0
  H  H50  1  0.06292615  0.51603463  0.45385476  1.0
  H  H51  1  0.46168856  0.72533549  0.57807859  1.0
  H  H52  1  0.81853952  0.96112376  0.19508795  1.0
  H  H53  1  0.51372992  0.93536500  0.17556522  1.0
  H  H54  1  0.33898803  0.79278293  0.09599248  1.0
  H  H55  1  0.47391909  0.67799841  0.03257931  1.0
  H  H56  1  0.05424957  0.82035764  0.09286969  1.0
  H  H57  1  0.05451121  0.92062965  0.16715986  1.0
  H  H58  1  0.03142924  0.86856321  0.52067096  1.0
  H  H59  1  0.28096004  0.69753291  0.38220510  1.0
  H  H60  1  0.54646186  0.93786132  0.48399114  1.0
  H  H61  1  0.73595489  0.85275053  0.27471358  1.0
  H  H62  1  0.85745236  0.23391024  0.03879961  1.0
  H  H63  1  0.57853216  0.24020569  0.06468925  1.0
  H  H64  1  0.54668262  0.30327850  0.20732477  1.0
  H  H65  1  0.79659308  0.35458461  0.32197995  1.0
  H  H66  1  0.23414753  0.27243963  0.17956700  1.0
  H  H67  1  0.13426309  0.24647433  0.07927391  1.0
  H  H68  1  0.16270934  0.65207392  0.13136598  1.0
  H  H69  1  0.58319751  0.68471810  0.30249531  1.0
  H  H70  1  0.60918934  0.54629079  0.06215430  1.0
  H  H71  1  0.88320065  0.42192680  0.14726219  1.0
  C  C72  1  0.35938311  0.08051322  0.32609819  1.0
  C  C73  1  0.30587738  0.12703244  0.29195369  1.0
  C  C74  1  0.41699835  0.15923314  0.26041231  1.0
  C  C75  1  0.57757859  0.14813626  0.26368160  1.0
  C  C76  1  0.63045783  0.10312773  0.29843493  1.0
  C  C77  1  0.52109598  0.06918513  0.32849654  1.0
  C  C78  1  0.25057453  0.04042152  0.35879577  1.0
  C  C79  1  0.13832564  0.14597195  0.29047481  1.0
  C  C80  1  0.12946509  0.21502340  0.37221144  1.0
  C  C81  1  0.37610879  0.47689626  0.64044485  1.0
  C  C82  1  0.17971617  0.40685876  0.65738235  1.0
  C  C83  1  0.81451499  0.44322351  0.51642227  1.0
  C  C84  1  0.61326478  0.33676017  0.45335015  1.0
  C  C85  1  0.27902517  0.24562125  0.91947030  1.0
  C  C86  1  0.17900404  0.16495627  0.87298700  1.0
  C  C87  1  0.25789719  0.10122539  0.84078903  1.0
  C  C88  1  0.42955980  0.11559162  0.85187197  1.0
  C  C89  1  0.52745756  0.19534610  0.89686918  1.0
  C  C90  1  0.45206750  0.25936053  0.93079779  1.0
  C  C91  1  0.21018628  0.31837230  0.95951419  1.0
  C  C92  1  0.99252188  0.14452445  0.85407482  1.0
  C  C93  1  0.91463902  0.15713889  0.78497130  1.0
  C  C94  1  0.89923093  0.16345348  0.52304618  1.0
  C  C95  1  0.77282436  0.25038799  0.59307062  1.0
  C  C96  1  0.37169021  0.07317601  0.55673731  1.0
  C  C97  1  0.27686443  0.11658860  0.66319065  1.0
  C  C98  1  0.03297217  0.67389969  0.75446650  1.0
  C  C99  1  0.01374373  0.70809921  0.83513943  1.0
  C  C100  1  0.15648222  0.73961908  0.89883247  1.0
  C  C101  1  0.31371340  0.73628849  0.88439450  1.0
  C  C102  1  0.33170038  0.70150393  0.80461347  1.0
  C  C103  1  0.19221849  0.67144861  0.74066619  1.0
  C  C104  1  0.89130518  0.64114867  0.68173351  1.0
  C  C105  1  0.84768728  0.70961729  0.85557460  1.0
  C  C106  1  0.75715938  0.62785539  0.84287377  1.0
  C  C107  1  0.73591605  0.35959638  0.83658734  1.0
  C  C108  1  0.52263839  0.34264743  0.74959377  1.0
  C  C109  1  0.29807109  0.48345887  0.92678598  1.0
  C  C110  1  0.16013568  0.54661298  0.88340402  1.0
  C  C111  1  0.64061593  0.91948565  0.67390138  1.0
  C  C112  1  0.69412197  0.87296704  0.70804670  1.0
  C  C113  1  0.58299829  0.84076573  0.73958658  1.0
  C  C114  1  0.42241805  0.85186261  0.73631676  1.0
  C  C115  1  0.36954121  0.89687114  0.70156359  1.0
  C  C116  1  0.47890457  0.93081435  0.67150236  1.0
  C  C117  1  0.74942571  0.95957735  0.64120387  1.0
  C  C118  1  0.86167402  0.85402814  0.70952693  1.0
  C  C119  1  0.87053577  0.78497669  0.62779038  1.0
  C  C120  1  0.62388696  0.52310322  0.35955531  1.0
  C  C121  1  0.82027957  0.59314072  0.34261833  1.0
  C  C122  1  0.18548136  0.55677719  0.48357798  1.0
  C  C123  1  0.38672886  0.66323992  0.54664964  1.0
  C  C124  1  0.72097507  0.75437762  0.08052778  1.0
  C  C125  1  0.82099531  0.83504321  0.12701234  1.0
  C  C126  1  0.74210336  0.89877409  0.15921092  1.0
  C  C127  1  0.57044105  0.88440847  0.14812880  1.0
  C  C128  1  0.47254240  0.80465460  0.10313078  1.0
  C  C129  1  0.54793275  0.74063834  0.06920029  1.0
  C  C130  1  0.78981338  0.68162778  0.04048494  1.0
  C  C131  1  0.00747808  0.85547624  0.14592461  1.0
  C  C132  1  0.08536093  0.84286181  0.21502865  1.0
  C  C133  1  0.10076992  0.83654661  0.47695407  1.0
  C  C134  1  0.22717499  0.74961149  0.40692924  1.0
  C  C135  1  0.62831125  0.92682529  0.44326355  1.0
  C  C136  1  0.72313762  0.88341149  0.33681020  1.0
  C  C137  1  0.96702929  0.32610162  0.24553384  1.0
  C  C138  1  0.98625893  0.29190209  0.16486046  1.0
  C  C139  1  0.84352374  0.26038161  0.10116735  1.0
  C  C140  1  0.68629075  0.26371099  0.11560567  1.0
  C  C141  1  0.66830107  0.29849494  0.19538625  1.0
  C  C142  1  0.80778326  0.32855087  0.25933383  1.0
  C  C143  1  0.10869628  0.35885263  0.31826682  1.0
  C  C144  1  0.15231538  0.29038402  0.14442634  1.0
  C  C145  1  0.24284658  0.37214530  0.15712552  1.0
  C  C146  1  0.26408270  0.64040431  0.16341306  1.0
  C  C147  1  0.47736037  0.65735327  0.25040663  1.0
  C  C148  1  0.70193157  0.51654244  0.07321443  1.0
  C  C149  1  0.83986579  0.45338832  0.11659632  1.0
  N  N150  1  0.14528157  0.38377111  0.57836749  1.0
  N  N151  1  0.27147424  0.42876241  0.56783409  1.0
  N  N152  1  0.32370495  0.46481422  0.69845610  1.0
  N  N153  1  0.54880937  0.40060692  0.46956788  1.0
  N  N154  1  0.67753917  0.46884345  0.51022406  1.0
  N  N155  1  0.78040745  0.36106902  0.48169016  1.0
  N  N156  1  0.76170117  0.19450301  0.61622164  1.0
  N  N157  1  0.84292699  0.13900314  0.57124361  1.0
  N  N158  1  0.85873940  0.23350027  0.53507714  1.0
  N  N159  1  0.14856763  0.06897296  0.59935195  1.0
  N  N160  1  0.20907084  0.04138145  0.53111957  1.0
  N  N161  1  0.41971774  0.12060050  0.63889057  1.0
  N  N162  1  0.56723734  0.42167299  0.80549914  1.0
  N  N163  1  0.70391670  0.43221644  0.86103876  1.0
  N  N164  1  0.62550283  0.30157423  0.76650331  1.0
  N  N165  1  0.07937371  0.53044226  0.93103030  1.0
  N  N166  1  0.16726469  0.48972047  0.95859802  1.0
  N  N167  1  0.29884705  0.51819454  0.87937381  1.0
  N  N168  1  0.85471387  0.61622776  0.42163288  1.0
  N  N169  1  0.72852150  0.57123707  0.43216659  1.0
  N  N170  1  0.67629199  0.53518526  0.30154465  1.0
  N  N171  1  0.45118818  0.59939378  0.53043349  1.0
  N  N172  1  0.32245777  0.53115603  0.48977617  1.0
  N  N173  1  0.21958829  0.63893046  0.51830947  1.0
  N  N174  1  0.23830089  0.80549708  0.38377868  1.0
  N  N175  1  0.15707267  0.86099695  0.42875657  1.0
  N  N176  1  0.14125995  0.76649920  0.46492221  1.0
  N  N177  1  0.85143443  0.93102713  0.40064890  1.0
  N  N178  1  0.79093121  0.95861864  0.46888075  1.0
  N  N179  1  0.58028342  0.87940020  0.36111051  1.0
  N  N180  1  0.43276141  0.57832770  0.19450074  1.0
  N  N181  1  0.29608205  0.56778426  0.13896164  1.0
  N  N182  1  0.37449623  0.69842708  0.23349792  1.0
  N  N183  1  0.92062745  0.46955843  0.06897026  1.0
  N  N184  1  0.83273678  0.51028084  0.04140232  1.0
  N  N185  1  0.70115441  0.48180677  0.12062705  1.0
  O  O186  1  0.30391596  0.98841398  0.37549838  1.0
  O  O187  1  0.11123045  0.05499683  0.36925495  1.0
  O  O188  1  0.98322771  0.21387019  0.38528537  1.0
  O  O189  1  0.25812624  0.26929259  0.41970064  1.0
  O  O190  1  0.31547913  0.38708123  0.01159287  1.0
  O  O191  1  0.05626751  0.31420443  0.94484848  1.0
  O  O192  1  0.76961169  0.17141233  0.78613624  1.0
  O  O193  1  0.98898255  0.15024346  0.73065929  1.0
  O  O194  1  0.92794739  0.62454054  0.61302725  1.0
  O  O195  1  0.74156714  0.63056510  0.68587589  1.0
  O  O196  1  0.59784275  0.61471363  0.82858092  1.0
  O  O197  1  0.83840456  0.58041285  0.84970843  1.0
  O  O198  1  0.69608609  0.01158610  0.62450247  1.0
  O  O199  1  0.88876980  0.94500204  0.63074417  1.0
  O  O200  1  0.01677373  0.78612868  0.61471644  1.0
  O  O201  1  0.74187551  0.73070688  0.58030199  1.0
  O  O202  1  0.68452292  0.61291886  0.98840537  1.0
  O  O203  1  0.94373365  0.68579626  0.05515207  1.0
  O  O204  1  0.23039038  0.82859019  0.21386419  1.0
  O  O205  1  0.01101951  0.84975663  0.26934000  1.0
  O  O206  1  0.07205377  0.37546015  0.38697330  1.0
  O  O207  1  0.25843583  0.36943681  0.31412431  1.0
  O  O208  1  0.40216411  0.38528645  0.17141868  1.0
  O  O209  1  0.16159990  0.41958723  0.15028996  1.0
