# generated using pymatgen
data_ZnH19C26N2ClO6
_symmetry_space_group_name_H-M   'P 1'
_cell_length_a   9.69877738
_cell_length_b   11.00229548
_cell_length_c   23.55469915
_cell_angle_alpha   89.77672744
_cell_angle_beta   91.01749722
_cell_angle_gamma   89.69226539
_symmetry_Int_Tables_number   1
_chemical_formula_structural   ZnH19C26N2ClO6
_chemical_formula_sum   'Zn2 H38 C52 N4 Cl2 O12'
_cell_volume   2513.04141091
_cell_formula_units_Z   2
loop_
 _symmetry_equiv_pos_site_id
 _symmetry_equiv_pos_as_xyz
  1  'x, y, z'
loop_
 _atom_site_type_symbol
 _atom_site_label
 _atom_site_symmetry_multiplicity
 _atom_site_fract_x
 _atom_site_fract_y
 _atom_site_fract_z
 _atom_site_occupancy
  Zn  Zn0  1  0.36076746  0.49218366  0.50150858  1.0
  Zn  Zn1  1  0.64567455  0.49147665  0.50644062  1.0
  H  H2  1  0.77997874  0.35860768  0.94957264  1.0
  H  H3  1  0.68092455  0.62978403  0.67471164  1.0
  H  H4  1  0.30783890  0.42581615  0.69104933  1.0
  H  H5  1  0.68449719  0.10252081  0.56450379  1.0
  H  H6  1  0.19742696  0.87996706  0.45042470  1.0
  H  H7  1  0.30991039  0.11291658  0.39667720  1.0
  H  H8  1  0.19284284  0.10659718  0.45414446  1.0
  H  H9  1  0.88590750  0.40992275  0.58452562  1.0
  H  H10  1  0.14557648  0.40716841  0.57842540  1.0
  H  H11  1  0.11853172  0.68280158  0.39954837  1.0
  H  H12  1  0.86449790  0.70107953  0.41229634  1.0
  H  H13  1  0.83794592  0.56075184  0.37563349  1.0
  H  H14  1  0.31464195  0.80677729  0.05832604  1.0
  H  H15  1  0.30624001  0.80669712  0.95074815  1.0
  H  H16  1  0.61670796  0.73767563  0.23669595  1.0
  H  H17  1  0.60283416  0.69705063  0.34094646  1.0
  H  H18  1  0.45264214  0.38223085  0.20342235  1.0
  H  H19  1  0.69010846  0.65890671  0.78041412  1.0
  H  H20  1  0.34291459  0.24268748  0.79082870  1.0
  H  H21  1  0.42390898  0.30448511  0.85193227  1.0
  H  H22  1  0.24612211  0.26483491  0.85342390  1.0
  H  H23  1  0.26422715  0.49005627  0.84300175  1.0
  H  H24  1  0.18993362  0.42709199  0.78131839  1.0
  H  H25  1  0.12641620  0.85010311  0.34029094  1.0
  H  H26  1  0.21281110  0.98542827  0.32134186  1.0
  H  H27  1  0.26172898  0.84491211  0.29043427  1.0
  H  H28  1  0.43339055  0.90529692  0.36591477  1.0
  H  H29  1  0.35122105  0.76870946  0.38435282  1.0
  H  H30  1  0.09931646  0.33662204  0.38349192  1.0
  H  H31  1  0.94336484  0.38459599  0.34913128  1.0
  H  H32  1  0.08756171  0.34315179  0.30841055  1.0
  H  H33  1  0.07265088  0.56878126  0.30967237  1.0
  H  H34  1  0.22253531  0.51989314  0.34714030  1.0
  H  H35  1  0.60401419  0.19992291  0.28361388  1.0
  H  H36  1  0.61691240  0.24694612  0.35567902  1.0
  H  H37  1  0.50642822  0.12480879  0.33642054  1.0
  H  H38  1  0.36845242  0.31511143  0.35191044  1.0
  H  H39  1  0.35366814  0.26707741  0.28061252  1.0
  C  C40  1  0.51022980  0.25821402  0.50761165  1.0
  C  C41  1  0.71750426  0.42253493  0.97340794  1.0
  C  C42  1  0.72872727  0.42584990  0.03318168  1.0
  C  C43  1  0.64620612  0.50504226  0.06467062  1.0
  C  C44  1  0.55306092  0.58417820  0.03476252  1.0
  C  C45  1  0.46577631  0.66562628  0.06408512  1.0
  C  C46  1  0.37953376  0.74542580  0.03409140  1.0
  C  C47  1  0.37415350  0.74496143  0.97455652  1.0
  C  C48  1  0.65066042  0.50809566  0.12767074  1.0
  C  C49  1  0.45910845  0.66278074  0.12688612  1.0
  C  C50  1  0.57841226  0.65118357  0.25242869  1.0
  C  C51  1  0.51316552  0.49748725  0.39337165  1.0
  C  C52  1  0.57045408  0.62799942  0.31046849  1.0
  C  C53  1  0.52046485  0.51679803  0.33030183  1.0
  C  C54  1  0.47596889  0.42634440  0.29220438  1.0
  C  C55  1  0.48476909  0.45097379  0.23413471  1.0
  C  C56  1  0.53596224  0.56132821  0.21466482  1.0
  C  C57  1  0.60699727  0.60759995  0.76021789  1.0
  C  C58  1  0.60243956  0.59133358  0.70182685  1.0
  C  C59  1  0.49464792  0.52456277  0.67705149  1.0
  C  C60  1  0.39168307  0.47647995  0.71118413  1.0
  C  C61  1  0.39516738  0.49001259  0.77028269  1.0
  C  C62  1  0.50418425  0.72590590  0.50358864  1.0
  C  C63  1  0.50563733  0.55590502  0.79370798  1.0
  C  C64  1  0.40772845  0.05749258  0.47873241  1.0
  C  C65  1  0.50655059  0.12321528  0.50895745  1.0
  C  C66  1  0.60558144  0.05499245  0.53992511  1.0
  C  C67  1  0.60494493  0.92795373  0.53962186  1.0
  C  C68  1  0.50615269  0.86110524  0.50803923  1.0
  C  C69  1  0.40868857  0.93105509  0.47848878  1.0
  C  C70  1  0.29186615  0.92270528  0.43459155  1.0
  C  C71  1  0.28753524  0.06699193  0.43697618  1.0
  C  C72  1  0.92400704  0.54106898  0.46257050  1.0
  C  C73  1  0.49310901  0.50570170  0.61412573  1.0
  C  C74  1  0.93787882  0.44704525  0.54773949  1.0
  C  C75  1  0.08108130  0.44406586  0.54409575  1.0
  C  C76  1  0.06696236  0.53432594  0.45769371  1.0
  C  C77  1  0.06502641  0.59499973  0.39928107  1.0
  C  C78  1  0.90253794  0.60760530  0.40722250  1.0
  C  C79  1  0.44188916  0.65807841  0.88179533  1.0
  C  C80  1  0.61579370  0.48893438  0.88167153  1.0
  C  C81  1  0.62728648  0.49884206  0.94439239  1.0
  C  C82  1  0.54482431  0.58256913  0.97427816  1.0
  C  C83  1  0.45425359  0.66279279  0.94472071  1.0
  C  C84  1  0.28653036  0.43188654  0.80639546  1.0
  C  C85  1  0.32717000  0.30372286  0.82697488  1.0
  C  C86  1  0.33314620  0.86686289  0.37800640  1.0
  C  C87  1  0.22785726  0.88782789  0.32992418  1.0
  C  C88  1  0.10947508  0.51991958  0.34799326  1.0
  C  C89  1  0.05644346  0.38927188  0.34744932  1.0
  C  C90  1  0.42631045  0.30405590  0.31248733  1.0
  C  C91  1  0.54552215  0.21355669  0.32264001  1.0
  N  N92  1  0.52017040  0.56757200  0.85469374  1.0
  N  N93  1  0.54707045  0.57823580  0.15410803  1.0
  N  N94  1  0.85606588  0.49719049  0.50646484  1.0
  N  N95  1  0.14895514  0.48812671  0.49832440  1.0
  Cl  Cl96  1  0.72975770  0.85302934  0.58066746  1.0
  Cl  Cl97  1  0.84574373  0.32561979  0.06303849  1.0
  O  O98  1  0.39869710  0.31151185  0.49179175  1.0
  O  O99  1  0.68349800  0.41521155  0.85459587  1.0
  O  O100  1  0.73558058  0.45227600  0.15703060  1.0
  O  O101  1  0.38012398  0.72746674  0.15386439  1.0
  O  O102  1  0.62304537  0.30995152  0.52138182  1.0
  O  O103  1  0.39760025  0.51984071  0.41585778  1.0
  O  O104  1  0.62284235  0.46317154  0.41907277  1.0
  O  O105  1  0.38905357  0.67522920  0.51289840  1.0
  O  O106  1  0.61511030  0.67335238  0.48923928  1.0
  O  O107  1  0.38143847  0.47174469  0.58977893  1.0
  O  O108  1  0.60665112  0.52629331  0.58942028  1.0
  O  O109  1  0.36617063  0.72682910  0.85419439  1.0
