# generated using pymatgen
data_Mg3H30C32(NO5)4
_symmetry_space_group_name_H-M   'P 1'
_cell_length_a   13.31900168
_cell_length_b   14.48216670
_cell_length_c   14.70830810
_cell_angle_alpha   91.77579986
_cell_angle_beta   90.00000329
_cell_angle_gamma   89.99996913
_symmetry_Int_Tables_number   1
_chemical_formula_structural   Mg3H30C32(NO5)4
_chemical_formula_sum   'Mg6 H60 C64 N8 O40'
_cell_volume   2835.69364155
_cell_formula_units_Z   2
loop_
 _symmetry_equiv_pos_site_id
 _symmetry_equiv_pos_as_xyz
  1  'x, y, z'
loop_
 _atom_site_type_symbol
 _atom_site_label
 _atom_site_symmetry_multiplicity
 _atom_site_fract_x
 _atom_site_fract_y
 _atom_site_fract_z
 _atom_site_occupancy
  Mg  Mg0  1  0.00000075  0.00000000  1.00000000  1.0
  Mg  Mg1  1  0.49999932  0.49999952  0.49999979  1.0
  Mg  Mg2  1  0.05072381  0.75613433  0.01157029  1.0
  Mg  Mg3  1  0.55072377  0.74386597  0.48843041  1.0
  Mg  Mg4  1  0.94927632  0.24386540  0.98842930  1.0
  Mg  Mg5  1  0.44927637  0.25613445  0.51156989  1.0
  H  H6  1  0.18572796  0.62946459  0.06002618  1.0
  H  H7  1  0.68572859  0.87053564  0.43997385  1.0
  H  H8  1  0.81427142  0.37053583  0.93997480  1.0
  H  H9  1  0.31427229  0.12946478  0.56002577  1.0
  H  H10  1  0.19122915  0.64012073  0.95051545  1.0
  H  H11  1  0.69122826  0.85988008  0.54948507  1.0
  H  H12  1  0.80877173  0.35987900  0.04948551  1.0
  H  H13  1  0.30877112  0.14012104  0.45051593  1.0
  H  H14  1  0.44901873  0.65406853  0.65973399  1.0
  H  H15  1  0.94901937  0.84593146  0.84026651  1.0
  H  H16  1  0.55098141  0.34593258  0.34026564  1.0
  H  H17  1  0.05098077  0.15406827  0.15973308  1.0
  H  H18  1  0.42352597  0.13411351  0.34212714  1.0
  H  H19  1  0.92352658  0.36588578  0.15787360  1.0
  H  H20  1  0.57647341  0.86588622  0.65787313  1.0
  H  H21  1  0.07647430  0.63411464  0.84212738  1.0
  H  H22  1  0.34541424  0.17533354  0.26309006  1.0
  H  H23  1  0.84541414  0.32466578  0.23690932  1.0
  H  H24  1  0.65458589  0.82466688  0.73690956  1.0
  H  H25  1  0.15458600  0.67533464  0.76309030  1.0
  H  H26  1  0.27150707  0.15536717  0.72867018  1.0
  H  H27  1  0.77150621  0.34463277  0.77133037  1.0
  H  H28  1  0.72849306  0.84463256  0.27133010  1.0
  H  H29  1  0.22849318  0.65536696  0.22867059  1.0
  H  H30  1  0.38425052  0.12849738  0.68241143  1.0
  H  H31  1  0.88424963  0.37150112  0.81758908  1.0
  H  H32  1  0.61574962  0.87150235  0.31758884  1.0
  H  H33  1  0.11574975  0.62849861  0.18241188  1.0
  H  H34  1  0.23545032  0.07665230  0.17059781  1.0
  H  H35  1  0.73544941  0.42334708  0.32940089  1.0
  H  H36  1  0.76454906  0.92334743  0.82940111  1.0
  H  H37  1  0.26455072  0.57665334  0.67059873  1.0
  H  H38  1  0.43378701  0.96994288  0.37449365  1.0
  H  H39  1  0.93378706  0.53005516  0.12550632  1.0
  H  H40  1  0.56621313  0.03005685  0.62550594  1.0
  H  H41  1  0.06621307  0.46994527  0.87449465  1.0
  H  H42  1  0.26902771  0.78419046  0.19584466  1.0
  H  H43  1  0.76902842  0.71580904  0.30415467  1.0
  H  H44  1  0.73097167  0.21580927  0.80415630  1.0
  H  H45  1  0.23097096  0.28419138  0.69584631  1.0
  H  H46  1  0.26482096  0.76495905  0.79298372  1.0
  H  H47  1  0.76482165  0.73504033  0.70701608  1.0
  H  H48  1  0.73517842  0.23504067  0.20701588  1.0
  H  H49  1  0.23517848  0.26495870  0.29298350  1.0
  H  H50  1  0.41119974  0.96188309  0.62290107  1.0
  H  H51  1  0.91119981  0.53811623  0.87710009  1.0
  H  H52  1  0.58880040  0.03811734  0.37709990  1.0
  H  H53  1  0.08880033  0.46188419  0.12289953  1.0
  H  H54  1  0.16431964  0.04742746  0.79525631  1.0
  H  H55  1  0.66431946  0.45257323  0.70474425  1.0
  H  H56  1  0.83567974  0.95257296  0.20474399  1.0
  H  H57  1  0.33567917  0.54742650  0.29525603  1.0
  H  H58  1  0.90600936  0.84313240  0.09483003  1.0
  H  H59  1  0.40600949  0.65686772  0.40517000  1.0
  H  H60  1  0.09399002  0.15686802  0.90516959  1.0
  H  H61  1  0.59398989  0.34313270  0.59483029  1.0
  H  H62  1  0.87421571  0.87589157  0.99437050  1.0
  H  H63  1  0.37421508  0.62410845  0.50562932  1.0
  H  H64  1  0.12578518  0.12410954  0.00562913  1.0
  H  H65  1  0.62578506  0.37589059  0.49437026  1.0
  C  C66  1  0.16612356  0.91176610  0.10658342  1.0
  C  C67  1  0.66612360  0.58823345  0.39341590  1.0
  C  C68  1  0.83387657  0.08823363  0.89341618  1.0
  C  C69  1  0.33387653  0.41176697  0.60658439  1.0
  C  C70  1  0.24582322  0.92895371  0.17642563  1.0
  C  C71  1  0.74582327  0.57104580  0.32357301  1.0
  C  C72  1  0.75417616  0.07104533  0.82357394  1.0
  C  C73  1  0.25417686  0.42895393  0.67642658  1.0
  C  C74  1  0.27155740  0.01893455  0.20333420  1.0
  C  C75  1  0.77155570  0.48106481  0.29666450  1.0
  C  C76  1  0.72844348  0.98106518  0.79666608  1.0
  C  C77  1  0.22844368  0.51893561  0.70333580  1.0
  C  C78  1  0.33969464  0.03496618  0.27470975  1.0
  C  C79  1  0.83969370  0.46503245  0.22528962  1.0
  C  C80  1  0.66030550  0.96503424  0.72529055  1.0
  C  C81  1  0.16030644  0.53496797  0.77471000  1.0
  C  C82  1  0.38296413  0.95928264  0.31706728  1.0
  C  C83  1  0.88296418  0.54071611  0.18293135  1.0
  C  C84  1  0.61703601  0.04071709  0.68293300  1.0
  C  C85  1  0.11703595  0.45928431  0.81706826  1.0
  C  C86  1  0.35846007  0.86890658  0.28880149  1.0
  C  C87  1  0.85846007  0.63109149  0.21119713  1.0
  C  C88  1  0.64154007  0.13109384  0.71119881  1.0
  C  C89  1  0.14154007  0.36890823  0.78880247  1.0
  C  C90  1  0.40420976  0.79077025  0.33843302  1.0
  C  C91  1  0.90421122  0.70922849  0.16156629  1.0
  C  C92  1  0.59579037  0.20922948  0.66156725  1.0
  C  C93  1  0.09578891  0.29077124  0.83843331  1.0
  C  C94  1  0.28954199  0.85361430  0.21861067  1.0
  C  C95  1  0.78954049  0.64638450  0.28138932  1.0
  C  C96  1  0.71045815  0.14638543  0.78139028  1.0
  C  C97  1  0.21045965  0.35361523  0.71861096  1.0
  C  C98  1  0.12319996  0.87938396  0.86401941  1.0
  C  C99  1  0.62319996  0.62061550  0.63598174  1.0
  C  C100  1  0.87680018  0.12061577  0.13598154  1.0
  C  C101  1  0.37679867  0.37938423  0.36401922  1.0
  C  C102  1  0.20479540  0.90360096  0.79843522  1.0
  C  C103  1  0.70479467  0.59639985  0.70156598  1.0
  C  C104  1  0.79520473  0.09639878  0.20156574  1.0
  C  C105  1  0.29520471  0.40360127  0.29843502  1.0
  C  C106  1  0.27049254  0.83411608  0.76678949  1.0
  C  C107  1  0.77049252  0.66588331  0.73321099  1.0
  C  C108  1  0.72950760  0.16588365  0.23321079  1.0
  C  C109  1  0.22950611  0.33411711  0.26678863  1.0
  C  C110  1  0.34254448  0.85520614  0.70130583  1.0
  C  C111  1  0.84254448  0.64479321  0.79869465  1.0
  C  C112  1  0.65745641  0.14479428  0.29869378  1.0
  C  C113  1  0.15745641  0.35520651  0.20130427  1.0
  C  C114  1  0.40509273  0.78310485  0.65576652  1.0
  C  C115  1  0.90509344  0.71689447  0.84423396  1.0
  C  C116  1  0.59490741  0.21689488  0.34423375  1.0
  C  C117  1  0.09490820  0.28310595  0.15576497  1.0
  C  C118  1  0.35502436  0.94661293  0.67411883  1.0
  C  C119  1  0.85502367  0.55338641  0.82588166  1.0
  C  C120  1  0.64497652  0.05338680  0.32588145  1.0
  C  C121  1  0.14497647  0.44661262  0.17411860  1.0
  C  C122  1  0.29524763  0.01765680  0.71181996  1.0
  C  C123  1  0.79524744  0.48234313  0.78818126  1.0
  C  C124  1  0.70475250  0.98234362  0.28818033  1.0
  C  C125  1  0.20475270  0.51765730  0.21181971  1.0
  C  C126  1  0.21610478  0.99419407  0.77017494  1.0
  C  C127  1  0.71610411  0.50580604  0.72982624  1.0
  C  C128  1  0.78389611  0.00580636  0.22982536  1.0
  C  C129  1  0.28389453  0.49419438  0.27017406  1.0
  N  N130  1  0.35823729  0.12439880  0.30743768  1.0
  N  N131  1  0.85823715  0.37559982  0.19256168  1.0
  N  N132  1  0.64176284  0.87560092  0.69256191  1.0
  N  N133  1  0.14176373  0.62440060  0.80743794  1.0
  N  N134  1  0.31041616  0.10953745  0.68791857  1.0
  N  N135  1  0.81041527  0.39046178  0.81208196  1.0
  N  N136  1  0.68958398  0.89046228  0.31208238  1.0
  N  N137  1  0.18958337  0.60953795  0.18791900  1.0
  O  O138  1  0.13362640  0.82975024  0.09876615  1.0
  O  O139  1  0.63362640  0.67025002  0.40123455  1.0
  O  O140  1  0.86637373  0.17025018  0.90123414  1.0
  O  O141  1  0.36637374  0.32974971  0.59876573  1.0
  O  O142  1  0.14726336  0.64155916  0.00383561  1.0
  O  O143  1  0.64726325  0.85844040  0.49616507  1.0
  O  O144  1  0.85273602  0.35843988  0.99616532  1.0
  O  O145  1  0.35273688  0.14156002  0.50383523  1.0
  O  O146  1  0.13391542  0.97964853  0.06112135  1.0
  O  O147  1  0.63391400  0.52035103  0.43887797  1.0
  O  O148  1  0.86608622  0.02035051  0.93887822  1.0
  O  O149  1  0.36608463  0.47964870  0.56112163  1.0
  O  O150  1  0.93365782  0.86957184  0.03261522  1.0
  O  O151  1  0.43365722  0.63042827  0.46738550  1.0
  O  O152  1  0.06634231  0.13042788  0.96738438  1.0
  O  O153  1  0.56634217  0.36957146  0.53261410  1.0
  O  O154  1  0.36438773  0.71043392  0.33126054  1.0
  O  O155  1  0.86438764  0.78956553  0.16873948  1.0
  O  O156  1  0.63561240  0.28956649  0.66873908  1.0
  O  O157  1  0.13561174  0.21043489  0.83125946  1.0
  O  O158  1  0.48040166  0.81021841  0.38807050  1.0
  O  O159  1  0.98040312  0.68978029  0.11192949  1.0
  O  O160  1  0.51959848  0.18978132  0.61192977  1.0
  O  O161  1  0.01959701  0.31022012  0.88806944  1.0
  O  O162  1  0.13382014  0.80497838  0.90560517  1.0
  O  O163  1  0.63381860  0.69502108  0.59439598  1.0
  O  O164  1  0.86618149  0.19502135  0.09439511  1.0
  O  O165  1  0.36618003  0.30497935  0.40560567  1.0
  O  O166  1  0.04584730  0.93225544  0.87313627  1.0
  O  O167  1  0.54584883  0.56774336  0.62686350  1.0
  O  O168  1  0.95415209  0.06774360  0.12686398  1.0
  O  O169  1  0.45415130  0.43225567  0.37313540  1.0
  O  O170  1  0.40111498  0.69915326  0.69046758  1.0
  O  O171  1  0.90111564  0.80084675  0.80953225  1.0
  O  O172  1  0.59888516  0.30084785  0.30953138  1.0
  O  O173  1  0.09888450  0.19915298  0.19046735  1.0
  O  O174  1  0.45726855  0.80143336  0.58844034  1.0
  O  O175  1  0.95726928  0.69856662  0.91156017  1.0
  O  O176  1  0.54273158  0.19856775  0.41155998  1.0
  O  O177  1  0.04273311  0.30143241  0.08843805  1.0
