# generated using pymatgen
data_CuH16C21N4O5
_symmetry_space_group_name_H-M   'P 1'
_cell_length_a   9.53810276
_cell_length_b   14.47271486
_cell_length_c   19.64901847
_cell_angle_alpha   90.00013098
_cell_angle_beta   89.99931562
_cell_angle_gamma   89.99715024
_symmetry_Int_Tables_number   1
_chemical_formula_structural   CuH16C21N4O5
_chemical_formula_sum   'Cu4 H64 C84 N16 O20'
_cell_volume   2712.39455032
_cell_formula_units_Z   4
loop_
 _symmetry_equiv_pos_site_id
 _symmetry_equiv_pos_as_xyz
  1  'x, y, z'
loop_
 _atom_site_type_symbol
 _atom_site_label
 _atom_site_symmetry_multiplicity
 _atom_site_fract_x
 _atom_site_fract_y
 _atom_site_fract_z
 _atom_site_occupancy
  Cu  Cu0  1  0.11297912  0.25977436  0.74999919  1.0
  Cu  Cu1  1  0.38702063  0.75974863  0.24999777  1.0
  Cu  Cu2  1  0.61298496  0.24024335  0.75000079  1.0
  Cu  Cu3  1  0.88704010  0.74023075  0.24999733  1.0
  H  H4  1  0.85270293  0.50101503  0.75000592  1.0
  H  H5  1  0.64732686  0.00095452  0.24999179  1.0
  H  H6  1  0.35267244  0.99904022  0.75000473  1.0
  H  H7  1  0.14732677  0.49901150  0.24999722  1.0
  H  H8  1  0.84222761  0.37720981  0.75000584  1.0
  H  H9  1  0.65776074  0.87715209  0.24999150  1.0
  H  H10  1  0.34225114  0.12285440  0.75000350  1.0
  H  H11  1  0.15775492  0.62282293  0.24999730  1.0
  H  H12  1  0.05563973  0.62440312  0.96673976  1.0
  H  H13  1  0.44431169  0.12438973  0.03328649  1.0
  H  H14  1  0.55561539  0.87561541  0.53325683  1.0
  H  H15  1  0.94437308  0.37560195  0.46674305  1.0
  H  H16  1  0.94436377  0.37559784  0.03325575  1.0
  H  H17  1  0.55562051  0.87561538  0.96674108  1.0
  H  H18  1  0.44430108  0.12438694  0.46670458  1.0
  H  H19  1  0.05564090  0.62441283  0.53326722  1.0
  H  H20  1  0.97416985  0.56478358  0.85734177  1.0
  H  H21  1  0.52583198  0.06475568  0.14264943  1.0
  H  H22  1  0.47413748  0.93524081  0.64265647  1.0
  H  H23  1  0.02585405  0.43522669  0.35734588  1.0
  H  H24  1  0.02584413  0.43522291  0.14265526  1.0
  H  H25  1  0.47414635  0.93524114  0.85734709  1.0
  H  H26  1  0.52584086  0.06475601  0.35734209  1.0
  H  H27  1  0.97416412  0.56478809  0.64266896  1.0
  H  H28  1  0.16831743  0.69120081  0.06881067  1.0
  H  H29  1  0.33166346  0.19119171  0.93121061  1.0
  H  H30  1  0.66831144  0.80880082  0.43118875  1.0
  H  H31  1  0.83168006  0.30879545  0.56880542  1.0
  H  H32  1  0.83167033  0.30879739  0.93119146  1.0
  H  H33  1  0.66832012  0.80880027  0.06880729  1.0
  H  H34  1  0.33166060  0.19118978  0.56878029  1.0
  H  H35  1  0.16831609  0.69120689  0.43119620  1.0
  H  H36  1  0.22084557  0.31820486  0.89642049  1.0
  H  H37  1  0.27910985  0.81819115  0.10359846  1.0
  H  H38  1  0.72087316  0.18178726  0.60358802  1.0
  H  H39  1  0.77914172  0.68179240  0.39641051  1.0
  H  H40  1  0.77914429  0.68179264  0.10358723  1.0
  H  H41  1  0.72087582  0.18179116  0.89641537  1.0
  H  H42  1  0.27912615  0.81818883  0.39639578  1.0
  H  H43  1  0.22084395  0.31821202  0.60358653  1.0
  H  H44  1  0.33705250  0.39130688  0.97764413  1.0
  H  H45  1  0.16293715  0.89130703  0.02235256  1.0
  H  H46  1  0.83704367  0.10868978  0.52234896  1.0
  H  H47  1  0.66297052  0.60869961  0.47765555  1.0
  H  H48  1  0.66296672  0.60870168  0.02234782  1.0
  H  H49  1  0.83704118  0.10869117  0.97764804  1.0
  H  H50  1  0.16293256  0.89130150  0.47764654  1.0
  H  H51  1  0.33704346  0.39131310  0.52236235  1.0
  H  H52  1  0.45383573  0.46201462  0.07758312  1.0
  H  H53  1  0.04618834  0.96200884  0.92240402  1.0
  H  H54  1  0.95383500  0.03796432  0.42241584  1.0
  H  H55  1  0.54617518  0.53798305  0.57758346  1.0
  H  H56  1  0.54617511  0.53798842  0.92241748  1.0
  H  H57  1  0.95383717  0.03796794  0.07758182  1.0
  H  H58  1  0.04618108  0.96200969  0.57759392  1.0
  H  H59  1  0.45382831  0.46201860  0.42242375  1.0
  H  H60  1  0.39679620  0.33699227  0.70968803  1.0
  H  H61  1  0.10322278  0.83697029  0.29030958  1.0
  H  H62  1  0.89680173  0.16301007  0.79031133  1.0
  H  H63  1  0.60321982  0.66301340  0.20968869  1.0
  H  H64  1  0.60321778  0.66301007  0.29031257  1.0
  H  H65  1  0.89680797  0.16301409  0.70968746  1.0
  H  H66  1  0.10321854  0.83697777  0.20968621  1.0
  H  H67  1  0.39679625  0.33699378  0.79031648  1.0
  C  C68  1  0.39785115  0.62481713  0.13753552  1.0
  C  C69  1  0.10216628  0.12482836  0.86245002  1.0
  C  C70  1  0.89785854  0.87517295  0.36246054  1.0
  C  C71  1  0.60215932  0.37517865  0.63754188  1.0
  C  C72  1  0.60215129  0.37518452  0.86246050  1.0
  C  C73  1  0.89785818  0.87517053  0.13753429  1.0
  C  C74  1  0.10217326  0.12483423  0.63754667  1.0
  C  C75  1  0.39785151  0.62482162  0.36246380  1.0
  C  C76  1  0.12420338  0.46100618  0.90399532  1.0
  C  C77  1  0.37575576  0.96099900  0.09601726  1.0
  C  C78  1  0.62420227  0.03900011  0.59601070  1.0
  C  C79  1  0.87580364  0.53900009  0.40399420  1.0
  C  C80  1  0.87579697  0.53899617  0.09600884  1.0
  C  C81  1  0.62420789  0.03900127  0.90398894  1.0
  C  C82  1  0.37576453  0.96099532  0.40397921  1.0
  C  C83  1  0.12420719  0.46101262  0.59601301  1.0
  C  C84  1  0.91322581  0.43679251  0.75000569  1.0
  C  C85  1  0.58679151  0.93675228  0.24999328  1.0
  C  C86  1  0.41323400  0.06324454  0.75000325  1.0
  C  C87  1  0.08676929  0.56321812  0.24999847  1.0
  C  C88  1  0.14314041  0.58808790  0.99051725  1.0
  C  C89  1  0.35684210  0.08808485  0.00949621  1.0
  C  C90  1  0.64312331  0.91192021  0.50947730  1.0
  C  C91  1  0.85687496  0.41191380  0.49051857  1.0
  C  C92  1  0.85686518  0.41191030  0.00948233  1.0
  C  C93  1  0.64312784  0.91192026  0.99052220  1.0
  C  C94  1  0.35683196  0.08808075  0.49049327  1.0
  C  C95  1  0.14312959  0.58809960  0.50948814  1.0
  C  C96  1  0.02725450  0.49854520  0.85840353  1.0
  C  C97  1  0.47272378  0.99850947  0.14160606  1.0
  C  C98  1  0.52724675  0.00148011  0.64160407  1.0
  C  C99  1  0.97275364  0.50146645  0.35839873  1.0
  C  C100  1  0.97274480  0.50146681  0.14160165  1.0
  C  C101  1  0.52725665  0.00148182  0.85839759  1.0
  C  C102  1  0.47273472  0.99851118  0.35838890  1.0
  C  C103  1  0.02725509  0.49855178  0.64160644  1.0
  C  C104  1  0.20691276  0.62636091  0.04766848  1.0
  C  C105  1  0.29309721  0.12635243  0.95234963  1.0
  C  C106  1  0.70690966  0.87364777  0.45232818  1.0
  C  C107  1  0.79308945  0.37364220  0.54767068  1.0
  C  C108  1  0.79308025  0.37364282  0.95232957  1.0
  C  C109  1  0.70691467  0.87364923  0.04766776  1.0
  C  C110  1  0.29308755  0.12635388  0.54764392  1.0
  C  C111  1  0.20690356  0.62636636  0.45233857  1.0
  C  C112  1  0.15003513  0.37123542  0.87838727  1.0
  C  C113  1  0.34992356  0.87121809  0.12162566  1.0
  C  C114  1  0.65005900  0.12876382  0.62161911  1.0
  C  C115  1  0.84995785  0.62876662  0.37838289  1.0
  C  C116  1  0.84995054  0.62876623  0.12161587  1.0
  C  C117  1  0.65006001  0.12876698  0.87838410  1.0
  C  C118  1  0.34994135  0.87121710  0.37836826  1.0
  C  C119  1  0.15003726  0.37124056  0.62162127  1.0
  C  C120  1  0.18789400  0.50254064  0.96436613  1.0
  C  C121  1  0.31206572  0.00253981  0.03563651  1.0
  C  C122  1  0.68789171  0.99747086  0.53563123  1.0
  C  C123  1  0.81211048  0.49746719  0.46437039  1.0
  C  C124  1  0.81210215  0.49746377  0.03563244  1.0
  C  C125  1  0.68789794  0.99747290  0.96436816  1.0
  C  C126  1  0.31206041  0.00253701  0.46435665  1.0
  C  C127  1  0.18788673  0.50254759  0.53563937  1.0
  C  C128  1  0.32011270  0.58159628  0.07912770  1.0
  C  C129  1  0.17991643  0.08158790  0.92088321  1.0
  C  C130  1  0.82011323  0.91839562  0.42087034  1.0
  C  C131  1  0.67989712  0.41840486  0.57912860  1.0
  C  C132  1  0.67988869  0.41840676  0.92087290  1.0
  C  C133  1  0.82011327  0.91839648  0.07912553  1.0
  C  C134  1  0.17990704  0.08158530  0.57911245  1.0
  C  C135  1  0.32009904  0.58160233  0.42087912  1.0
  C  C136  1  0.29835233  0.45658555  0.99778169  1.0
  C  C137  1  0.20163127  0.95658162  0.00221765  1.0
  C  C138  1  0.79834271  0.04340961  0.50221264  1.0
  C  C139  1  0.70166495  0.54341894  0.49778718  1.0
  C  C140  1  0.70166060  0.54341749  0.00221637  1.0
  C  C141  1  0.79834497  0.04341243  0.99778702  1.0
  C  C142  1  0.20162933  0.95657616  0.49777523  1.0
  C  C143  1  0.29833854  0.45659516  0.50222258  1.0
  C  C144  1  0.36452241  0.49604281  0.05368043  1.0
  C  C145  1  0.13548962  0.99602317  0.94632407  1.0
  C  C146  1  0.86452055  0.00395559  0.44632006  1.0
  C  C147  1  0.63548595  0.50396515  0.55368427  1.0
  C  C148  1  0.63548214  0.50396644  0.94631763  1.0
  C  C149  1  0.86452332  0.00396121  0.05367704  1.0
  C  C150  1  0.13548294  0.99602533  0.55367392  1.0
  C  C151  1  0.36451440  0.49604479  0.44632498  1.0
  N  N152  1  0.07460739  0.35524370  0.82242489  1.0
  N  N153  1  0.42539237  0.85521098  0.17758751  1.0
  N  N154  1  0.57462759  0.14476765  0.67758397  1.0
  N  N155  1  0.92538802  0.64476232  0.32241857  1.0
  N  N156  1  0.92538772  0.64476210  0.17757978  1.0
  N  N157  1  0.57462475  0.14477132  0.82242123  1.0
  N  N158  1  0.42540211  0.85520913  0.32240543  1.0
  N  N159  1  0.07460604  0.35524624  0.67758355  1.0
  N  N160  1  0.00021239  0.43333527  0.81049633  1.0
  N  N161  1  0.49979396  0.93330849  0.18951010  1.0
  N  N162  1  0.50021418  0.06667985  0.68950990  1.0
  N  N163  1  0.99979171  0.56666449  0.31049149  1.0
  N  N164  1  0.99979006  0.56666362  0.18950580  1.0
  N  N165  1  0.50021582  0.06668142  0.81049508  1.0
  N  N166  1  0.49980400  0.93330798  0.31048204  1.0
  N  N167  1  0.00020969  0.43333647  0.68951369  1.0
  O  O168  1  0.36661712  0.29973513  0.75000308  1.0
  O  O169  1  0.13338060  0.79971688  0.24999599  1.0
  O  O170  1  0.86664281  0.20027993  0.75000053  1.0
  O  O171  1  0.63337903  0.70026722  0.25000159  1.0
  O  O172  1  0.52697379  0.60939985  0.14328860  1.0
  O  O173  1  0.97303721  0.10937491  0.85669606  1.0
  O  O174  1  0.02698671  0.89059736  0.35670960  1.0
  O  O175  1  0.47302711  0.39059595  0.64328963  1.0
  O  O176  1  0.47302237  0.39060319  0.85671250  1.0
  O  O177  1  0.02697887  0.89059910  0.14329029  1.0
  O  O178  1  0.97304299  0.10938011  0.64330678  1.0
  O  O179  1  0.52697848  0.60940363  0.35671657  1.0
  O  O180  1  0.32139117  0.67548757  0.17695200  1.0
  O  O181  1  0.17862867  0.17553006  0.82305449  1.0
  O  O182  1  0.82142019  0.82449876  0.32304399  1.0
  O  O183  1  0.67861204  0.32450765  0.67695835  1.0
  O  O184  1  0.67860289  0.32451201  0.82304198  1.0
  O  O185  1  0.82141152  0.82448679  0.17694356  1.0
  O  O186  1  0.17863572  0.17554435  0.67693421  1.0
  O  O187  1  0.32138516  0.67548710  0.32304480  1.0
