# generated using pymatgen
data_Zn2H22C21N2O11
_symmetry_space_group_name_H-M   'P 1'
_cell_length_a   7.32455679
_cell_length_b   8.91303240
_cell_length_c   15.90739648
_cell_angle_alpha   92.65019155
_cell_angle_beta   100.90757265
_cell_angle_gamma   93.23167080
_symmetry_Int_Tables_number   1
_chemical_formula_structural   Zn2H22C21N2O11
_chemical_formula_sum   'Zn2 H22 C21 N2 O11'
_cell_volume   1016.39866221
_cell_formula_units_Z   1
loop_
 _symmetry_equiv_pos_site_id
 _symmetry_equiv_pos_as_xyz
  1  'x, y, z'
loop_
 _atom_site_type_symbol
 _atom_site_label
 _atom_site_symmetry_multiplicity
 _atom_site_fract_x
 _atom_site_fract_y
 _atom_site_fract_z
 _atom_site_occupancy
  Zn  Zn0  1  0.83654607  0.51630876  0.53594498  1.0
  Zn  Zn1  1  0.15544715  0.48569741  0.46301252  1.0
  H  H2  1  0.36077856  0.66100664  0.10225769  1.0
  H  H3  1  0.66708774  0.72936815  0.05881236  1.0
  H  H4  1  0.83622857  0.59373394  0.05826210  1.0
  H  H5  1  0.30248554  0.29836789  0.94404759  1.0
  H  H6  1  0.50362830  0.26052934  0.07505391  1.0
  H  H7  1  0.11616162  0.79588322  0.02643410  1.0
  H  H8  1  0.02627586  0.75398725  0.91450337  1.0
  H  H9  1  0.16607411  0.92562927  0.94991176  1.0
  H  H10  1  0.76495799  0.60786188  0.79663021  1.0
  H  H11  1  0.67283424  0.41543404  0.79129853  1.0
  H  H12  1  0.91918577  0.46015368  0.81795612  1.0
  H  H13  1  0.16461437  0.53212578  0.94396058  1.0
  H  H14  1  0.32641780  0.06634423  0.87418555  1.0
  H  H15  1  0.53311473  0.05256684  0.95407134  1.0
  H  H16  1  0.54373537  0.03456541  0.84265985  1.0
  H  H17  1  0.27165283  0.47086877  0.08510446  1.0
  H  H18  1  0.70578421  0.31566148  0.03379242  1.0
  H  H19  1  0.18887717  0.99741446  0.47499021  1.0
  H  H20  1  0.80091549  0.00454154  0.52400713  1.0
  H  H21  1  0.51389832  0.48741219  0.41398114  1.0
  H  H22  1  0.47753866  0.51071515  0.58465061  1.0
  H  H23  1  0.62956570  0.69887919  0.90965716  1.0
  C  C24  1  0.03402099  0.78891750  0.49754087  1.0
  C  C25  1  0.92989443  0.04758941  0.50631276  1.0
  C  C26  1  0.16116253  0.51142752  0.66684258  1.0
  C  C27  1  0.95577706  0.21303505  0.50134925  1.0
  C  C28  1  0.83334295  0.49273968  0.33193379  1.0
  C  C29  1  0.30715195  0.58205595  0.96831576  1.0
  C  C30  1  0.63756560  0.58994396  0.94001276  1.0
  C  C31  1  0.68818643  0.61344033  0.03813684  1.0
  C  C32  1  0.72959683  0.49598123  0.24555279  1.0
  C  C33  1  0.43939380  0.50483912  0.91563837  1.0
  C  C34  1  0.14602971  0.80607302  0.96136225  1.0
  C  C35  1  0.36685573  0.55540508  0.06469676  1.0
  C  C36  1  0.78278275  0.49773475  0.82505022  1.0
  C  C37  1  0.47855331  0.09321514  0.89021989  1.0
  C  C38  1  0.56770928  0.50337447  0.08122976  1.0
  C  C39  1  0.56306856  0.34359802  0.03714743  1.0
  C  C40  1  0.44807534  0.34095250  0.94495360  1.0
  C  C41  1  0.64869267  0.49997271  0.17158695  1.0
  C  C42  1  0.35417137  0.50689335  0.82571521  1.0
  C  C43  1  0.26604599  0.51102045  0.75308943  1.0
  C  C44  1  0.05939542  0.95426728  0.49214364  1.0
  N  N45  1  0.43975703  0.49034159  0.46476835  1.0
  N  N46  1  0.55185463  0.50899621  0.53390930  1.0
  O  O47  1  0.88671987  0.73514335  0.52015216  1.0
  O  O48  1  0.78366730  0.51009589  0.91513452  1.0
  O  O49  1  0.52193325  0.24983583  0.88551232  1.0
  O  O50  1  0.16413073  0.71295073  0.47806246  1.0
  O  O51  1  0.98727698  0.52945147  0.65807616  1.0
  O  O52  1  0.24869500  0.49252520  0.60523735  1.0
  O  O53  1  0.83642317  0.28979289  0.52992407  1.0
  O  O54  1  0.09252075  0.26571324  0.47017993  1.0
  O  O55  1  0.74297102  0.49301043  0.39326090  1.0
  O  O56  1  0.00974137  0.49016293  0.34073239  1.0
  O  O57  1  0.31345366  0.73862995  0.95195487  1.0
