# generated using pymatgen
data_Zn4H4C24S4O15F4
_symmetry_space_group_name_H-M   'P 1'
_cell_length_a   19.67884207
_cell_length_b   19.71593745
_cell_length_c   33.38520507
_cell_angle_alpha   79.13402250
_cell_angle_beta   79.24196164
_cell_angle_gamma   63.96792443
_symmetry_Int_Tables_number   1
_chemical_formula_structural   Zn4H4C24S4O15F4
_chemical_formula_sum   'Zn16 H16 C96 S16 O60 F16'
_cell_volume   11350.68983126
_cell_formula_units_Z   4
loop_
 _symmetry_equiv_pos_site_id
 _symmetry_equiv_pos_as_xyz
  1  'x, y, z'
loop_
 _atom_site_type_symbol
 _atom_site_label
 _atom_site_symmetry_multiplicity
 _atom_site_fract_x
 _atom_site_fract_y
 _atom_site_fract_z
 _atom_site_occupancy
  Zn  Zn0  1  0.05563987  0.40034981  0.47835396  1.0
  Zn  Zn1  1  0.98418188  0.48301859  0.56056946  1.0
  Zn  Zn2  1  0.05922675  0.56024986  0.48290962  1.0
  Zn  Zn3  1  0.90144220  0.55476227  0.47909594  1.0
  Zn  Zn4  1  0.69396671  0.34941497  0.27189175  1.0
  Zn  Zn5  1  0.68984135  0.18882006  0.26681381  1.0
  Zn  Zn6  1  0.76737123  0.26682106  0.19022257  1.0
  Zn  Zn7  1  0.84765047  0.19481445  0.27179554  1.0
  Zn  Zn8  1  0.26654652  0.76621616  0.68941006  1.0
  Zn  Zn9  1  0.34983053  0.69553055  0.77136813  1.0
  Zn  Zn10  1  0.19412198  0.84833979  0.77126290  1.0
  Zn  Zn11  1  0.19105202  0.68945350  0.76706178  1.0
  Zn  Zn12  1  0.55967552  0.06154579  0.98318601  1.0
  Zn  Zn13  1  0.40086359  0.05500974  0.97778803  1.0
  Zn  Zn14  1  0.55612587  0.90188022  0.97863611  1.0
  Zn  Zn15  1  0.48183999  0.98393105  0.05979568  1.0
  H  H16  1  0.74833262  0.45265473  0.35032123  1.0
  H  H17  1  0.00152542  0.29769700  0.39967085  1.0
  H  H18  1  0.20068672  0.70059076  0.59886876  1.0
  H  H19  1  0.04925364  0.54946674  0.65106357  1.0
  H  H20  1  0.65113281  0.15147521  0.04930807  1.0
  H  H21  1  0.59907410  0.09833271  0.20063282  1.0
  H  H22  1  0.29829631  0.00100999  0.89983709  1.0
  H  H23  1  0.45203964  0.74859663  0.85018325  1.0
  H  H24  1  0.80775269  0.52807434  0.41789751  1.0
  H  H25  1  0.94224598  0.22209213  0.33215740  1.0
  H  H26  1  0.13748584  0.63779348  0.52679019  1.0
  H  H27  1  0.11242660  0.61231082  0.72313587  1.0
  H  H28  1  0.72318329  0.22296881  0.11257446  1.0
  H  H29  1  0.52676034  0.02710742  0.13736481  1.0
  H  H30  1  0.22159248  0.94264300  0.83227165  1.0
  H  H31  1  0.52865736  0.80690468  0.91784701  1.0
  C  C32  1  0.06163611  0.31612893  0.56153875  1.0
  C  C33  1  0.07025191  0.57038118  0.56920728  1.0
  C  C34  1  0.18347006  0.43960965  0.43880027  1.0
  C  C35  1  0.93741150  0.68358804  0.43892781  1.0
  C  C36  1  0.92984770  0.43054963  0.43038762  1.0
  C  C37  1  0.81690577  0.56070537  0.56171747  1.0
  C  C38  1  0.56609172  0.31046689  0.31125254  1.0
  C  C39  1  0.68114054  0.18005507  0.17993705  1.0
  C  C40  1  0.68908547  0.43350008  0.18833195  1.0
  C  C41  1  0.93391881  0.18846476  0.18925362  1.0
  C  C42  1  0.81982458  0.31962329  0.31976565  1.0
  C  C43  1  0.81212269  0.06596060  0.31145622  1.0
  C  C44  1  0.43355277  0.68926319  0.68814345  1.0
  C  C45  1  0.31884427  0.82092728  0.81958858  1.0
  C  C46  1  0.18866312  0.93327629  0.68857967  1.0
  C  C47  1  0.06640342  0.81041658  0.81124363  1.0
  C  C48  1  0.17994199  0.67946007  0.68072535  1.0
  C  C49  1  0.31265967  0.56645676  0.81103556  1.0
  C  C50  1  0.43771330  0.18401637  0.93857656  1.0
  C  C51  1  0.43163252  0.92888642  0.93025887  1.0
  C  C52  1  0.68376304  0.93966243  0.93872653  1.0
  C  C53  1  0.56088458  0.81695601  0.06154962  1.0
  C  C54  1  0.56883896  0.06998288  0.07001329  1.0
  C  C55  1  0.31548036  0.06180695  0.06092033  1.0
  C  C56  1  0.90072896  0.40322361  0.40192793  1.0
  C  C57  1  0.84911947  0.34716838  0.34802705  1.0
  C  C58  1  0.82802482  0.44793526  0.38784516  1.0
  C  C59  1  0.92188002  0.30247058  0.36207795  1.0
  C  C60  1  0.80383047  0.41880881  0.36112457  1.0
  C  C61  1  0.94607832  0.33162947  0.38879398  1.0
  C  C62  1  0.09877251  0.59899393  0.59728382  1.0
  C  C63  1  0.15119175  0.65105405  0.65265594  1.0
  C  C64  1  0.14214770  0.64234753  0.58208797  1.0
  C  C65  1  0.10775789  0.60775439  0.66784718  1.0
  C  C66  1  0.16747750  0.66748589  0.61021270  1.0
  C  C67  1  0.08243720  0.58260085  0.63972641  1.0
  C  C68  1  0.30436342  0.45307255  0.40080001  1.0
  C  C69  1  0.44511634  0.29712582  0.34940178  1.0
  C  C70  1  0.25809433  0.41463058  0.41402835  1.0
  C  C71  1  0.49146657  0.33546472  0.33611538  1.0
  C  C72  1  0.37680618  0.33945256  0.37298747  1.0
  C  C73  1  0.37270710  0.41079225  0.37720655  1.0
  C  C74  1  0.72520715  0.57649117  0.62881089  1.0
  C  C75  1  0.52519851  0.67327573  0.62095485  1.0
  C  C76  1  0.74230117  0.58560343  0.58642867  1.0
  C  C77  1  0.50813797  0.66419687  0.66335019  1.0
  C  C78  1  0.60417559  0.64149912  0.60799896  1.0
  C  C79  1  0.64623769  0.60820559  0.64172359  1.0
  C  C80  1  0.07704052  0.22461148  0.62882172  1.0
  C  C81  1  0.17334416  0.02484823  0.62140741  1.0
  C  C82  1  0.08637058  0.24158984  0.58641527  1.0
  C  C83  1  0.16404779  0.00783068  0.66379382  1.0
  C  C84  1  0.14188031  0.10369584  0.60832456  1.0
  C  C85  1  0.10855435  0.14576136  0.64193360  1.0
  C  C86  1  0.84478058  0.80089272  0.39731101  1.0
  C  C87  1  0.90491114  0.94852453  0.35299383  1.0
  C  C88  1  0.91288005  0.75796966  0.41398057  1.0
  C  C89  1  0.83675519  0.99148022  0.33635498  1.0
  C  C90  1  0.90848027  0.87890452  0.37526046  1.0
  C  C91  1  0.84125661  0.87045341  0.37500700  1.0
  C  C92  1  0.65298267  0.15222819  0.15124495  1.0
  C  C93  1  0.59726524  0.09755175  0.09870143  1.0
  C  C94  1  0.66806487  0.16766151  0.10783796  1.0
  C  C95  1  0.58220982  0.08209539  0.14210714  1.0
  C  C96  1  0.63981839  0.13987038  0.08248001  1.0
  C  C97  1  0.61047796  0.10986563  0.16746232  1.0
  C  C98  1  0.67320369  0.52532963  0.12106543  1.0
  C  C99  1  0.57659778  0.72505934  0.12870985  1.0
  C  C100  1  0.66402140  0.50810547  0.16346077  1.0
  C  C101  1  0.58579819  0.74231972  0.08632659  1.0
  C  C102  1  0.60821281  0.64615764  0.14169778  1.0
  C  C103  1  0.64155295  0.60423730  0.10803309  1.0
  C  C104  1  0.08045593  0.12485641  0.17712246  1.0
  C  C105  1  0.16891823  0.12538370  0.07323578  1.0
  C  C106  1  0.00837413  0.16365569  0.16438405  1.0
  C  C107  1  0.24105203  0.08661291  0.08589148  1.0
  C  C108  1  0.10999698  0.13956110  0.10623189  1.0
  C  C109  1  0.13946266  0.11053995  0.14415109  1.0
  C  C110  1  0.34666429  0.84956065  0.84804021  1.0
  C  C111  1  0.40372355  0.90006045  0.90195251  1.0
  C  C112  1  0.30224019  0.92199273  0.86221927  1.0
  C  C113  1  0.44806727  0.82757002  0.88784479  1.0
  C  C114  1  0.33186087  0.94571883  0.88891480  1.0
  C  C115  1  0.41849959  0.80387887  0.86111008  1.0
  C  C116  1  0.40536379  0.44900478  0.85260236  1.0
  C  C117  1  0.34496331  0.30159339  0.89706253  1.0
  C  C118  1  0.33729046  0.49197066  0.83592502  1.0
  C  C119  1  0.41307316  0.25858554  0.91372641  1.0
  C  C120  1  0.34153457  0.37110797  0.87471311  1.0
  C  C121  1  0.40881250  0.37947730  0.87494054  1.0
  C  C122  1  0.94544358  0.79699763  0.84919484  1.0
  C  C123  1  0.80475033  0.95291919  0.90062650  1.0
  C  C124  1  0.99181155  0.83534815  0.83604934  1.0
  C  C125  1  0.75831887  0.91466386  0.91383173  1.0
  C  C126  1  0.87308036  0.91055863  0.87707290  1.0
  C  C127  1  0.87708796  0.83928661  0.87277816  1.0
  S  S128  1  0.29841880  0.32489226  0.39750311  1.0
  S  S129  1  0.45112946  0.42526809  0.35264959  1.0
  S  S130  1  0.66060191  0.63384186  0.56152721  1.0
  S  S131  1  0.58986138  0.61588474  0.68820403  1.0
  S  S132  1  0.13454984  0.15992616  0.56176365  1.0
  S  S133  1  0.11590828  0.08946975  0.68848007  1.0
  S  S134  1  0.97437118  0.80296777  0.40230254  1.0
  S  S135  1  0.77535764  0.94639227  0.34799433  1.0
  S  S136  1  0.61568493  0.58968648  0.18820187  1.0
  S  S137  1  0.63408242  0.66076653  0.06154078  1.0
  S  S138  1  0.01208883  0.18335039  0.11109507  1.0
  S  S139  1  0.23741591  0.06681395  0.13921236  1.0
  S  S140  1  0.27572972  0.44704058  0.84763373  1.0
  S  S141  1  0.47463285  0.30349607  0.90199957  1.0
  S  S142  1  0.95155399  0.92503248  0.85267476  1.0
  S  S143  1  0.79854794  0.82491473  0.89724758  1.0
  O  O144  1  0.00043950  0.49910182  0.50009479  1.0
  O  O145  1  0.07836357  0.31510426  0.52259011  1.0
  O  O146  1  0.03228063  0.53165433  0.58468037  1.0
  O  O147  1  0.15548591  0.50597969  0.44988256  1.0
  O  O148  1  0.02620871  0.37439625  0.58071919  1.0
  O  O149  1  0.15353618  0.39178845  0.44688616  1.0
  O  O150  1  0.08601660  0.58682072  0.53010753  1.0
  O  O151  1  0.00393708  0.65713778  0.45033675  1.0
  O  O152  1  0.88608356  0.49690434  0.44202494  1.0
  O  O153  1  0.89105114  0.65228835  0.44697534  1.0
  O  O154  1  0.99520427  0.38821149  0.44181953  1.0
  O  O155  1  0.87542422  0.52570959  0.58088169  1.0
  O  O156  1  0.81568975  0.57695402  0.52273148  1.0
  O  O157  1  0.74902989  0.25046241  0.25025883  1.0
  O  O158  1  0.59578783  0.35852823  0.30302995  1.0
  O  O159  1  0.66603280  0.16419213  0.21832713  1.0
  O  O160  1  0.72508878  0.37520863  0.16914852  1.0
  O  O161  1  0.59423100  0.24402512  0.30027092  1.0
  O  O162  1  0.67223311  0.43436650  0.22725857  1.0
  O  O163  1  0.71995113  0.21937772  0.16384153  1.0
  O  O164  1  0.87599889  0.22350608  0.16920503  1.0
  O  O165  1  0.86340273  0.25303765  0.30838860  1.0
  O  O166  1  0.93338400  0.17319752  0.22811783  1.0
  O  O167  1  0.75447563  0.36191629  0.30828751  1.0
  O  O168  1  0.74573460  0.09249829  0.29989524  1.0
  O  O169  1  0.85853365  0.09721532  0.30362108  1.0
  O  O170  1  0.25042327  0.75003768  0.74990086  1.0
  O  O171  1  0.37508436  0.72440362  0.66892605  1.0
  O  O172  1  0.36139103  0.75603737  0.80788224  1.0
  O  O173  1  0.17200166  0.93425622  0.72754881  1.0
  O  O174  1  0.43476299  0.67312285  0.72711620  1.0
  O  O175  1  0.22391122  0.87500990  0.66941311  1.0
  O  O176  1  0.25199592  0.86445645  0.80825130  1.0
  O  O177  1  0.09649021  0.85816312  0.80342251  1.0
  O  O178  1  0.16405474  0.66317231  0.71982574  1.0
  O  O179  1  0.09433467  0.74433583  0.79984116  1.0
  O  O180  1  0.21825467  0.71784587  0.66524016  1.0
  O  O181  1  0.35899712  0.59775000  0.80285702  1.0
  O  O182  1  0.24594623  0.59289471  0.79983360  1.0
  O  O183  1  0.49991880  0.00046195  0.99975396  1.0
  O  O184  1  0.50444707  0.15732026  0.94976784  1.0
  O  O185  1  0.38929865  0.99405851  0.94163416  1.0
  O  O186  1  0.65396264  0.89165356  0.94679504  1.0
  O  O187  1  0.39117539  0.15295999  0.94669740  1.0
  O  O188  1  0.65567165  0.00587662  0.94995124  1.0
  O  O189  1  0.49834439  0.88528894  0.94178008  1.0
  O  O190  1  0.57784228  0.81606946  0.02260961  1.0
  O  O191  1  0.52961632  0.03107103  0.08612156  1.0
  O  O192  1  0.52502929  0.87530526  0.08068382  1.0
  O  O193  1  0.58409035  0.08567805  0.03161993  1.0
  O  O194  1  0.31596454  0.07702397  0.02207274  1.0
  O  O195  1  0.37341733  0.02675532  0.08098077  1.0
  O  O196  1  0.78082591  0.51760721  0.39905360  1.0
  O  O197  1  0.96915166  0.23279431  0.35090585  1.0
  O  O198  1  0.16027527  0.66052466  0.54157292  1.0
  O  O199  1  0.08961606  0.58959715  0.70836011  1.0
  O  O200  1  0.70854334  0.20818192  0.08974772  1.0
  O  O201  1  0.54163051  0.04166767  0.16019281  1.0
  O  O202  1  0.23234698  0.96938998  0.85105861  1.0
  O  O203  1  0.51790738  0.78014019  0.89907643  1.0
  F  F204  1  0.28739806  0.52309423  0.40914092  1.0
  F  F205  1  0.46192676  0.22710286  0.34111280  1.0
  F  F206  1  0.77708447  0.54148926  0.65546772  1.0
  F  F207  1  0.47328168  0.70839563  0.59431792  1.0
  F  F208  1  0.04197700  0.27650290  0.65532483  1.0
  F  F209  1  0.20832750  0.97295865  0.59489803  1.0
  F  F210  1  0.78728363  0.77991932  0.40150407  1.0
  F  F211  1  0.96239087  0.96949078  0.34885283  1.0
  F  F212  1  0.70828836  0.47354818  0.09448219  1.0
  F  F213  1  0.54160473  0.77680345  0.15531091  1.0
  F  F214  1  0.09424452  0.10265112  0.21643114  1.0
  F  F215  1  0.15489305  0.14779266  0.03397185  1.0
  F  F216  1  0.46284300  0.47001175  0.84842944  1.0
  F  F217  1  0.28736368  0.28077528  0.90126239  1.0
  F  F218  1  0.96241537  0.72702288  0.84077715  1.0
  F  F219  1  0.78794037  0.02289796  0.90896015  1.0
