# generated using pymatgen
data_MgH6C11NO4
_symmetry_space_group_name_H-M   'P 1'
_cell_length_a   6.83388975
_cell_length_b   34.27500357
_cell_length_c   34.28142540
_cell_angle_alpha   119.57539123
_cell_angle_beta   93.80175595
_cell_angle_gamma   93.80265366
_symmetry_Int_Tables_number   1
_chemical_formula_structural   MgH6C11NO4
_chemical_formula_sum   'Mg6 H36 C66 N6 O24'
_cell_volume   6922.66361290
_cell_formula_units_Z   6
loop_
 _symmetry_equiv_pos_site_id
 _symmetry_equiv_pos_as_xyz
  1  'x, y, z'
loop_
 _atom_site_type_symbol
 _atom_site_label
 _atom_site_symmetry_multiplicity
 _atom_site_fract_x
 _atom_site_fract_y
 _atom_site_fract_z
 _atom_site_occupancy
  Mg  Mg0  1  0.19860418  0.67181422  0.30519732  1.0
  Mg  Mg1  1  0.57498160  0.33130214  0.69634662  1.0
  Mg  Mg2  1  0.52676642  0.63336395  0.32820158  1.0
  Mg  Mg3  1  0.24358326  0.36510850  0.66872111  1.0
  Mg  Mg4  1  0.89323916  0.69484523  0.36664648  1.0
  Mg  Mg5  1  0.87868774  0.30363229  0.63488278  1.0
  H  H6  1  0.33516274  0.98213403  0.54695965  1.0
  H  H7  1  0.07596668  0.91714933  0.52513775  1.0
  H  H8  1  0.64325543  0.98952498  0.49836526  1.0
  H  H9  1  0.89108280  0.05191092  0.51916212  1.0
  H  H10  1  0.50762382  0.92473016  0.46025004  1.0
  H  H11  1  0.14822990  0.88315679  0.43627905  1.0
  H  H12  1  0.96134692  0.80791481  0.38524536  1.0
  H  H13  1  0.67351742  0.81889524  0.43198303  1.0
  H  H14  1  0.08923026  0.10273410  0.56537616  1.0
  H  H15  1  0.63566361  0.11954001  0.58748096  1.0
  H  H16  1  0.81990364  0.19689136  0.62686702  1.0
  H  H17  1  0.09873134  0.17737045  0.58421697  1.0
  H  H18  1  0.35348940  0.56483549  0.01798287  1.0
  H  H19  1  0.15900118  0.60802603  0.08292178  1.0
  H  H20  1  0.65390144  0.50891699  0.01049282  1.0
  H  H21  1  0.83963962  0.46729920  0.94817061  1.0
  H  H22  1  0.58300780  0.53557363  0.07528411  1.0
  H  H23  1  0.26536861  0.55328810  0.11695164  1.0
  H  H24  1  0.15385581  0.57749014  0.19220135  1.0
  H  H25  1  0.85511108  0.61300724  0.18109011  1.0
  H  H26  1  0.98627804  0.46271267  0.89741211  1.0
  H  H27  1  0.51551785  0.46787574  0.88043696  1.0
  H  H28  1  0.62228694  0.42996480  0.80307469  1.0
  H  H29  1  0.92065217  0.40689362  0.82264898  1.0
  H  H30  1  0.78831065  0.45300570  0.43514980  1.0
  H  H31  1  0.55104923  0.47488908  0.39203378  1.0
  H  H32  1  0.14458091  0.50145213  0.49104957  1.0
  H  H33  1  0.37168800  0.48067581  0.53261826  1.0
  H  H34  1  0.04710862  0.53970028  0.46441467  1.0
  H  H35  1  0.71177717  0.56367695  0.44677995  1.0
  H  H36  1  0.57581112  0.61466529  0.42254089  1.0
  H  H37  1  0.24152431  0.56802682  0.38690980  1.0
  H  H38  1  0.52339164  0.43456226  0.53726534  1.0
  H  H39  1  0.04783241  0.41252879  0.53208371  1.0
  H  H40  1  0.19253304  0.37314597  0.57004773  1.0
  H  H41  1  0.51402360  0.41578792  0.59312135  1.0
  C  C42  1  0.29594061  0.05874208  0.54828429  1.0
  C  C43  1  0.13311327  0.02144263  0.53460440  1.0
  C  C44  1  0.18303134  0.98295754  0.53587486  1.0
  C  C45  1  0.04017774  0.94697615  0.52375123  1.0
  C  C46  1  0.84484155  0.94783130  0.50879620  1.0
  C  C47  1  0.79438904  0.98625330  0.50770027  1.0
  C  C48  1  0.93683012  0.02282004  0.52085670  1.0
  C  C49  1  0.70706139  0.90571463  0.49379714  1.0
  C  C50  1  0.42602608  0.85660535  0.43797348  1.0
  C  C51  1  0.22378275  0.85285428  0.42428384  1.0
  C  C52  1  0.11830410  0.81071858  0.39565117  1.0
  C  C53  1  0.20775719  0.77030764  0.37936947  1.0
  C  C54  1  0.41410247  0.77469647  0.39328090  1.0
  C  C55  1  0.51767404  0.81740921  0.42208421  1.0
  C  C56  1  0.53115823  0.73626607  0.37911137  1.0
  C  C57  1  0.35329468  0.14295290  0.58372785  1.0
  C  C58  1  0.55947953  0.14896554  0.59532408  1.0
  C  C59  1  0.66107401  0.19204014  0.61724180  1.0
  C  C60  1  0.56612250  0.23110663  0.62918006  1.0
  C  C61  1  0.35808502  0.22465382  0.61607783  1.0
  C  C62  1  0.25740284  0.18082335  0.59357762  1.0
  C  C63  1  0.24040424  0.26220947  0.62523410  1.0
  C  C64  1  0.23728943  0.48951218  0.94127446  1.0
  C  C65  1  0.11211201  0.51317450  0.97864175  1.0
  C  C66  1  0.20050961  0.55292016  0.01713375  1.0
  C  C67  1  0.09350780  0.57680263  0.05309283  1.0
  C  C68  1  0.89719816  0.56103598  0.05220437  1.0
  C  C69  1  0.80834066  0.52152323  0.01379524  1.0
  C  C70  1  0.91438224  0.49809176  0.97725889  1.0
  C  C71  1  0.80145394  0.58814747  0.09431550  1.0
  C  C72  1  0.56982980  0.58137049  0.14343849  1.0
  C  C73  1  0.37131745  0.57151866  0.14722946  1.0
  C  C74  1  0.30807891  0.58500835  0.18936626  1.0
  C  C75  1  0.43801087  0.60907127  0.22974159  1.0
  C  C76  1  0.63997921  0.61853383  0.22532659  1.0
  C  C77  1  0.70078988  0.60460127  0.18260070  1.0
  C  C78  1  0.79529727  0.64283581  0.26376788  1.0
  C  C79  1  0.20967575  0.44079225  0.85704125  1.0
  C  C80  1  0.40983846  0.44636030  0.85101330  1.0
  C  C81  1  0.46826917  0.42523262  0.80793511  1.0
  C  C82  1  0.33428803  0.39813293  0.76887863  1.0
  C  C83  1  0.13268439  0.39150205  0.77534158  1.0
  C  C84  1  0.07582425  0.41281745  0.81918237  1.0
  C  C85  1  0.97767394  0.36305486  0.73778090  1.0
  C  C86  1  0.74738891  0.45163248  0.51041081  1.0
  C  C87  1  0.59841741  0.46527894  0.48675455  1.0
  C  C88  1  0.64716523  0.46405180  0.44703847  1.0
  C  C89  1  0.51649631  0.47620274  0.42320182  1.0
  C  C90  1  0.33593373  0.49111503  0.43898230  1.0
  C  C91  1  0.28645242  0.49214999  0.47845699  1.0
  C  C92  1  0.41578934  0.47899226  0.50184721  1.0
  C  C93  1  0.21345810  0.50621312  0.41191728  1.0
  C  C94  1  0.98804723  0.56203679  0.41860669  1.0
  C  C95  1  0.79933524  0.57567393  0.42848249  1.0
  C  C96  1  0.72247396  0.60430088  0.41498475  1.0
  C  C97  1  0.82830774  0.62061613  0.39090640  1.0
  C  C98  1  0.02078124  0.60671993  0.38139039  1.0
  C  C99  1  0.09557748  0.57793532  0.39532128  1.0
  C  C100  1  0.15201953  0.62091089  0.35714619  1.0
  C  C101  1  0.76905570  0.41624293  0.55918921  1.0
  C  C102  1  0.96369194  0.40466947  0.55363369  1.0
  C  C103  1  0.04326847  0.38275037  0.57479005  1.0
  C  C104  1  0.93644857  0.37080968  0.60190537  1.0
  C  C105  1  0.74150346  0.38392488  0.60855428  1.0
  C  C106  1  0.66330738  0.40640408  0.58720731  1.0
  C  C107  1  0.61475047  0.37478698  0.63696302  1.0
  N  N108  1  0.53882449  0.89920676  0.46576071  1.0
  N  N109  1  0.23667745  0.10100253  0.56448545  1.0
  N  N110  1  0.63983457  0.56659083  0.10082493  1.0
  N  N111  1  0.13543551  0.46349982  0.89905105  1.0
  N  N112  1  0.07311156  0.53424491  0.43341898  1.0
  N  N113  1  0.67175731  0.43546102  0.53646251  1.0
  O  O114  1  0.71087657  0.74221262  0.39500884  1.0
  O  O115  1  0.44784468  0.69634091  0.34958453  1.0
  O  O116  1  0.09863868  0.73044615  0.35225948  1.0
  O  O117  1  0.05966154  0.25475649  0.60930432  1.0
  O  O118  1  0.32501539  0.30306160  0.65054159  1.0
  O  O119  1  0.67299309  0.27187183  0.65223014  1.0
  O  O120  1  0.47151844  0.05157430  0.54589529  1.0
  O  O121  1  0.75160179  0.87759011  0.50443319  1.0
  O  O122  1  0.96907676  0.65279756  0.25782655  1.0
  O  O123  1  0.75169891  0.65324049  0.30367348  1.0
  O  O124  1  0.36867439  0.62185018  0.26959839  1.0
  O  O125  1  0.80438332  0.35454210  0.74521392  1.0
  O  O126  1  0.02171839  0.34749331  0.69694608  1.0
  O  O127  1  0.40061877  0.38043786  0.72813488  1.0
  O  O128  1  0.42007144  0.49424163  0.94836472  1.0
  O  O129  1  0.87408976  0.62691299  0.12245564  1.0
  O  O130  1  0.31591145  0.60502170  0.34720184  1.0
  O  O131  1  0.09818981  0.65045595  0.34678377  1.0
  O  O132  1  0.74634121  0.64774736  0.37818363  1.0
  O  O133  1  0.44987572  0.39070426  0.64543824  1.0
  O  O134  1  0.67433266  0.34950735  0.65251673  1.0
  O  O135  1  0.02045726  0.34775320  0.61959070  1.0
  O  O136  1  0.92545443  0.45405253  0.50570019  1.0
  O  O137  1  0.24776011  0.49564351  0.37319583  1.0
