# generated using pymatgen
data_Zn4H12C48Br12O13
_symmetry_space_group_name_H-M   'P 1'
_cell_length_a   28.34350074
_cell_length_b   28.34424900
_cell_length_c   28.34351426
_cell_angle_alpha   120.00746204
_cell_angle_beta   120.00464089
_cell_angle_gamma   59.99664205
_symmetry_Int_Tables_number   1
_chemical_formula_structural   Zn4H12C48Br12O13
_chemical_formula_sum   'Zn8 H24 C96 Br24 O26'
_cell_volume   16099.27769845
_cell_formula_units_Z   2
loop_
 _symmetry_equiv_pos_site_id
 _symmetry_equiv_pos_as_xyz
  1  'x, y, z'
loop_
 _atom_site_type_symbol
 _atom_site_label
 _atom_site_symmetry_multiplicity
 _atom_site_fract_x
 _atom_site_fract_y
 _atom_site_fract_z
 _atom_site_occupancy
  Zn  Zn0  1  0.02829610  0.02832895  0.47170431  1.0
  Zn  Zn1  1  0.91504789  0.02836561  0.47164644  1.0
  Zn  Zn2  1  0.02823506  0.02834105  0.58486972  1.0
  Zn  Zn3  1  0.02826448  0.91515330  0.47170428  1.0
  Zn  Zn4  1  0.47177274  0.47166305  0.02839272  1.0
  Zn  Zn5  1  0.47168192  0.47169173  0.91515812  1.0
  Zn  Zn6  1  0.58490392  0.47169226  0.02836006  1.0
  Zn  Zn7  1  0.47170696  0.58488988  0.02837757  1.0
  H  H8  1  0.30489768  0.77103378  0.19516579  1.0
  H  H9  1  0.30485079  0.61909259  0.19514436  1.0
  H  H10  1  0.19515182  0.88080546  0.30490762  1.0
  H  H11  1  0.19514494  0.72887966  0.30495547  1.0
  H  H12  1  0.61911550  0.30491879  0.72896243  1.0
  H  H13  1  0.77111982  0.30494676  0.88090003  1.0
  H  H14  1  0.72883907  0.19519691  0.61914965  1.0
  H  H15  1  0.88084236  0.19517087  0.77108762  1.0
  H  H16  1  0.30498783  0.30475205  0.72904419  1.0
  H  H17  1  0.30502588  0.30474372  0.88101778  1.0
  H  H18  1  0.19530049  0.19499722  0.61927654  1.0
  H  H19  1  0.19521986  0.19497526  0.77118261  1.0
  H  H20  1  0.61914248  0.77107458  0.19504839  1.0
  H  H21  1  0.77113538  0.61913322  0.19509023  1.0
  H  H22  1  0.72888929  0.88083663  0.30492455  1.0
  H  H23  1  0.88089497  0.72890330  0.30492801  1.0
  H  H24  1  0.77123691  0.30485472  0.19508691  1.0
  H  H25  1  0.61934044  0.30481215  0.19516801  1.0
  H  H26  1  0.88102882  0.19512254  0.30490241  1.0
  H  H27  1  0.72900283  0.19516041  0.30480001  1.0
  H  H28  1  0.30502957  0.61917938  0.72895934  1.0
  H  H29  1  0.30501366  0.77114430  0.88094349  1.0
  H  H30  1  0.19512573  0.72897198  0.61918081  1.0
  H  H31  1  0.19513532  0.88095655  0.77114319  1.0
  C  C32  1  0.90964214  0.09044678  0.40956863  1.0
  C  C33  1  0.90950993  0.09047712  0.59035636  1.0
  C  C34  1  0.09040313  0.09042386  0.59043544  1.0
  C  C35  1  0.09037395  0.90965737  0.59043822  1.0
  C  C36  1  0.09038238  0.90959818  0.40957881  1.0
  C  C37  1  0.90955830  0.90962935  0.40954173  1.0
  C  C38  1  0.40967187  0.40951409  0.90973806  1.0
  C  C39  1  0.59045070  0.40954757  0.90968440  1.0
  C  C40  1  0.59049299  0.40954960  0.09044943  1.0
  C  C41  1  0.59045334  0.59036482  0.09052283  1.0
  C  C42  1  0.40967858  0.59032550  0.09053222  1.0
  C  C43  1  0.40960223  0.59044299  0.90966688  1.0
  C  C44  1  0.37209259  0.62787457  0.12804871  1.0
  C  C45  1  0.35304598  0.68941821  0.14706358  1.0
  C  C46  1  0.31832124  0.72425191  0.18175658  1.0
  C  C47  1  0.30046817  0.69948217  0.19958899  1.0
  C  C48  1  0.31829887  0.63902553  0.18174268  1.0
  C  C49  1  0.35302321  0.60441696  0.14705177  1.0
  C  C50  1  0.26522119  0.73473656  0.23483092  1.0
  C  C51  1  0.23480140  0.76516117  0.26526495  1.0
  C  C52  1  0.19956215  0.80041912  0.30050545  1.0
  C  C53  1  0.18172020  0.86087723  0.31832998  1.0
  C  C54  1  0.14699912  0.89548607  0.35302415  1.0
  C  C55  1  0.12794587  0.87202987  0.37205387  1.0
  C  C56  1  0.14699969  0.81049394  0.35305191  1.0
  C  C57  1  0.18171791  0.77566147  0.31835415  1.0
  C  C58  1  0.62799141  0.37202754  0.87213110  1.0
  C  C59  1  0.60450146  0.35300768  0.81058741  1.0
  C  C60  1  0.63908013  0.31832530  0.77574588  1.0
  C  C61  1  0.69954407  0.30049839  0.80050461  1.0
  C  C62  1  0.72433591  0.31834211  0.86096324  1.0
  C  C63  1  0.68953503  0.35302332  0.89558009  1.0
  C  C64  1  0.73476945  0.26527370  0.76524848  1.0
  C  C65  1  0.76518762  0.23484260  0.73480896  1.0
  C  C66  1  0.80041618  0.19960557  0.69954048  1.0
  C  C67  1  0.77562362  0.18177022  0.63907754  1.0
  C  C68  1  0.81043052  0.14706993  0.60446707  1.0
  C  C69  1  0.87197327  0.12802965  0.62791912  1.0
  C  C70  1  0.89546206  0.14705586  0.68946196  1.0
  C  C71  1  0.86088074  0.18175852  0.72430083  1.0
  C  C72  1  0.37215025  0.37193516  0.87219581  1.0
  C  C73  1  0.35311565  0.35289776  0.81064866  1.0
  C  C74  1  0.31840990  0.31818320  0.77583047  1.0
  C  C75  1  0.30058179  0.30033871  0.80060972  1.0
  C  C76  1  0.31843274  0.31816968  0.86106625  1.0
  C  C77  1  0.35313681  0.35288553  0.89566718  1.0
  C  C78  1  0.26534796  0.26508493  0.76536959  1.0
  C  C79  1  0.23491965  0.23464527  0.73492347  1.0
  C  C80  1  0.19965827  0.19942256  0.69964804  1.0
  C  C81  1  0.18183671  0.18159360  0.63919303  1.0
  C  C82  1  0.14709867  0.14691348  0.60456695  1.0
  C  C83  1  0.12800994  0.12790880  0.62801242  1.0
  C  C84  1  0.14705784  0.14690678  0.68954959  1.0
  C  C85  1  0.18179668  0.18158438  0.72439768  1.0
  C  C86  1  0.62800122  0.62791748  0.12799890  1.0
  C  C87  1  0.60451788  0.68945509  0.14697869  1.0
  C  C88  1  0.63909841  0.72429166  0.18166143  1.0
  C  C89  1  0.69956022  0.69952479  0.19952049  1.0
  C  C90  1  0.72435032  0.63906522  0.18168705  1.0
  C  C91  1  0.68954353  0.60445701  0.14700316  1.0
  C  C92  1  0.73480229  0.73477633  0.23477485  1.0
  C  C93  1  0.76524041  0.76519066  0.26523008  1.0
  C  C94  1  0.80047212  0.80045115  0.30048890  1.0
  C  C95  1  0.77567524  0.86091079  0.31833639  1.0
  C  C96  1  0.81048007  0.89551991  0.35303067  1.0
  C  C97  1  0.87201874  0.87206978  0.37203728  1.0
  C  C98  1  0.89551653  0.81052619  0.35303454  1.0
  C  C99  1  0.86093592  0.77568863  0.31833585  1.0
  C  C100  1  0.62807199  0.37200060  0.12797951  1.0
  C  C101  1  0.68960568  0.35297736  0.14698227  1.0
  C  C102  1  0.72444859  0.31827425  0.18168515  1.0
  C  C103  1  0.69969501  0.30043220  0.19953854  1.0
  C  C104  1  0.63924776  0.31825062  0.18173072  1.0
  C  C105  1  0.60462075  0.35295905  0.14702465  1.0
  C  C106  1  0.73497172  0.26520403  0.23477714  1.0
  C  C107  1  0.76540600  0.23477980  0.26520690  1.0
  C  C108  1  0.80060605  0.19955031  0.30044469  1.0
  C  C109  1  0.86106041  0.18171093  0.31830719  1.0
  C  C110  1  0.89563165  0.14700852  0.35301428  1.0
  C  C111  1  0.87212793  0.12798956  0.37201936  1.0
  C  C112  1  0.81057888  0.14702310  0.35295884  1.0
  C  C113  1  0.77578848  0.18173333  0.31825309  1.0
  C  C114  1  0.37212080  0.62799603  0.87211440  1.0
  C  C115  1  0.35312253  0.60453451  0.81056818  1.0
  C  C116  1  0.31842162  0.63913442  0.77574763  1.0
  C  C117  1  0.30055650  0.69959990  0.80051849  1.0
  C  C118  1  0.31841230  0.72436299  0.86098158  1.0
  C  C119  1  0.35310638  0.68953914  0.89557372  1.0
  C  C120  1  0.26529833  0.73485469  0.76527657  1.0
  C  C121  1  0.23483885  0.76529107  0.73484947  1.0
  C  C122  1  0.19956817  0.80053226  0.69959645  1.0
  C  C123  1  0.18170824  0.77575555  0.63913200  1.0
  C  C124  1  0.14697743  0.81057309  0.60453206  1.0
  C  C125  1  0.12793704  0.87211864  0.62800250  1.0
  C  C126  1  0.14698510  0.89558777  0.68954165  1.0
  C  C127  1  0.18171346  0.86099216  0.72436003  1.0
  Br  Br128  1  0.37107533  0.73372846  0.12900422  1.0
  Br  Br129  1  0.37102318  0.52402966  0.12897418  1.0
  Br  Br130  1  0.12895572  0.97589174  0.37104526  1.0
  Br  Br131  1  0.12897087  0.76620010  0.37112168  1.0
  Br  Br132  1  0.52408509  0.37104143  0.76627810  1.0
  Br  Br133  1  0.73386462  0.37108032  0.97596820  1.0
  Br  Br134  1  0.76609889  0.12903756  0.52407763  1.0
  Br  Br135  1  0.97586910  0.12901662  0.73377676  1.0
  Br  Br136  1  0.37116461  0.37090560  0.76632206  1.0
  Br  Br137  1  0.37122075  0.37088790  0.97605967  1.0
  Br  Br138  1  0.12913397  0.12884127  0.52417797  1.0
  Br  Br139  1  0.12900433  0.12883822  0.73382894  1.0
  Br  Br140  1  0.52410729  0.73376974  0.12887768  1.0
  Br  Br141  1  0.73386566  0.52407359  0.12894229  1.0
  Br  Br142  1  0.76614495  0.97590750  0.37110218  1.0
  Br  Br143  1  0.97592217  0.76622177  0.37108791  1.0
  Br  Br144  1  0.73387971  0.37102094  0.12890483  1.0
  Br  Br145  1  0.52423212  0.37098276  0.12901016  1.0
  Br  Br146  1  0.97604134  0.12895883  0.37110558  1.0
  Br  Br147  1  0.76622676  0.12899162  0.37095008  1.0
  Br  Br148  1  0.37123817  0.52414086  0.76623827  1.0
  Br  Br149  1  0.37118595  0.73385616  0.97597525  1.0
  Br  Br150  1  0.12891540  0.76623359  0.52412053  1.0
  Br  Br151  1  0.12893456  0.97598017  0.73384388  1.0
  O  O152  1  0.99995880  0.00004153  0.49997554  1.0
  O  O153  1  0.96409722  0.07580530  0.42419114  1.0
  O  O154  1  0.88429830  0.07588143  0.53589947  1.0
  O  O155  1  0.07572964  0.07582786  0.61561803  1.0
  O  O156  1  0.88440835  0.07585866  0.42419081  1.0
  O  O157  1  0.07577184  0.07582736  0.53598296  1.0
  O  O158  1  0.96396238  0.07584504  0.61556780  1.0
  O  O159  1  0.07572385  0.96411528  0.61563978  1.0
  O  O160  1  0.07571483  0.88440965  0.42417447  1.0
  O  O161  1  0.07576464  0.88444440  0.53597843  1.0
  O  O162  1  0.07577913  0.96404996  0.42421459  1.0
  O  O163  1  0.88434940  0.96408349  0.42407614  1.0
  O  O164  1  0.96401291  0.88442783  0.42420158  1.0
  O  O165  1  0.50000210  0.49999209  0.00005311  1.0
  O  O166  1  0.42431323  0.42412275  0.96419321  1.0
  O  O167  1  0.53599020  0.42417616  0.88449214  1.0
  O  O168  1  0.61568550  0.42419760  0.07584201  1.0
  O  O169  1  0.42426845  0.42415418  0.88452621  1.0
  O  O170  1  0.53604420  0.42415188  0.07583491  1.0
  O  O171  1  0.61567268  0.42412843  0.96413864  1.0
  O  O172  1  0.61567184  0.53591377  0.07592464  1.0
  O  O173  1  0.42427690  0.61553492  0.07589309  1.0
  O  O174  1  0.53599777  0.61556909  0.07596750  1.0
  O  O175  1  0.42437141  0.53587448  0.07598601  1.0
  O  O176  1  0.42416769  0.53598318  0.88446071  1.0
  O  O177  1  0.42421891  0.61564673  0.96412870  1.0
