# generated using pymatgen
data_NiH8C10NO5
_symmetry_space_group_name_H-M   'P 1'
_cell_length_a   5.79853593
_cell_length_b   8.06547743
_cell_length_c   27.61310161
_cell_angle_alpha   90.00248844
_cell_angle_beta   89.99898152
_cell_angle_gamma   89.99839853
_symmetry_Int_Tables_number   1
_chemical_formula_structural   NiH8C10NO5
_chemical_formula_sum   'Ni4 H32 C40 N4 O20'
_cell_volume   1291.40844816
_cell_formula_units_Z   4
loop_
 _symmetry_equiv_pos_site_id
 _symmetry_equiv_pos_as_xyz
  1  'x, y, z'
loop_
 _atom_site_type_symbol
 _atom_site_label
 _atom_site_symmetry_multiplicity
 _atom_site_fract_x
 _atom_site_fract_y
 _atom_site_fract_z
 _atom_site_occupancy
  Ni  Ni0  1  0.52107097  0.25374178  0.71770346  1.0
  Ni  Ni1  1  0.47889859  0.25356503  0.28229016  1.0
  Ni  Ni2  1  0.97894869  0.74626372  0.21770229  1.0
  Ni  Ni3  1  0.02107347  0.74643671  0.78229361  1.0
  H  H4  1  0.63426960  0.44379731  0.54472570  1.0
  H  H5  1  0.36571744  0.44374613  0.45526876  1.0
  H  H6  1  0.86572787  0.55618271  0.04471890  1.0
  H  H7  1  0.13426819  0.55624265  0.95526781  1.0
  H  H8  1  0.43472345  0.37096493  0.84087485  1.0
  H  H9  1  0.56524507  0.37073470  0.15911861  1.0
  H  H10  1  0.06528820  0.62907741  0.34086924  1.0
  H  H11  1  0.93476431  0.62922524  0.65912354  1.0
  H  H12  1  0.17905344  0.14335793  0.60645330  1.0
  H  H13  1  0.82097105  0.14324527  0.39356327  1.0
  H  H14  1  0.32096027  0.85663356  0.10645429  1.0
  H  H15  1  0.67900177  0.85678412  0.89356645  1.0
  H  H16  1  0.42997006  0.42049944  0.62481683  1.0
  H  H17  1  0.57007410  0.42039457  0.37518491  1.0
  H  H18  1  0.07004435  0.57948166  0.12480703  1.0
  H  H19  1  0.92989803  0.57960305  0.87518219  1.0
  H  H20  1  0.94838067  0.13027213  0.68217790  1.0
  H  H21  1  0.05164297  0.13011812  0.31784013  1.0
  H  H22  1  0.55165928  0.86969748  0.18217787  1.0
  H  H23  1  0.44827774  0.86991208  0.81784901  1.0
  H  H24  1  0.23739280  0.28388030  0.52487223  1.0
  H  H25  1  0.76262182  0.28384451  0.47513801  1.0
  H  H26  1  0.26258004  0.71610185  0.02487586  1.0
  H  H27  1  0.73736083  0.71616943  0.97513601  1.0
  H  H28  1  0.64502627  0.12954375  0.86104252  1.0
  H  H29  1  0.35497318  0.12929668  0.13895487  1.0
  H  H30  1  0.85502878  0.87054616  0.36102678  1.0
  H  H31  1  0.14506006  0.87065040  0.63895737  1.0
  H  H32  1  0.87291432  0.26296299  0.84322598  1.0
  H  H33  1  0.12710584  0.26270727  0.15676436  1.0
  H  H34  1  0.62711727  0.73710153  0.34322544  1.0
  H  H35  1  0.37294741  0.73724165  0.65677263  1.0
  C  C36  1  0.92238539  0.28963575  0.56773006  1.0
  C  C37  1  0.07760719  0.28957753  0.43227293  1.0
  C  C38  1  0.57761680  0.71034774  0.06772531  1.0
  C  C39  1  0.42236681  0.71042267  0.93227425  1.0
  C  C40  1  0.70821823  0.36947123  0.57382933  1.0
  C  C41  1  0.29178814  0.36942881  0.42616051  1.0
  C  C42  1  0.79179742  0.63050300  0.07382749  1.0
  C  C43  1  0.20820344  0.63056700  0.92616456  1.0
  C  C44  1  0.53581200  0.32066554  0.81022993  1.0
  C  C45  1  0.46419293  0.32044736  0.18975962  1.0
  C  C46  1  0.96420554  0.67936264  0.31022891  1.0
  C  C47  1  0.03580022  0.67950938  0.68976707  1.0
  C  C48  1  0.01159723  0.20455101  0.60776945  1.0
  C  C49  1  0.98845019  0.20440577  0.39225030  1.0
  C  C50  1  0.48840532  0.79544089  0.10777022  1.0
  C  C51  1  0.51150964  0.79563066  0.89226001  1.0
  C  C52  1  0.59411339  0.35921013  0.61786310  1.0
  C  C53  1  0.40589749  0.35913564  0.38213038  1.0
  C  C54  1  0.90591120  0.64075801  0.11785808  1.0
  C  C55  1  0.09406273  0.64086254  0.88212962  1.0
  C  C56  1  0.88618036  0.19694502  0.65057558  1.0
  C  C57  1  0.11385450  0.19679381  0.34944093  1.0
  C  C58  1  0.61383432  0.80303333  0.15057433  1.0
  C  C59  1  0.38607768  0.80324253  0.84944793  1.0
  C  C60  1  0.79809462  0.07175277  0.79245562  1.0
  C  C61  1  0.20191144  0.07154955  0.20754148  1.0
  C  C62  1  0.70192013  0.92827358  0.29245270  1.0
  C  C63  1  0.29810347  0.92842266  0.70754223  1.0
  C  C64  1  0.04951204  0.29282736  0.52211188  1.0
  C  C65  1  0.95049109  0.29279967  0.47788965  1.0
  C  C66  1  0.45048149  0.70717128  0.02210875  1.0
  C  C67  1  0.54949847  0.70719901  0.97789009  1.0
  C  C68  1  0.71756840  0.19767358  0.83020783  1.0
  C  C69  1  0.28248030  0.19747620  0.16978839  1.0
  C  C70  1  0.78247470  0.80236455  0.33020197  1.0
  C  C71  1  0.21758041  0.80249787  0.66979422  1.0
  C  C72  1  0.66124914  0.46395170  0.78525091  1.0
  C  C73  1  0.33871161  0.46376296  0.21475041  1.0
  C  C74  1  0.83874593  0.53607116  0.28524396  1.0
  C  C75  1  0.16127986  0.53622886  0.71475581  1.0
  N  N76  1  0.68130545  0.27271078  0.65544944  1.0
  N  N77  1  0.31872225  0.27259130  0.34455393  1.0
  N  N78  1  0.81870622  0.72727281  0.15544584  1.0
  N  N79  1  0.18124055  0.72741995  0.84455877  1.0
  O  O80  1  0.38447621  0.24431222  0.77775114  1.0
  O  O81  1  0.61549791  0.24413519  0.22224358  1.0
  O  O82  1  0.11555039  0.75569057  0.27774709  1.0
  O  O83  1  0.88449480  0.75587172  0.72224336  1.0
  O  O84  1  0.78759120  0.10087653  0.74786941  1.0
  O  O85  1  0.21238225  0.10070256  0.25213055  1.0
  O  O86  1  0.71241668  0.89912103  0.24786059  1.0
  O  O87  1  0.28759986  0.89928108  0.75213113  1.0
  O  O88  1  0.74982992  0.58032346  0.80919832  1.0
  O  O89  1  0.25010559  0.58010774  0.19079706  1.0
  O  O90  1  0.75012444  0.41972176  0.30919737  1.0
  O  O91  1  0.24990416  0.41987041  0.69080835  1.0
  O  O92  1  0.67523720  0.44823626  0.73891436  1.0
  O  O93  1  0.32473115  0.44802954  0.26107901  1.0
  O  O94  1  0.82477450  0.55177338  0.23891363  1.0
  O  O95  1  0.17523334  0.55196806  0.76108794  1.0
  O  O96  1  0.87686588  0.93789256  0.81175068  1.0
  O  O97  1  0.12312902  0.93771143  0.18823592  1.0
  O  O98  1  0.62313864  0.06213486  0.31174548  1.0
  O  O99  1  0.37687887  0.06224484  0.68824330  1.0
