# generated using pymatgen
data_Zn4H21C36S3N3O16
_symmetry_space_group_name_H-M   'P 1'
_cell_length_a   16.00179792
_cell_length_b   16.80810206
_cell_length_c   17.06578835
_cell_angle_alpha   64.21716012
_cell_angle_beta   63.44260233
_cell_angle_gamma   63.37465627
_symmetry_Int_Tables_number   1
_chemical_formula_structural   Zn4H21C36S3N3O16
_chemical_formula_sum   'Zn8 H42 C72 S6 N6 O32'
_cell_volume   3508.81407637
_cell_formula_units_Z   2
loop_
 _symmetry_equiv_pos_site_id
 _symmetry_equiv_pos_as_xyz
  1  'x, y, z'
loop_
 _atom_site_type_symbol
 _atom_site_label
 _atom_site_symmetry_multiplicity
 _atom_site_fract_x
 _atom_site_fract_y
 _atom_site_fract_z
 _atom_site_occupancy
  Zn  Zn0  1  0.88726041  0.05090380  0.06244321  1.0
  Zn  Zn1  1  0.09965549  0.00347445  0.07363004  1.0
  Zn  Zn2  1  0.07593028  0.01097810  0.88685545  1.0
  Zn  Zn3  1  0.03827106  0.85086275  0.07410793  1.0
  Zn  Zn4  1  0.67722520  0.46676725  0.47018737  1.0
  Zn  Zn5  1  0.50023321  0.40911241  0.48463151  1.0
  Zn  Zn6  1  0.45503540  0.61907145  0.48960871  1.0
  Zn  Zn7  1  0.50775458  0.43910121  0.64838402  1.0
  H  H8  1  0.95336245  0.10620481  0.45592704  1.0
  H  H9  1  0.02311866  0.29103964  0.48736519  1.0
  H  H10  1  0.95219165  0.45909076  0.37675601  1.0
  H  H11  1  0.87205590  0.43079814  0.28242613  1.0
  H  H12  1  0.69960506  0.18964368  0.23703512  1.0
  H  H13  1  0.63343924  0.20898545  0.34742779  1.0
  H  H14  1  0.64643662  0.30443662  0.24917799  1.0
  H  H15  1  0.58138575  0.40002563  0.92886394  1.0
  H  H16  1  0.49022905  0.67574557  0.82189564  1.0
  H  H17  1  0.60758320  0.71858526  0.64412384  1.0
  H  H18  1  0.74884654  0.55404502  0.61933638  1.0
  H  H19  1  0.87196333  0.11721618  0.74111042  1.0
  H  H20  1  0.80591150  0.19979066  0.66192849  1.0
  H  H21  1  0.92945267  0.18923927  0.63864736  1.0
  H  H22  1  0.47905201  0.95288952  0.17493350  1.0
  H  H23  1  0.38955654  0.82643096  0.09144675  1.0
  H  H24  1  0.49384621  0.64103879  0.13296657  1.0
  H  H25  1  0.63274683  0.62359183  0.19613226  1.0
  H  H26  1  0.84985619  0.74366006  0.31607360  1.0
  H  H27  1  0.78934904  0.65631116  0.37425478  1.0
  H  H28  1  0.89138041  0.64946328  0.27324073  1.0
  H  H29  1  0.23912301  0.26665010  0.01320388  1.0
  H  H30  1  0.95342354  0.37859784  0.13218033  1.0
  H  H31  1  0.85059504  0.35097173  0.05903944  1.0
  H  H32  1  0.98757046  0.27912227  0.91924627  1.0
  H  H33  1  0.35712635  0.09030820  0.72939234  1.0
  H  H34  1  0.27786024  0.17035890  0.66368183  1.0
  H  H35  1  0.39282857  0.18505586  0.63509361  1.0
  H  H36  1  0.09905179  0.55648879  0.43317289  1.0
  H  H37  1  0.21437786  0.28832559  0.43560159  1.0
  H  H38  1  0.41169804  0.25599587  0.34709623  1.0
  H  H39  1  0.44287604  0.42243520  0.28891836  1.0
  H  H40  1  0.22015817  0.80589645  0.38075282  1.0
  H  H41  1  0.34325591  0.78418515  0.30990020  1.0
  H  H42  1  0.24706569  0.86480814  0.26066006  1.0
  H  H43  1  0.01837280  0.68577736  0.95718398  1.0
  H  H44  1  0.02910132  0.51958011  0.20672411  1.0
  H  H45  1  0.21929963  0.45206420  0.20503387  1.0
  H  H46  1  0.32305051  0.53658352  0.03455722  1.0
  H  H47  1  0.17532410  0.87290442  0.68860677  1.0
  H  H48  1  0.28058887  0.87590395  0.69463395  1.0
  H  H49  1  0.29422089  0.81654753  0.62220690  1.0
  C  C50  1  0.98432119  0.14151554  0.47376750  1.0
  C  C51  1  0.96725366  0.23989950  0.42709115  1.0
  C  C52  1  0.98654329  0.30569400  0.44008350  1.0
  C  C53  1  0.94899947  0.39368141  0.38233454  1.0
  C  C54  1  0.90733954  0.38120760  0.33419241  1.0
  C  C55  1  0.88209907  0.25025865  0.32858794  1.0
  C  C56  1  0.87097999  0.16847880  0.24628077  1.0
  C  C57  1  0.90675256  0.11116735  0.18576983  1.0
  C  C58  1  0.77810737  0.22265141  0.28677214  1.0
  C  C59  1  0.68456764  0.23118045  0.27922092  1.0
  C  C60  1  0.78436774  0.26940153  0.33645502  1.0
  C  C61  1  0.70046522  0.32465976  0.39632956  1.0
  C  C62  1  0.54863574  0.47679322  0.91660620  1.0
  C  C63  1  0.59017198  0.53333025  0.82669882  1.0
  C  C64  1  0.55479080  0.62900713  0.78651028  1.0
  C  C65  1  0.61487208  0.65062035  0.69468280  1.0
  C  C66  1  0.68710860  0.56831222  0.67927265  1.0
  C  C67  1  0.73338577  0.40416622  0.76880517  1.0
  C  C68  1  0.84440259  0.24646883  0.81627209  1.0
  C  C69  1  0.89811006  0.16218641  0.87324513  1.0
  C  C70  1  0.82332671  0.25953295  0.73994286  1.0
  C  C71  1  0.85892960  0.18759361  0.69340923  1.0
  C  C72  1  0.75793283  0.35095678  0.71397190  1.0
  C  C73  1  0.70418747  0.38310810  0.64747671  1.0
  C  C74  1  0.44823422  0.93441839  0.14033961  1.0
  C  C75  1  0.48809786  0.83812556  0.13982727  1.0
  C  C76  1  0.45129755  0.79201884  0.11800396  1.0
  C  C77  1  0.50427918  0.69619977  0.14109793  1.0
  C  C78  1  0.57388950  0.68460017  0.17574308  1.0
  C  C79  1  0.63290760  0.78531748  0.19321663  1.0
  C  C80  1  0.76625888  0.83251304  0.17642363  1.0
  C  C81  1  0.83377561  0.88443669  0.14432101  1.0
  C  C82  1  0.75914666  0.75134806  0.24857372  1.0
  C  C83  1  0.82506962  0.69789570  0.30732021  1.0
  C  C84  1  0.67864630  0.72690900  0.26039602  1.0
  C  C85  1  0.63952715  0.65510118  0.34199655  1.0
  C  C86  1  0.16573792  0.30669092  0.05130574  1.0
  C  C87  1  0.08215341  0.32006429  0.02839691  1.0
  C  C88  1  0.98217497  0.35085675  0.07525477  1.0
  C  C89  1  0.92961401  0.33586591  0.03770693  1.0
  C  C90  1  0.99767970  0.29712841  0.96753242  1.0
  C  C91  1  0.17313604  0.27346646  0.88435973  1.0
  C  C92  1  0.30602159  0.30031792  0.73931841  1.0
  C  C93  1  0.38435544  0.33995968  0.67054677  1.0
  C  C94  1  0.28203221  0.22379804  0.75437560  1.0
  C  C95  1  0.33107897  0.16415088  0.69185472  1.0
  C  C96  1  0.20714569  0.20658297  0.84063035  1.0
  C  C97  1  0.17533187  0.12194249  0.88674633  1.0
  C  C98  1  0.11117963  0.48345767  0.43936759  1.0
  C  C99  1  0.21169321  0.43167241  0.39952194  1.0
  C  C100  1  0.25466389  0.33794046  0.40253539  1.0
  C  C101  1  0.35657943  0.32137099  0.35738404  1.0
  C  C102  1  0.37515838  0.40485520  0.32718194  1.0
  C  C103  1  0.27252000  0.56847267  0.32045299  1.0
  C  C104  1  0.21700224  0.73342739  0.23699014  1.0
  C  C105  1  0.17497868  0.81353269  0.16878496  1.0
  C  C106  1  0.26062596  0.72115035  0.29769469  1.0
  C  C107  1  0.26832644  0.79890948  0.31212124  1.0
  C  C108  1  0.29562307  0.62378950  0.34475544  1.0
  C  C109  1  0.35529207  0.58404179  0.40679795  1.0
  C  C110  1  0.00252048  0.64844732  0.03188818  1.0
  C  C111  1  0.08600167  0.60169566  0.06567980  1.0
  C  C112  1  0.09132702  0.53899197  0.15116381  1.0
  C  C113  1  0.19006589  0.50327782  0.14973489  1.0
  C  C114  1  0.24489099  0.54433096  0.06349667  1.0
  C  C115  1  0.21831952  0.64462704  0.91676380  1.0
  C  C116  1  0.31931105  0.65664902  0.75487014  1.0
  C  C117  1  0.39213638  0.62362535  0.67555193  1.0
  C  C118  1  0.25606252  0.74347384  0.76536039  1.0
  C  C119  1  0.25162388  0.83178206  0.68788941  1.0
  C  C120  1  0.19823710  0.73697698  0.85994412  1.0
  C  C121  1  0.13435689  0.81709366  0.89691126  1.0
  S  S122  1  0.96442002  0.17588210  0.26503351  1.0
  S  S123  1  0.78739116  0.34390077  0.85415727  1.0
  S  S124  1  0.68288798  0.87295589  0.11905607  1.0
  S  S125  1  0.23404228  0.35415666  0.82509830  1.0
  S  S126  1  0.21403158  0.63104378  0.23961282  1.0
  S  S127  1  0.30911684  0.56853120  0.85731955  1.0
  N  N128  1  0.91802597  0.28837621  0.36101966  1.0
  N  N129  1  0.67227149  0.49697747  0.75878559  1.0
  N  N130  1  0.56436298  0.77035930  0.17570637  1.0
  N  N131  1  0.09055134  0.28734998  0.96131750  1.0
  N  N132  1  0.28803494  0.47168644  0.35306874  1.0
  N  N133  1  0.18221266  0.60519525  0.01185404  1.0
  O  O134  1  0.02805591  0.98223057  0.02082346  1.0
  O  O135  1  0.02855214  0.09718067  0.53111390  1.0
  O  O136  1  0.00035600  0.07449676  0.16037870  1.0
  O  O137  1  0.84607718  0.10256466  0.16274497  1.0
  O  O138  1  0.61296699  0.34419749  0.39688757  1.0
  O  O139  1  0.72062566  0.34713505  0.44686584  1.0
  O  O140  1  0.47974168  0.50944190  0.97772260  1.0
  O  O141  1  0.87466246  0.16266622  0.95575196  1.0
  O  O142  1  0.96273489  0.09629847  0.83896489  1.0
  O  O143  1  0.73490816  0.43351561  0.56640874  1.0
  O  O144  1  0.62781967  0.35772775  0.68124829  1.0
  O  O145  1  0.38252368  0.99316705  0.10706869  1.0
  O  O146  1  0.81079477  0.96937997  0.09406881  1.0
  O  O147  1  0.91253535  0.84145365  0.16772441  1.0
  O  O148  1  0.70174906  0.57506334  0.36497069  1.0
  O  O149  1  0.54754356  0.68180329  0.38318788  1.0
  O  O150  1  0.15746981  0.33471005  0.11099557  1.0
  O  O151  1  0.39818101  0.39310105  0.69672192  1.0
  O  O152  1  0.43121259  0.32325533  0.59313646  1.0
  O  O153  1  0.15774437  0.09310948  0.83952307  1.0
  O  O154  1  0.17068958  0.08541104  0.97098310  1.0
  O  O155  1  0.04156683  0.45182805  0.47868237  1.0
  O  O156  1  0.14715493  0.79070100  0.12358763  1.0
  O  O157  1  0.16980349  0.89594562  0.15621091  1.0
  O  O158  1  0.35314179  0.63810366  0.44246232  1.0
  O  O159  1  0.40573212  0.49804993  0.41769323  1.0
  O  O160  1  0.91799291  0.64712429  0.08090553  1.0
  O  O161  1  0.45555921  0.54373109  0.69691114  1.0
  O  O162  1  0.38785658  0.67142598  0.59429335  1.0
  O  O163  1  0.14728440  0.89651515  0.84850235  1.0
  O  O164  1  0.07162251  0.80051678  0.97670718  1.0
  O  O165  1  0.53464432  0.48787484  0.51608567  1.0
