# generated using pymatgen
data_Al2H7C28N6O22F
_symmetry_space_group_name_H-M   'P 1'
_cell_length_a   6.68099866
_cell_length_b   19.39963262
_cell_length_c   21.93855772
_cell_angle_alpha   99.28468159
_cell_angle_beta   90.26098637
_cell_angle_gamma   90.85070835
_symmetry_Int_Tables_number   1
_chemical_formula_structural   Al2H7C28N6O22F
_chemical_formula_sum   'Al4 H14 C56 N12 O44 F2'
_cell_volume   2805.80171612
_cell_formula_units_Z   2
loop_
 _symmetry_equiv_pos_site_id
 _symmetry_equiv_pos_as_xyz
  1  'x, y, z'
loop_
 _atom_site_type_symbol
 _atom_site_label
 _atom_site_symmetry_multiplicity
 _atom_site_fract_x
 _atom_site_fract_y
 _atom_site_fract_z
 _atom_site_occupancy
  Al  Al0  1  0.88244099  0.50045826  0.49976042  1.0
  Al  Al1  1  0.38245886  0.50059512  0.50100239  1.0
  Al  Al2  1  0.33448525  0.00026174  0.00075815  1.0
  Al  Al3  1  0.83444864  0.00018169  0.99968295  1.0
  H  H4  1  0.80591266  0.17388429  0.76117858  1.0
  H  H5  1  0.31207804  0.82265309  0.23769980  1.0
  H  H6  1  0.40834306  0.31843579  0.73234887  1.0
  H  H7  1  0.90891441  0.68025938  0.26478231  1.0
  H  H8  1  0.09746182  0.85449716  0.60562800  1.0
  H  H9  1  0.63786940  0.14585755  0.39435510  1.0
  H  H10  1  0.01616336  0.64040176  0.78082521  1.0
  H  H11  1  0.70588028  0.35891682  0.21777696  1.0
  H  H12  1  0.96280436  0.64996030  0.89216972  1.0
  H  H13  1  0.72985621  0.34895355  0.10537804  1.0
  H  H14  1  0.63673233  0.48753251  0.57619844  1.0
  H  H15  1  0.13271684  0.51263802  0.42421854  1.0
  H  H16  1  0.58162960  0.01770751  0.92621590  1.0
  H  H17  1  0.08370954  0.98281228  0.07428695  1.0
  C  C18  1  0.62950855  0.39055374  0.43178562  1.0
  C  C19  1  0.13368675  0.61038631  0.56909474  1.0
  C  C20  1  0.63032443  0.57521595  0.42316662  1.0
  C  C21  1  0.13296483  0.42537531  0.57729528  1.0
  C  C22  1  0.93849655  0.20517042  0.75494284  1.0
  C  C23  1  0.44351370  0.79187000  0.24357162  1.0
  C  C24  1  0.11120720  0.19889505  0.79042483  1.0
  C  C25  1  0.61422024  0.79882138  0.20760646  1.0
  C  C26  1  0.27889449  0.24081758  0.78039932  1.0
  C  C27  1  0.78029413  0.75736492  0.21699993  1.0
  C  C28  1  0.27554203  0.28738289  0.73880500  1.0
  C  C29  1  0.77747986  0.71097762  0.25880856  1.0
  C  C30  1  0.10220293  0.29418765  0.70373179  1.0
  C  C31  1  0.60652236  0.70380570  0.29458134  1.0
  C  C32  1  0.93494722  0.25189315  0.71344947  1.0
  C  C33  1  0.44040481  0.74526503  0.28513466  1.0
  C  C34  1  0.10593431  0.15505463  0.83577741  1.0
  C  C35  1  0.60762781  0.84320394  0.16275325  1.0
  C  C36  1  0.10726257  0.34007699  0.66004021  1.0
  C  C37  1  0.61176421  0.65865678  0.33887962  1.0
  C  C38  1  0.12553219  0.37934156  0.62241452  1.0
  C  C39  1  0.62784633  0.62045668  0.37737664  1.0
  C  C40  1  0.09067188  0.11896516  0.87599283  1.0
  C  C41  1  0.58896361  0.88021129  0.12341723  1.0
  C  C42  1  0.10606554  0.80735896  0.62642040  1.0
  C  C43  1  0.63076105  0.19321481  0.37385049  1.0
  C  C44  1  0.13178994  0.68052984  0.61105879  1.0
  C  C45  1  0.62356988  0.32043614  0.38981699  1.0
  C  C46  1  0.02837645  0.76006072  0.91059214  1.0
  C  C47  1  0.64937366  0.24005266  0.08857612  1.0
  C  C48  1  0.00704802  0.69550140  0.87199362  1.0
  C  C49  1  0.68597181  0.30412066  0.12660417  1.0
  C  C50  1  0.04037355  0.69094163  0.80951113  1.0
  C  C51  1  0.66888435  0.30896075  0.18972820  1.0
  C  C52  1  0.09181134  0.75063808  0.78316082  1.0
  C  C53  1  0.61687748  0.25007576  0.21712856  1.0
  C  C54  1  0.09795314  0.81696282  0.82302257  1.0
  C  C55  1  0.59328097  0.18400599  0.17742805  1.0
  C  C56  1  0.12155635  0.74750228  0.71713289  1.0
  C  C57  1  0.60332260  0.25359039  0.28371590  1.0
  C  C58  1  0.11568709  0.81030499  0.69096883  1.0
  C  C59  1  0.60611483  0.19064400  0.30968003  1.0
  C  C60  1  0.11595131  0.87552643  0.73208838  1.0
  C  C61  1  0.58607921  0.12564848  0.26863335  1.0
  C  C62  1  0.11505349  0.87833064  0.79463291  1.0
  C  C63  1  0.57299439  0.12300352  0.20621321  1.0
  C  C64  1  0.14740575  0.68485506  0.67468334  1.0
  C  C65  1  0.59498607  0.31661342  0.32665308  1.0
  C  C66  1  0.10617139  0.74361812  0.58829474  1.0
  C  C67  1  0.64660211  0.25686630  0.41194326  1.0
  C  C68  1  0.07344821  0.82124717  0.88792070  1.0
  C  C69  1  0.60395705  0.17941229  0.11212031  1.0
  C  C70  1  0.58470463  0.92434496  0.07682138  1.0
  C  C71  1  0.08554020  0.07565244  0.92323366  1.0
  C  C72  1  0.58831707  0.10948801  0.06996629  1.0
  C  C73  1  0.08197196  0.89108695  0.93032185  1.0
  N  N74  1  0.74392980  0.25829762  0.68116542  1.0
  N  N75  1  0.25044699  0.73804802  0.31757764  1.0
  N  N76  1  0.46959981  0.23481215  0.81299834  1.0
  N  N77  1  0.96909298  0.76368752  0.18366853  1.0
  N  N78  1  0.09051201  0.74337162  0.52083952  1.0
  N  N79  1  0.67620297  0.25687486  0.47890180  1.0
  N  N80  1  0.12463100  0.94170544  0.70699771  1.0
  N  N81  1  0.56956497  0.05967180  0.29379748  1.0
  N  N82  1  0.21210119  0.62028167  0.69688635  1.0
  N  N83  1  0.53415917  0.38249783  0.30602975  1.0
  N  N84  1  0.99262574  0.76177519  0.97741111  1.0
  N  N85  1  0.67037337  0.23821183  0.02111673  1.0
  O  O86  1  0.46108281  0.56146249  0.44516440  1.0
  O  O87  1  0.96587272  0.44805992  0.56153182  1.0
  O  O88  1  0.80268126  0.41309804  0.44851821  1.0
  O  O89  1  0.30142889  0.58135205  0.56017978  1.0
  O  O90  1  0.79908067  0.55269668  0.43768828  1.0
  O  O91  1  0.30439925  0.43964827  0.55711677  1.0
  O  O92  1  0.96182822  0.58790737  0.55073801  1.0
  O  O93  1  0.46227877  0.41968131  0.44199444  1.0
  O  O94  1  0.63398269  0.50699155  0.53807397  1.0
  O  O95  1  0.13229288  0.49388843  0.46271208  1.0
  O  O96  1  0.75673140  0.08195958  0.05674720  1.0
  O  O97  1  0.25441921  0.91527478  0.94593909  1.0
  O  O98  1  0.41480490  0.94427832  0.06056002  1.0
  O  O99  1  0.91437473  0.05975537  0.94256391  1.0
  O  O100  1  0.41505536  0.08529625  0.05561101  1.0
  O  O101  1  0.91288900  0.91845494  0.94251385  1.0
  O  O102  1  0.25398609  0.05632301  0.94122664  1.0
  O  O103  1  0.75409019  0.94027157  0.05622729  1.0
  O  O104  1  0.58294843  0.99473105  0.96245182  1.0
  O  O105  1  0.08475870  0.00572466  0.03800944  1.0
  O  O106  1  0.70109782  0.31689936  0.67003071  1.0
  O  O107  1  0.63611286  0.20518125  0.66954826  1.0
  O  O108  1  0.20346494  0.67897502  0.32767015  1.0
  O  O109  1  0.14758062  0.79103749  0.33020274  1.0
  O  O110  1  0.51366327  0.17639324  0.82421080  1.0
  O  O111  1  0.57585402  0.28834690  0.82498934  1.0
  O  O112  1  0.01596368  0.82212406  0.17215337  1.0
  O  O113  1  0.07128924  0.71037673  0.17155450  1.0
  O  O114  1  0.15385596  0.69141309  0.48658320  1.0
  O  O115  1  0.01724956  0.79531870  0.50383687  1.0
  O  O116  1  0.62420045  0.30958818  0.51442186  1.0
  O  O117  1  0.74948210  0.20403543  0.49434791  1.0
  O  O118  1  0.98831825  0.98338775  0.72121573  1.0
  O  O119  1  0.26875404  0.94971914  0.67340667  1.0
  O  O120  1  0.69424032  0.01445540  0.27665636  1.0
  O  O121  1  0.43067256  0.05531162  0.33025835  1.0
  O  O122  1  0.10531887  0.56723441  0.68380585  1.0
  O  O123  1  0.37218041  0.62459417  0.72572824  1.0
  O  O124  1  0.36796464  0.38147874  0.28104148  1.0
  O  O125  1  0.65051192  0.43332516  0.31656063  1.0
  O  O126  1  0.89671387  0.71213107  0.99258917  1.0
  O  O127  1  0.06116335  0.81229760  0.01344227  1.0
  O  O128  1  0.75902938  0.28817216  0.00398750  1.0
  O  O129  1  0.59727030  0.18728290  0.98655634  1.0
  F  F130  1  0.12547964  0.94137301  0.83054486  1.0
  F  F131  1  0.54410272  0.06036553  0.17064608  1.0
