# generated using pymatgen
data_CuH10C16(NO)4
_symmetry_space_group_name_H-M   'P 1'
_cell_length_a   4.70346776
_cell_length_b   19.67825155
_cell_length_c   19.67677740
_cell_angle_alpha   119.35797395
_cell_angle_beta   94.57597395
_cell_angle_gamma   94.57750742
_symmetry_Int_Tables_number   1
_chemical_formula_structural   CuH10C16(NO)4
_chemical_formula_sum   'Cu3 H30 C48 N12 O12'
_cell_volume   1567.36102308
_cell_formula_units_Z   3
loop_
 _symmetry_equiv_pos_site_id
 _symmetry_equiv_pos_as_xyz
  1  'x, y, z'
loop_
 _atom_site_type_symbol
 _atom_site_label
 _atom_site_symmetry_multiplicity
 _atom_site_fract_x
 _atom_site_fract_y
 _atom_site_fract_z
 _atom_site_occupancy
  Cu  Cu0  1  0.50000217  0.00000005  0.50000017  1.0
  Cu  Cu1  1  0.50000021  0.49999999  0.00000025  1.0
  Cu  Cu2  1  0.99999812  0.50000004  0.49999982  1.0
  H  H3  1  0.61194907  0.62092035  0.18414731  1.0
  H  H4  1  0.99104056  0.56309218  0.37885921  1.0
  H  H5  1  0.42838958  0.81582057  0.43679878  1.0
  H  H6  1  0.38804716  0.37908015  0.81585355  1.0
  H  H7  1  0.00895753  0.43690773  0.62113936  1.0
  H  H8  1  0.57160851  0.18417934  0.56320081  1.0
  H  H9  1  0.97467365  0.78227683  0.31218473  1.0
  H  H10  1  0.19277280  0.52975684  0.21759372  1.0
  H  H11  1  0.66296546  0.68785103  0.47018243  1.0
  H  H12  1  0.02532530  0.21772485  0.68781676  1.0
  H  H13  1  0.80723139  0.47024248  0.78240519  1.0
  H  H14  1  0.33703688  0.31214888  0.52981724  1.0
  H  H15  1  0.59717322  0.85959531  0.20727504  1.0
  H  H16  1  0.73767220  0.34751899  0.14043994  1.0
  H  H17  1  0.39065286  0.79276193  0.65233359  1.0
  H  H18  1  0.40282332  0.14040578  0.79272509  1.0
  H  H19  1  0.26232712  0.65247916  0.85955982  1.0
  H  H20  1  0.60934949  0.20723798  0.34766659  1.0
  H  H21  1  0.43282355  0.74082209  0.07311558  1.0
  H  H22  1  0.69152428  0.33210361  0.25916844  1.0
  H  H23  1  0.36013580  0.92693678  0.66780368  1.0
  H  H24  1  0.56717085  0.25917900  0.92688502  1.0
  H  H25  1  0.30847836  0.66789690  0.74083203  1.0
  H  H26  1  0.63986442  0.07306314  0.33219544  1.0
  H  H27  1  0.04019153  0.59946499  0.00102559  1.0
  H  H28  1  0.44018188  0.40146949  0.40055164  1.0
  H  H29  1  0.03932464  0.99903249  0.59854902  1.0
  H  H30  1  0.95981139  0.40053610  0.99897619  1.0
  H  H31  1  0.55981679  0.59853160  0.59944854  1.0
  H  H32  1  0.96067983  0.00096742  0.40145069  1.0
  C  C33  1  0.76847001  0.63767567  0.15561856  1.0
  C  C34  1  0.13057336  0.51777973  0.36216253  1.0
  C  C35  1  0.61327346  0.84440558  0.48212550  1.0
  C  C36  1  0.23152651  0.36232542  0.84438259  1.0
  C  C37  1  0.86942929  0.48222078  0.63783642  1.0
  C  C38  1  0.38672918  0.15559492  0.51787396  1.0
  C  C39  1  0.07354081  0.77176510  0.26023895  1.0
  C  C40  1  0.30184614  0.48828602  0.22811492  1.0
  C  C41  1  0.81374999  0.73980245  0.51161739  1.0
  C  C42  1  0.92645756  0.22823540  0.73976195  1.0
  C  C43  1  0.69815650  0.51171448  0.77188556  1.0
  C  C44  1  0.18625207  0.26019688  0.48838148  1.0
  C  C45  1  0.11258621  0.69503381  0.11961853  1.0
  C  C46  1  0.41707898  0.42437095  0.30487521  1.0
  C  C47  1  0.99319506  0.88044769  0.57555033  1.0
  C  C48  1  0.88741245  0.30496728  0.88038266  1.0
  C  C49  1  0.58292396  0.57563014  0.69512505  1.0
  C  C50  1  0.00680700  0.11955163  0.42444854  1.0
  C  C51  1  0.42288541  0.81493605  0.19836194  1.0
  C  C52  1  0.60788869  0.38324983  0.18502959  1.0
  C  C53  1  0.22505837  0.80166793  0.61662893  1.0
  C  C54  1  0.57711053  0.18506387  0.80163812  1.0
  C  C55  1  0.39211093  0.61674890  0.81496995  1.0
  C  C56  1  0.77494398  0.19833198  0.38337074  1.0
  C  C57  1  0.98151872  0.70452697  0.18614626  1.0
  C  C58  1  0.27675057  0.48140852  0.29533406  1.0
  C  C59  1  0.79576696  0.81390004  0.51848264  1.0
  C  C60  1  0.01847781  0.29547412  0.81385489  1.0
  C  C61  1  0.72325207  0.51859198  0.70466641  1.0
  C  C62  1  0.20423509  0.18609928  0.48151622  1.0
  C  C63  1  0.41241089  0.89782414  0.34279007  1.0
  C  C64  1  0.51491023  0.44487595  0.10213202  1.0
  C  C65  1  0.06989735  0.65721479  0.55507596  1.0
  C  C66  1  0.58758932  0.10217577  0.65721007  1.0
  C  C67  1  0.48508300  0.55512279  0.89786690  1.0
  C  C68  1  0.93010286  0.34278512  0.44492418  1.0
  C  C69  1  0.29483043  0.82625376  0.26572292  1.0
  C  C70  1  0.46875117  0.43930229  0.17367399  1.0
  C  C71  1  0.02961950  0.73431147  0.56060028  1.0
  C  C72  1  0.70517037  0.17374733  0.73427781  1.0
  C  C73  1  0.53124905  0.56069762  0.82632564  1.0
  C  C74  1  0.97038042  0.26568785  0.43939905  1.0
  C  C75  1  0.33508381  0.75009350  0.12480936  1.0
  C  C76  1  0.58460894  0.37451497  0.24986347  1.0
  C  C77  1  0.21065589  0.87524156  0.62538446  1.0
  C  C78  1  0.66491029  0.24990701  0.87519146  1.0
  C  C79  1  0.41539399  0.62548612  0.75013730  1.0
  C  C80  1  0.78934462  0.12475894  0.37461546  1.0
  N  N81  1  0.97822370  0.62714686  0.05658250  1.0
  N  N82  1  0.35048257  0.42926803  0.37278138  1.0
  N  N83  1  0.92172128  0.94348307  0.57070670  1.0
  N  N84  1  0.02177893  0.37285365  0.94341849  1.0
  N  N85  1  0.64952006  0.57073247  0.62721909  1.0
  N  N86  1  0.07828291  0.05651625  0.42929221  1.0
  N  N87  1  0.77206704  0.59238729  0.07829555  1.0
  N  N88  1  0.17928224  0.48578582  0.40750707  1.0
  N  N89  1  0.69399193  0.92173896  0.51417072  1.0
  N  N90  1  0.22793346  0.40761321  0.92170539  1.0
  N  N91  1  0.82071827  0.51421468  0.59249235  1.0
  N  N92  1  0.30601041  0.07826095  0.48582895  1.0
  O  O93  1  0.27627839  0.91141045  0.40222650  1.0
  O  O94  1  0.36494491  0.49067400  0.08852125  1.0
  O  O95  1  0.87422114  0.59780723  0.50919338  1.0
  O  O96  1  0.72372240  0.08859064  0.59777473  1.0
  O  O97  1  0.63505074  0.50932533  0.91147851  1.0
  O  O98  1  0.12577937  0.40219327  0.49080705  1.0
  O  O99  1  0.63435605  0.94050877  0.34710970  1.0
  O  O100  1  0.69447029  0.40664122  0.05951508  1.0
  O  O101  1  0.28739098  0.65282947  0.59343508  1.0
  O  O102  1  0.36564843  0.05949114  0.65289002  1.0
  O  O103  1  0.30552052  0.59335693  0.94048248  1.0
  O  O104  1  0.71260893  0.34716985  0.40656527  1.0
