# generated using pymatgen
data_ZnH9C22NO10
_symmetry_space_group_name_H-M   'P 1'
_cell_length_a   13.87449260
_cell_length_b   16.73039720
_cell_length_c   17.62891018
_cell_angle_alpha   87.35532438
_cell_angle_beta   84.63265277
_cell_angle_gamma   71.34656075
_symmetry_Int_Tables_number   1
_chemical_formula_structural   ZnH9C22NO10
_chemical_formula_sum   'Zn2 H18 C44 N2 O20'
_cell_volume   3859.59655009
_cell_formula_units_Z   2
loop_
 _symmetry_equiv_pos_site_id
 _symmetry_equiv_pos_as_xyz
  1  'x, y, z'
loop_
 _atom_site_type_symbol
 _atom_site_label
 _atom_site_symmetry_multiplicity
 _atom_site_fract_x
 _atom_site_fract_y
 _atom_site_fract_z
 _atom_site_occupancy
  Zn  Zn0  1  0.51166608  0.40683333  0.49453116  1.0
  Zn  Zn1  1  0.48080493  0.59030907  0.50259619  1.0
  H  H2  1  0.44082670  0.39697407  0.28148540  1.0
  H  H3  1  0.40142047  0.66653411  0.93486546  1.0
  H  H4  1  0.46706155  0.70088858  0.21474270  1.0
  H  H5  1  0.51787470  0.29822057  0.78654312  1.0
  H  H6  1  0.74707251  0.07964283  0.59378474  1.0
  H  H7  1  0.27382794  0.92948163  0.43034582  1.0
  H  H8  1  0.65262368  0.31160448  0.58784613  1.0
  H  H9  1  0.31384154  0.70606938  0.46019037  1.0
  H  H10  1  0.38576335  0.28489302  0.36753731  1.0
  H  H11  1  0.70244928  0.66342766  0.56354165  1.0
  H  H12  1  0.45633090  0.62234973  0.72459436  1.0
  H  H13  1  0.44547793  0.63932841  0.11059944  1.0
  H  H14  1  0.47263970  0.37312837  0.89235696  1.0
  H  H15  1  0.43543516  0.14473835  0.40646298  1.0
  H  H16  1  0.65580662  0.81190762  0.54055247  1.0
  H  H17  1  0.01094090  0.34664753  0.47515437  1.0
  H  H18  1  0.96249827  0.67877561  0.55724209  1.0
  H  H19  1  0.39276228  0.37367118  0.07835148  1.0
  C  C20  1  0.49766039  0.48499212  0.64274205  1.0
  C  C21  1  0.43264814  0.85897335  0.45413157  1.0
  C  C22  1  0.58863383  0.21886484  0.54226292  1.0
  C  C23  1  0.42215481  0.77853783  0.46386437  1.0
  C  C24  1  0.47776563  0.24893311  0.44641534  1.0
  C  C25  1  0.57189427  0.72550819  0.52534433  1.0
  C  C26  1  0.48035365  0.16453780  0.44495443  1.0
  C  C27  1  0.58970710  0.80374607  0.51707224  1.0
  C  C28  1  0.54171299  0.10514335  0.49321933  1.0
  C  C29  1  0.51945817  0.87168820  0.48282228  1.0
  C  C30  1  0.54329852  0.02045832  0.49066809  1.0
  C  C31  1  0.47546891  0.51518655  0.35726196  1.0
  C  C32  1  0.53225253  0.95215218  0.48233651  1.0
  C  C33  1  0.68925910  0.46830378  0.48368457  1.0
  C  C34  1  0.29976114  0.53350346  0.52151820  1.0
  C  C35  1  0.19128146  0.54435861  0.53029201  1.0
  C  C36  1  0.79169779  0.46734568  0.49519561  1.0
  C  C37  1  0.00184254  0.54507859  0.53196006  1.0
  C  C38  1  0.97185457  0.47733640  0.51262081  1.0
  C  C39  1  0.87103840  0.48042986  0.50681048  1.0
  C  C40  1  0.10450337  0.54093081  0.53196316  1.0
  C  C41  1  0.42377705  0.44693329  0.16750827  1.0
  C  C42  1  0.44232256  0.58659437  0.14858338  1.0
  C  C43  1  0.44032585  0.57903805  0.83996310  1.0
  C  C44  1  0.44036840  0.45067320  0.24401711  1.0
  C  C45  1  0.45922762  0.56757535  0.76136477  1.0
  C  C46  1  0.45715230  0.51976151  0.27459311  1.0
  C  C47  1  0.48162383  0.48912084  0.72783111  1.0
  C  C48  1  0.45550145  0.58996674  0.22601706  1.0
  C  C49  1  0.48631125  0.41808864  0.77640394  1.0
  C  C50  1  0.04777441  0.39196377  0.49353931  1.0
  C  C51  1  0.92693963  0.62904924  0.55002445  1.0
  C  C52  1  0.40249952  0.37300798  0.14050820  1.0
  C  C53  1  0.46805896  0.42820488  0.85537497  1.0
  C  C54  1  0.41645958  0.66372833  0.87155142  1.0
  C  C55  1  0.67217339  0.06977942  0.59050197  1.0
  C  C56  1  0.35332184  0.93100217  0.42065541  1.0
  C  C57  1  0.64169686  0.24957548  0.59927981  1.0
  C  C58  1  0.33518534  0.75959107  0.43245946  1.0
  C  C59  1  0.42831841  0.51548224  0.11794910  1.0
  C  C60  1  0.44522741  0.50755309  0.88826073  1.0
  C  C61  1  0.42501412  0.51276218  0.03817384  1.0
  C  C62  1  0.43119856  0.51331929  0.96859450  1.0
  C  C63  1  0.59941811  0.13276402  0.54280065  1.0
  N  N64  1  0.53033208  0.27623505  0.49431521  1.0
  N  N65  1  0.48855711  0.71359010  0.49977953  1.0
  O  O66  1  0.49129152  0.42061111  0.61049849  1.0
  O  O67  1  0.83362922  0.64554729  0.55669644  1.0
  O  O68  1  0.39416847  0.31373838  0.18176791  1.0
  O  O69  1  0.41251231  0.72778043  0.83335255  1.0
  O  O70  1  0.47071863  0.65828234  0.25499355  1.0
  O  O71  1  0.51041724  0.34069047  0.74579203  1.0
  O  O72  1  0.65437334  0.00750406  0.61933222  1.0
  O  O73  1  0.37263475  0.99079195  0.38749293  1.0
  O  O74  1  0.67299661  0.20583473  0.65514878  1.0
  O  O75  1  0.28986833  0.80127390  0.38025162  1.0
  O  O76  1  0.42229741  0.30849826  0.40044815  1.0
  O  O77  1  0.44352080  0.58322098  0.39464436  1.0
  O  O78  1  0.63308724  0.65968029  0.56042025  1.0
  O  O79  1  0.51521740  0.54843084  0.60859204  1.0
  O  O80  1  0.51985807  0.44170176  0.38341517  1.0
  O  O81  1  0.66558101  0.40204286  0.50184401  1.0
  O  O82  1  0.32855695  0.59544244  0.53746903  1.0
  O  O83  1  0.63273438  0.53720229  0.45730413  1.0
  O  O84  1  0.35440746  0.46153615  0.49744189  1.0
  O  O85  1  0.13952637  0.37243276  0.49813979  1.0
