# generated using pymatgen
data_ZnH15C18N(O2F)2
_symmetry_space_group_name_H-M   'P 1'
_cell_length_a   8.98016968
_cell_length_b   14.68248073
_cell_length_c   16.14521050
_cell_angle_alpha   91.52765104
_cell_angle_beta   90.14891117
_cell_angle_gamma   98.50312282
_symmetry_Int_Tables_number   1
_chemical_formula_structural   ZnH15C18N(O2F)2
_chemical_formula_sum   'Zn2 H30 C36 N2 O8 F4'
_cell_volume   2104.57071004
_cell_formula_units_Z   2
loop_
 _symmetry_equiv_pos_site_id
 _symmetry_equiv_pos_as_xyz
  1  'x, y, z'
loop_
 _atom_site_type_symbol
 _atom_site_label
 _atom_site_symmetry_multiplicity
 _atom_site_fract_x
 _atom_site_fract_y
 _atom_site_fract_z
 _atom_site_occupancy
  Zn  Zn0  1  0.48954922  0.40317564  0.49666959  1.0
  Zn  Zn1  1  0.51042923  0.59685533  0.50333603  1.0
  H  H2  1  0.43447998  0.21591522  0.00907630  1.0
  H  H3  1  0.37686944  0.65117643  0.86590126  1.0
  H  H4  1  0.80135207  0.83154283  0.48567975  1.0
  H  H5  1  0.90406182  0.94482388  0.49289056  1.0
  H  H6  1  0.93879804  0.85981812  0.56445076  1.0
  H  H7  1  0.78725845  0.96429995  0.63631351  1.0
  H  H8  1  0.67601396  0.85627091  0.62028097  1.0
  H  H9  1  0.09581751  0.05510125  0.50692908  1.0
  H  H10  1  0.19860111  0.16832688  0.51432006  1.0
  H  H11  1  0.06127997  0.14025176  0.43549346  1.0
  H  H12  1  0.32397893  0.14380602  0.37966393  1.0
  H  H13  1  0.63356162  0.24167991  0.00887228  1.0
  H  H14  1  0.21281824  0.03576987  0.36357806  1.0
  H  H15  1  0.61230110  0.18495375  0.67194523  1.0
  H  H16  1  0.68900462  0.08822922  0.70795692  1.0
  H  H17  1  0.80619778  0.19638062  0.69826305  1.0
  H  H18  1  0.85443075  0.09326154  0.57933412  1.0
  H  H19  1  0.77321456  0.18704278  0.54447028  1.0
  H  H20  1  0.31106962  0.91176676  0.29197457  1.0
  H  H21  1  0.38764250  0.81500425  0.32801237  1.0
  H  H22  1  0.19376541  0.80366610  0.30168517  1.0
  H  H23  1  0.22678404  0.81301174  0.45549850  1.0
  H  H24  1  0.54028742  0.18625334  0.09469993  1.0
  H  H25  1  0.14559378  0.90681300  0.42059218  1.0
  H  H26  1  0.62325586  0.34879511  0.13411046  1.0
  H  H27  1  0.42824075  0.32287514  0.13561212  1.0
  H  H28  1  0.36660845  0.75828341  0.99114801  1.0
  H  H29  1  0.56569988  0.78401563  0.99093863  1.0
  H  H30  1  0.45990762  0.81371193  0.90531545  1.0
  H  H31  1  0.57187574  0.67706529  0.86439052  1.0
  C  C32  1  0.50204365  0.49812782  0.66125754  1.0
  C  C33  1  0.20787748  0.46974893  0.50008874  1.0
  C  C34  1  0.95989341  0.53572476  0.49954535  1.0
  C  C35  1  0.04008665  0.46427193  0.50047160  1.0
  C  C36  1  0.51221067  0.41510455  0.04264350  1.0
  C  C37  1  0.48786785  0.58484004  0.95735609  1.0
  C  C38  1  0.49958611  0.49909639  0.08638139  1.0
  C  C39  1  0.50048573  0.50084820  0.91361819  1.0
  C  C40  1  0.48794856  0.58001307  0.04318163  1.0
  C  C41  1  0.51216276  0.41993354  0.95681923  1.0
  C  C42  1  0.49860184  0.50218036  0.17378993  1.0
  C  C43  1  0.49794264  0.50189893  0.33874246  1.0
  C  C44  1  0.50146071  0.49777177  0.82620541  1.0
  C  C45  1  0.50201032  0.49748396  0.75074090  1.0
  C  C46  1  0.49801126  0.50250969  0.24926240  1.0
  C  C47  1  0.62500480  0.05816740  0.53917842  1.0
  C  C48  1  0.37505247  0.94186872  0.46071518  1.0
  C  C49  1  0.52457706  0.33097428  0.09286586  1.0
  C  C50  1  0.53369465  0.23887112  0.04820596  1.0
  C  C51  1  0.47555142  0.66898761  0.90714574  1.0
  C  C52  1  0.46647755  0.76108734  0.95181180  1.0
  C  C53  1  0.73203611  0.91692402  0.58803702  1.0
  C  C54  1  0.50869444  0.09257444  0.49602962  1.0
  C  C55  1  0.85089493  0.88664089  0.52909277  1.0
  C  C56  1  0.26800034  0.08312215  0.41188210  1.0
  C  C57  1  0.14910127  0.11332331  0.47082280  1.0
  C  C58  1  0.75004411  0.12391114  0.58033633  1.0
  C  C59  1  0.71197861  0.14968109  0.66995183  1.0
  C  C60  1  0.24995624  0.87612841  0.41959756  1.0
  C  C61  1  0.28801323  0.85032831  0.32999220  1.0
  C  C62  1  0.49136828  0.90746576  0.50386094  1.0
  C  C63  1  0.38475958  0.03779758  0.45604797  1.0
  C  C64  1  0.61526203  0.96224251  0.54387789  1.0
  C  C65  1  0.51343017  0.18947035  0.49374811  1.0
  C  C66  1  0.48659451  0.81057749  0.50619023  1.0
  C  C67  1  0.79210245  0.53024281  0.49992010  1.0
  N  N68  1  0.48850904  0.73177427  0.50772462  1.0
  N  N69  1  0.51147971  0.26825397  0.49223638  1.0
  O  O70  1  0.48783647  0.41991745  0.62371815  1.0
  O  O71  1  0.51213099  0.58011418  0.37628376  1.0
  O  O72  1  0.51608800  0.57716428  0.62890973  1.0
  O  O73  1  0.48389948  0.42286730  0.37109095  1.0
  O  O74  1  0.71651018  0.45009784  0.49759550  1.0
  O  O75  1  0.28348319  0.54989872  0.50241464  1.0
  O  O76  1  0.74177899  0.60667777  0.50247580  1.0
  O  O77  1  0.25819205  0.39331870  0.49752566  1.0
  F  F78  1  0.03371007  0.62290214  0.49828804  1.0
  F  F79  1  0.96627328  0.37708977  0.50173257  1.0
  F  F80  1  0.52401259  0.34345548  0.90903999  1.0
  F  F81  1  0.47604960  0.65648157  0.09096073  1.0
