# generated using pymatgen
data_MgH12C15NO4
_symmetry_space_group_name_H-M   'P 1'
_cell_length_a   6.72560088
_cell_length_b   46.24089652
_cell_length_c   46.23472907
_cell_angle_alpha   119.75984735
_cell_angle_beta   92.75836272
_cell_angle_gamma   92.80288548
_symmetry_Int_Tables_number   1
_chemical_formula_structural   MgH12C15NO4
_chemical_formula_sum   'Mg6 H72 C90 N6 O24'
_cell_volume   12424.04992074
_cell_formula_units_Z   6
loop_
 _symmetry_equiv_pos_site_id
 _symmetry_equiv_pos_as_xyz
  1  'x, y, z'
loop_
 _atom_site_type_symbol
 _atom_site_label
 _atom_site_symmetry_multiplicity
 _atom_site_fract_x
 _atom_site_fract_y
 _atom_site_fract_z
 _atom_site_occupancy
  Mg  Mg0  1  0.42316435  0.66964795  0.31165415  1.0
  Mg  Mg1  1  0.69229469  0.33016403  0.68815363  1.0
  Mg  Mg2  1  0.11127300  0.68831219  0.35784591  1.0
  Mg  Mg3  1  0.00437523  0.31186455  0.64216143  1.0
  Mg  Mg4  1  0.75336610  0.64212497  0.33032728  1.0
  Mg  Mg5  1  0.36242588  0.35785850  0.66983425  1.0
  H  H6  1  0.58462928  0.07637801  0.57572131  1.0
  H  H7  1  0.19177614  0.04032093  0.54388221  1.0
  H  H8  1  0.28476070  0.03883156  0.57956031  1.0
  H  H9  1  0.37850420  0.98917072  0.53065211  1.0
  H  H10  1  0.59755211  0.01537721  0.55158402  1.0
  H  H11  1  0.57751973  0.03718570  0.51051869  1.0
  H  H12  1  0.36825462  0.00845855  0.48904251  1.0
  H  H13  1  0.57772503  0.96098372  0.47872955  1.0
  H  H14  1  0.78732479  0.98979015  0.49969615  1.0
  H  H15  1  0.77615129  0.00810549  0.45746809  1.0
  H  H16  1  0.55290538  0.98278210  0.43752258  1.0
  H  H17  1  0.95514029  0.95607164  0.44366224  1.0
  H  H18  1  0.85839843  0.95755417  0.40815362  1.0
  H  H19  1  0.55652161  0.92153383  0.41364474  1.0
  H  H20  1  0.90805716  0.84095436  0.41046354  1.0
  H  H21  1  0.17624150  0.83111854  0.38074432  1.0
  H  H22  1  0.36758896  0.88404444  0.40219481  1.0
  H  H23  1  0.16320209  0.76859349  0.35982750  1.0
  H  H24  1  0.88871851  0.78102766  0.39462539  1.0
  H  H25  1  0.21979876  0.15730271  0.58322124  1.0
  H  H26  1  0.95243235  0.16862154  0.61302625  1.0
  H  H27  1  0.76842632  0.11460498  0.58830950  1.0
  H  H28  1  0.95730523  0.23138598  0.63726666  1.0
  H  H29  1  0.23130753  0.21828705  0.60256770  1.0
  H  H30  1  0.00903068  0.42424398  0.50069097  1.0
  H  H31  1  0.64846037  0.45630201  0.49675962  1.0
  H  H32  1  0.70472703  0.42058752  0.45954138  1.0
  H  H33  1  0.84789879  0.46937893  0.45863386  1.0
  H  H34  1  0.04583649  0.44838606  0.46383428  1.0
  H  H35  1  0.06758469  0.48952781  0.52672441  1.0
  H  H36  1  0.88038427  0.51107578  0.51946549  1.0
  H  H37  1  0.10052555  0.52116765  0.48217438  1.0
  H  H38  1  0.28868378  0.50017016  0.49005138  1.0
  H  H39  1  0.32011796  0.54250400  0.55055801  1.0
  H  H40  1  0.11676109  0.56241652  0.54516667  1.0
  H  H41  1  0.51263030  0.55630377  0.51222331  1.0
  H  H42  1  0.45156464  0.59178616  0.54923894  1.0
  H  H43  1  0.14371309  0.58629814  0.50784771  1.0
  H  H44  1  0.49776643  0.58961784  0.43040828  1.0
  H  H45  1  0.79588134  0.61938760  0.45049324  1.0
  H  H46  1  0.96577519  0.59783129  0.48185389  1.0
  H  H47  1  0.80338134  0.64028200  0.40884667  1.0
  H  H48  1  0.49404102  0.60550238  0.38634190  1.0
  H  H49  1  0.63743193  0.41673958  0.57422241  1.0
  H  H50  1  0.33985234  0.38679802  0.55549473  1.0
  H  H51  1  0.18051264  0.41154921  0.52624747  1.0
  H  H52  1  0.32065764  0.36262126  0.59414171  1.0
  H  H53  1  0.62961515  0.39742966  0.61584480  1.0
  H  H54  1  0.50797431  0.49941207  0.92357419  1.0
  H  H55  1  0.15173167  0.50355583  0.95974149  1.0
  H  H56  1  0.24582691  0.54072553  0.96118429  1.0
  H  H57  1  0.39020839  0.54152650  0.01082708  1.0
  H  H58  1  0.58256034  0.53624314  0.98452884  1.0
  H  H59  1  0.54104263  0.47340573  0.96276381  1.0
  H  H60  1  0.36044753  0.48059939  0.99147674  1.0
  H  H61  1  0.61727624  0.51777241  0.03897923  1.0
  H  H62  1  0.79817784  0.50998652  0.01019424  1.0
  H  H63  1  0.76844869  0.44941161  0.99184106  1.0
  H  H64  1  0.57076312  0.45480589  0.01721358  1.0
  H  H65  1  0.99995064  0.48760659  0.04387149  1.0
  H  H66  1  0.90142397  0.45061227  0.04235869  1.0
  H  H67  1  0.63573320  0.49216399  0.07839035  1.0
  H  H68  1  0.06794556  0.56944342  0.15905746  1.0
  H  H69  1  0.34582871  0.54947565  0.16883605  1.0
  H  H70  1  0.48439886  0.51800181  0.11593480  1.0
  H  H71  1  0.39486846  0.59116005  0.23131721  1.0
  H  H72  1  0.10815816  0.61362048  0.21897697  1.0
  H  H73  1  0.06219502  0.42595132  0.84268580  1.0
  H  H74  1  0.78372972  0.44443740  0.83143058  1.0
  H  H75  1  0.65365123  0.47369639  0.88544166  1.0
  H  H76  1  0.72604774  0.40587231  0.76865713  1.0
  H  H77  1  0.01269977  0.38437859  0.78169189  1.0
  C  C78  1  0.34258343  0.10078972  0.57336215  1.0
  C  C79  1  0.32986724  0.04127739  0.55817916  1.0
  C  C80  1  0.45807921  0.01315750  0.53672217  1.0
  C  C81  1  0.50825897  0.01253274  0.50453911  1.0
  C  C82  1  0.64634463  0.98556868  0.48437319  1.0
  C  C83  1  0.69359534  0.98448912  0.45185915  1.0
  C  C84  1  0.81585230  0.95561512  0.42992376  1.0
  C  C85  1  0.79423999  0.89671198  0.41683319  1.0
  C  C86  1  0.65858441  0.86585373  0.40657039  1.0
  C  C87  1  0.74788967  0.83836177  0.40372367  1.0
  C  C88  1  0.63732685  0.80718994  0.39159163  1.0
  C  C89  1  0.42718289  0.80360734  0.38198792  1.0
  C  C90  1  0.33643941  0.83268566  0.38686462  1.0
  C  C91  1  0.44807302  0.86276528  0.39877723  1.0
  C  C92  1  0.32222987  0.77170126  0.36757740  1.0
  C  C93  1  0.41676507  0.74325884  0.36142641  1.0
  C  C94  1  0.62775081  0.74730890  0.37198300  1.0
  C  C95  1  0.73013836  0.77877465  0.38700667  1.0
  C  C96  1  0.74624561  0.71906877  0.36596054  1.0
  C  C97  1  0.47384938  0.13247204  0.58532123  1.0
  C  C98  1  0.38012541  0.16025305  0.58999406  1.0
  C  C99  1  0.48641848  0.19203894  0.60392793  1.0
  C  C100  1  0.69676568  0.19587104  0.61350403  1.0
  C  C101  1  0.79198525  0.16663867  0.60683275  1.0
  C  C102  1  0.68458428  0.13597798  0.59314523  1.0
  C  C103  1  0.79817617  0.22812197  0.62955980  1.0
  C  C104  1  0.70043256  0.25664549  0.63718145  1.0
  C  C105  1  0.48931505  0.25245817  0.62664489  1.0
  C  C106  1  0.39002135  0.22067832  0.61018247  1.0
  C  C107  1  0.36864622  0.28075020  0.63369073  1.0
  C  C108  1  0.76980332  0.42665564  0.52759437  1.0
  C  C109  1  0.77183075  0.44193931  0.48332498  1.0
  C  C110  1  0.92154608  0.46331201  0.47653812  1.0
  C  C111  1  0.00454146  0.49549201  0.50803058  1.0
  C  C112  1  0.16321023  0.51554393  0.50114217  1.0
  C  C113  1  0.24311573  0.54807685  0.53253232  1.0
  C  C114  1  0.38710453  0.57002118  0.52554569  1.0
  C  C115  1  0.37790715  0.58314968  0.47975406  1.0
  C  C116  1  0.25227991  0.59346401  0.45922789  1.0
  C  C117  1  0.34432576  0.59635609  0.43458206  1.0
  C  C118  1  0.24581177  0.60850972  0.41557905  1.0
  C  C119  1  0.04532342  0.61812052  0.42165370  1.0
  C  C120  1  0.94988300  0.61324389  0.44588493  1.0
  C  C121  1  0.04963787  0.60128134  0.46399419  1.0
  C  C122  1  0.95457700  0.63251199  0.40415445  1.0
  C  C123  1  0.05504371  0.63861414  0.38178918  1.0
  C  C124  1  0.25548403  0.62806336  0.37525579  1.0
  C  C125  1  0.34304891  0.61309036  0.39172298  1.0
  C  C126  1  0.37993859  0.63405555  0.35299786  1.0
  C  C127  1  0.88919702  0.41460671  0.54721875  1.0
  C  C128  1  0.79089088  0.40994657  0.57035488  1.0
  C  C129  1  0.88326849  0.39599086  0.58817198  1.0
  C  C130  1  0.08394421  0.38637856  0.58237374  1.0
  C  C131  1  0.18570200  0.39301799  0.55976349  1.0
  C  C132  1  0.09195563  0.40673412  0.54282497  1.0
  C  C133  1  0.16920649  0.37034528  0.59859147  1.0
  C  C134  1  0.06379518  0.36276385  0.61953623  1.0
  C  C135  1  0.86326654  0.37331612  0.62591135  1.0
  C  C136  1  0.78058218  0.38976367  0.61058141  1.0
  C  C137  1  0.73541919  0.36630441  0.64717984  1.0
  C  C138  1  0.24161461  0.47252449  0.89923954  1.0
  C  C139  1  0.28869434  0.51691548  0.95873710  1.0
  C  C140  1  0.44545087  0.52360567  0.98681445  1.0
  C  C141  1  0.49640940  0.49205243  0.98742488  1.0
  C  C142  1  0.66142801  0.49885646  0.01439973  1.0
  C  C143  1  0.70971415  0.46742613  0.01546828  1.0
  C  C144  1  0.86098136  0.47433666  0.04432425  1.0
  C  C145  1  0.89852584  0.52005045  0.10328261  1.0
  C  C146  1  0.79364283  0.54061244  0.13414224  1.0
  C  C147  1  0.91035061  0.56527768  0.16164085  1.0
  C  C148  1  0.83081798  0.58434225  0.19279593  1.0
  C  C149  1  0.62418265  0.57830359  0.19635648  1.0
  C  C150  1  0.50451933  0.55405061  0.16728067  1.0
  C  C151  1  0.58618730  0.53587754  0.13721425  1.0
  C  C152  1  0.55084631  0.59583777  0.22823647  1.0
  C  C153  1  0.67358201  0.61821536  0.25668762  1.0
  C  C154  1  0.88056596  0.62473679  0.25265243  1.0
  C  C155  1  0.95181125  0.60824304  0.22121087  1.0
  C  C156  1  0.02719369  0.64699120  0.28090099  1.0
  C  C157  1  0.34115725  0.45285016  0.86754210  1.0
  C  C158  1  0.21958454  0.42978032  0.83974446  1.0
  C  C159  1  0.29415441  0.41194767  0.80796279  1.0
  C  C160  1  0.50076729  0.41767284  0.80414698  1.0
  C  C161  1  0.62523359  0.44022667  0.83339547  1.0
  C  C162  1  0.54842282  0.45717358  0.86405381  1.0
  C  C163  1  0.57005959  0.40144208  0.77190802  1.0
  C  C164  1  0.44385359  0.38051416  0.74337553  1.0
  C  C165  1  0.23678221  0.37420496  0.74755092  1.0
  C  C166  1  0.16913082  0.38957404  0.77931455  1.0
  C  C167  1  0.08789607  0.35290901  0.71925969  1.0
  N  N168  1  0.43520828  0.07383737  0.56990631  1.0
  N  N169  1  0.70619283  0.92354925  0.41899641  1.0
  N  N170  1  0.86565599  0.43016149  0.50409120  1.0
  N  N171  1  0.28802873  0.58095865  0.50445620  1.0
  N  N172  1  0.36118164  0.49609458  0.92615517  1.0
  N  N173  1  0.78350913  0.49544547  0.07640518  1.0
  O  O174  1  0.92381253  0.72425168  0.37922712  1.0
  O  O175  1  0.66799714  0.68899658  0.34578020  1.0
  O  O176  1  0.31348841  0.71307909  0.34572820  1.0
  O  O177  1  0.19069710  0.27566452  0.62059124  1.0
  O  O178  1  0.44570620  0.31077709  0.65439835  1.0
  O  O179  1  0.80186874  0.28695913  0.65407977  1.0
  O  O180  1  0.15880248  0.09936655  0.56742024  1.0
  O  O181  1  0.97773846  0.89758441  0.42262362  1.0
  O  O182  1  0.54423256  0.62078727  0.34490952  1.0
  O  O183  1  0.32191639  0.65420888  0.34307173  1.0
  O  O184  1  0.96729465  0.65426177  0.36726492  1.0
  O  O185  1  0.57060072  0.37941418  0.65519117  1.0
  O  O186  1  0.79154665  0.34560706  0.65652049  1.0
  O  O187  1  0.14826765  0.34590218  0.63298933  1.0
  O  O188  1  0.59207971  0.43264180  0.53220316  1.0
  O  O189  1  0.55556026  0.57735603  0.47475888  1.0
  O  O190  1  0.19963294  0.65509114  0.27573447  1.0
  O  O191  1  0.97891702  0.65689231  0.31097131  1.0
  O  O192  1  0.60032099  0.63274663  0.28685795  1.0
  O  O193  1  0.91497188  0.34490481  0.72435039  1.0
  O  O194  1  0.13505914  0.34350886  0.68922068  1.0
  O  O195  1  0.51509183  0.36702809  0.71306402  1.0
  O  O196  1  0.05937851  0.46791674  0.90070719  1.0
  O  O197  1  0.08124790  0.52494318  0.10244076  1.0
