# generated using pymatgen
data_Zn2H21C36Br3N10
_symmetry_space_group_name_H-M   'P 1'
_cell_length_a   18.77676617
_cell_length_b   19.41992499
_cell_length_c   20.70776953
_cell_angle_alpha   110.14414799
_cell_angle_beta   99.97928480
_cell_angle_gamma   113.68109018
_symmetry_Int_Tables_number   1
_chemical_formula_structural   Zn2H21C36Br3N10
_chemical_formula_sum   'Zn4 H42 C72 Br6 N20'
_cell_volume   6050.71721895
_cell_formula_units_Z   2
loop_
 _symmetry_equiv_pos_site_id
 _symmetry_equiv_pos_as_xyz
  1  'x, y, z'
loop_
 _atom_site_type_symbol
 _atom_site_label
 _atom_site_symmetry_multiplicity
 _atom_site_fract_x
 _atom_site_fract_y
 _atom_site_fract_z
 _atom_site_occupancy
  Zn  Zn0  1  0.58793104  0.59606735  0.46437479  1.0
  Zn  Zn1  1  0.37403076  0.40027071  0.50031507  1.0
  Zn  Zn2  1  0.47279816  0.60728069  0.57062449  1.0
  Zn  Zn3  1  0.47492848  0.39138656  0.38341637  1.0
  H  H4  1  0.43192410  0.65170900  0.73145528  1.0
  H  H5  1  0.60759580  0.34317152  0.30897217  1.0
  H  H6  1  0.29966800  0.37788747  0.62713394  1.0
  H  H7  1  0.74818688  0.61676293  0.41138617  1.0
  H  H8  1  0.62087390  0.37753714  0.46458238  1.0
  H  H9  1  0.58961096  0.64535144  0.71625224  1.0
  H  H10  1  0.48150040  0.63892699  0.36076381  1.0
  H  H11  1  0.21906237  0.35582600  0.36364369  1.0
  H  H12  1  0.33155925  0.21277386  0.24231740  1.0
  H  H13  1  0.33729328  0.36486501  0.24057133  1.0
  H  H14  1  0.33849354  0.62949206  0.46980246  1.0
  H  H15  1  0.84316644  0.33711577  0.25087913  1.0
  H  H16  1  0.71671757  0.34101157  0.26312868  1.0
  H  H17  1  0.86458226  0.61091452  0.40147850  1.0
  H  H18  1  0.99029254  0.60662283  0.38897965  1.0
  H  H19  1  0.07174421  0.58660856  0.31869926  1.0
  H  H20  1  0.95993805  0.35028007  0.32848400  1.0
  H  H21  1  0.59753783  0.18609425  0.66270560  1.0
  H  H22  1  0.58657458  0.30811811  0.66135649  1.0
  H  H23  1  0.59336159  0.23360594  0.44200776  1.0
  H  H24  1  0.60968681  0.11476011  0.44568168  1.0
  H  H25  1  0.71676113  0.09065676  0.54119296  1.0
  H  H26  1  0.70886570  0.95757660  0.53319580  1.0
  H  H27  1  0.46282659  0.87463809  0.54399732  1.0
  H  H28  1  0.42872307  0.64150662  0.84918757  1.0
  H  H29  1  0.39837126  0.62996727  0.95837035  1.0
  H  H30  1  0.22874575  0.38475305  0.70857769  1.0
  H  H31  1  0.31025401  0.37938554  0.13114476  1.0
  H  H32  1  0.10122898  0.96253811  0.05213605  1.0
  H  H33  1  0.97839767  0.89773992  0.84181647  1.0
  H  H34  1  0.86783028  0.79346681  0.71848145  1.0
  H  H35  1  0.80849416  0.80805861  0.94626041  1.0
  H  H36  1  0.94703453  0.04957579  0.14328479  1.0
  H  H37  1  0.69907286  0.69804933  0.82349243  1.0
  H  H38  1  0.49921335  0.80035964  0.60498448  1.0
  H  H39  1  0.09752316  0.36222853  0.36378148  1.0
  H  H40  1  0.36747637  0.66014802  0.15093955  1.0
  H  H41  1  0.39655492  0.64378909  0.26502737  1.0
  H  H42  1  0.27792438  0.39623857  0.01817183  1.0
  H  H43  1  0.20235411  0.37273988  0.81888375  1.0
  H  H44  1  0.22203414  0.06497693  0.17064391  1.0
  H  H45  1  0.06888324  0.15692796  0.26024398  1.0
  C  C46  1  0.70693619  0.65216954  0.61656907  1.0
  C  C47  1  0.49923155  0.35472106  0.55990292  1.0
  C  C48  1  0.40368599  0.58425546  0.69606008  1.0
  C  C49  1  0.63128930  0.41090612  0.33728303  1.0
  C  C50  1  0.33476399  0.44470183  0.64223806  1.0
  C  C51  1  0.70304311  0.55024945  0.38963728  1.0
  C  C52  1  0.57709992  0.37447330  0.49308473  1.0
  C  C53  1  0.62083279  0.64163974  0.67665867  1.0
  C  C54  1  0.70682233  0.67881724  0.68936603  1.0
  C  C55  1  0.56038436  0.33699881  0.53984385  1.0
  C  C56  1  0.35432727  0.51544373  0.70704949  1.0
  C  C57  1  0.70839398  0.47840116  0.35043728  1.0
  C  C58  1  0.45252385  0.57101889  0.34102911  1.0
  C  C59  1  0.25936302  0.42362598  0.39728832  1.0
  C  C60  1  0.53282987  0.78293318  0.57060187  1.0
  C  C61  1  0.31065270  0.22480356  0.28871213  1.0
  C  C62  1  0.24125636  0.22888214  0.36335817  1.0
  C  C63  1  0.60911166  0.77582855  0.50230672  1.0
  C  C64  1  0.37987007  0.43119686  0.27916058  1.0
  C  C65  1  0.32048102  0.56335613  0.45084417  1.0
  C  C66  1  0.39119485  0.50440888  0.27249937  1.0
  C  C67  1  0.24565922  0.49000000  0.39798265  1.0
  C  C68  1  0.57791408  0.82742950  0.53693011  1.0
  C  C69  1  0.22922587  0.18534049  0.28859766  1.0
  C  C70  1  0.84818726  0.39746252  0.28421682  1.0
  C  C71  1  0.77663599  0.39978754  0.29114954  1.0
  C  C72  1  0.78052222  0.47605086  0.33463708  1.0
  C  C73  1  0.85872769  0.55050176  0.36707564  1.0
  C  C74  1  0.93004141  0.54828899  0.35974249  1.0
  C  C75  1  0.92694774  0.47140030  0.31991039  1.0
  C  C76  1  0.07661824  0.53689543  0.32876987  1.0
  C  C77  1  0.15414276  0.54183663  0.34705587  1.0
  C  C78  1  0.16559825  0.48145367  0.36341314  1.0
  C  C79  1  0.09177207  0.41059623  0.35177683  1.0
  C  C80  1  0.01395005  0.40392610  0.33217102  1.0
  C  C81  1  0.00533927  0.46943280  0.32405300  1.0
  C  C82  1  0.59757498  0.19717526  0.61453587  1.0
  C  C83  1  0.59074169  0.26558937  0.61349949  1.0
  C  C84  1  0.58577509  0.27823191  0.55033718  1.0
  C  C85  1  0.59673613  0.22502658  0.49159158  1.0
  C  C86  1  0.60535437  0.15770190  0.49332916  1.0
  C  C87  1  0.60183489  0.14038498  0.55346934  1.0
  C  C88  1  0.66109639  0.04297318  0.54204848  1.0
  C  C89  1  0.65661102  0.96794529  0.53731014  1.0
  C  C90  1  0.58581070  0.90637744  0.53928369  1.0
  C  C91  1  0.51996875  0.92240898  0.54524826  1.0
  C  C92  1  0.52593634  0.99806954  0.55076231  1.0
  C  C93  1  0.59671820  0.06093790  0.54976113  1.0
  C  C94  1  0.35828196  0.51099035  0.20701583  1.0
  C  C95  1  0.32106214  0.44088058  0.13616118  1.0
  C  C96  1  0.30305349  0.44958655  0.07265394  1.0
  C  C97  1  0.32233113  0.52976180  0.07764029  1.0
  C  C98  1  0.35415753  0.59874092  0.14774372  1.0
  C  C99  1  0.37083219  0.58922989  0.21117165  1.0
  C  C100  1  0.36100958  0.57718099  0.90315024  1.0
  C  C101  1  0.37727101  0.58311152  0.84181633  1.0
  C  C102  1  0.29849384  0.50040391  0.89537846  1.0
  C  C103  1  0.33169634  0.51353552  0.77063488  1.0
  C  C104  1  0.26644780  0.43868772  0.76320785  1.0
  C  C105  1  0.25076903  0.43175074  0.82437993  1.0
  C  C106  1  0.77450214  0.73779657  0.76112326  1.0
  C  C107  1  0.75954982  0.74298687  0.82687586  1.0
  C  C108  1  0.82026493  0.80376534  0.89570258  1.0
  C  C109  1  0.89960718  0.86043765  0.90119199  1.0
  C  C110  1  0.91630288  0.85398941  0.83654533  1.0
  C  C111  1  0.85441909  0.79485839  0.76777766  1.0
  C  C112  1  0.09545046  0.00570997  0.09830478  1.0
  C  C113  1  0.16237315  0.06335091  0.16408901  1.0
  C  C114  1  0.01760164  0.00139860  0.09028534  1.0
  C  C115  1  0.15473582  0.11976271  0.22344399  1.0
  C  C116  1  0.07608157  0.11357080  0.21537941  1.0
  C  C117  1  0.00796516  0.05416817  0.15008437  1.0
  Br  Br118  1  0.79675480  0.67003694  0.58330244  1.0
  Br  Br119  1  0.16431992  0.21441546  0.41178881  1.0
  Br  Br120  1  0.67204579  0.78582381  0.44113927  1.0
  Br  Br121  1  0.43880948  0.31963055  0.61669536  1.0
  Br  Br122  1  0.24547339  0.63573801  0.34928345  1.0
  Br  Br123  1  0.43060923  0.01064088  0.55458549  1.0
  N  N124  1  0.62881097  0.60549347  0.56620337  1.0
  N  N125  1  0.48074982  0.39750276  0.52711100  1.0
  N  N126  1  0.41231902  0.55630273  0.63018135  1.0
  N  N127  1  0.58472929  0.44052115  0.36674107  1.0
  N  N128  1  0.36960617  0.46926803  0.59707418  1.0
  N  N129  1  0.62974617  0.52744411  0.39961857  1.0
  N  N130  1  0.52895800  0.40962577  0.48536561  1.0
  N  N131  1  0.57539383  0.59925810  0.60378873  1.0
  N  N132  1  0.47626272  0.53941397  0.38365058  1.0
  N  N133  1  0.33530959  0.45529171  0.44657529  1.0
  N  N134  1  0.53731110  0.71220241  0.55717026  1.0
  N  N135  1  0.36498362  0.28587891  0.35664566  1.0
  N  N136  1  0.32161808  0.28833618  0.40374296  1.0
  N  N137  1  0.58485618  0.70751131  0.51410725  1.0
  N  N138  1  0.43140604  0.45348465  0.34559771  1.0
  N  N139  1  0.37249751  0.54109558  0.47944793  1.0
  N  N140  1  0.32081250  0.54807192  0.01748017  1.0
  N  N141  1  0.28569981  0.48360347  0.95448945  1.0
  N  N142  1  0.96649375  0.92261266  0.96770493  1.0
  N  N143  1  0.94731299  0.94451098  0.02439617  1.0
