# generated using pymatgen
data_ZnH10C12(NO)2
_symmetry_space_group_name_H-M   'P 1'
_cell_length_a   13.86142802
_cell_length_b   18.13243748
_cell_length_c   18.13161078
_cell_angle_alpha   81.68633288
_cell_angle_beta   67.53045897
_cell_angle_gamma   67.52533951
_symmetry_Int_Tables_number   1
_chemical_formula_structural   ZnH10C12(NO)2
_chemical_formula_sum   'Zn8 H80 C96 N16 O16'
_cell_volume   3891.39781805
_cell_formula_units_Z   8
loop_
 _symmetry_equiv_pos_site_id
 _symmetry_equiv_pos_as_xyz
  1  'x, y, z'
loop_
 _atom_site_type_symbol
 _atom_site_label
 _atom_site_symmetry_multiplicity
 _atom_site_fract_x
 _atom_site_fract_y
 _atom_site_fract_z
 _atom_site_occupancy
  Zn  Zn0  1  0.60433331  0.28278836  0.26536330  1.0
  Zn  Zn1  1  0.89602053  0.23457149  0.21707631  1.0
  Zn  Zn2  1  0.34752024  0.26536961  0.28278144  1.0
  Zn  Zn3  1  0.15233632  0.21706594  0.23456578  1.0
  Zn  Zn4  1  0.39566613  0.71721647  0.73463312  1.0
  Zn  Zn5  1  0.10397992  0.76543453  0.78292901  1.0
  Zn  Zn6  1  0.65247787  0.73463163  0.71721811  1.0
  Zn  Zn7  1  0.84765853  0.78292934  0.76543395  1.0
  H  H8  1  0.57132803  0.47686454  0.12700495  1.0
  H  H9  1  0.57031389  0.58144090  0.02142227  1.0
  H  H10  1  0.60380275  0.58725852  0.79180941  1.0
  H  H11  1  0.51127825  0.63489608  0.88427484  1.0
  H  H12  1  0.60754284  0.53582613  0.88268766  1.0
  H  H13  1  0.75613484  0.16925759  0.04774881  1.0
  H  H14  1  0.86189716  0.06425302  0.94232270  1.0
  H  H15  1  0.09427232  0.84771115  0.91087666  1.0
  H  H16  1  0.99307620  0.92545156  0.97971807  1.0
  H  H17  1  0.05673482  0.94840896  0.87856277  1.0
  H  H18  1  0.92889857  0.37288506  0.02277097  1.0
  H  H19  1  0.92958880  0.47883349  0.91858441  1.0
  H  H20  1  0.89681276  0.70828985  0.91285879  1.0
  H  H21  1  0.98890542  0.61587678  0.86506142  1.0
  H  H22  1  0.89294534  0.61742656  0.96418875  1.0
  H  H23  1  0.74376020  0.45254544  0.33086936  1.0
  H  H24  1  0.63798860  0.55794873  0.43589190  1.0
  H  H25  1  0.40556468  0.58915847  0.65282648  1.0
  H  H26  1  0.50671022  0.52022380  0.57516411  1.0
  H  H27  1  0.44294347  0.62130352  0.55206166  1.0
  H  H28  1  0.32477236  0.12701609  0.47686590  1.0
  H  H29  1  0.32680681  0.02143786  0.58144037  1.0
  H  H30  1  0.51713429  0.79182266  0.58724648  1.0
  H  H31  1  0.46956283  0.88428898  0.63488675  1.0
  H  H32  1  0.47393709  0.88269936  0.53582755  1.0
  H  H33  1  0.52689781  0.04773736  0.16926174  1.0
  H  H34  1  0.63153911  0.94232508  0.06424582  1.0
  H  H35  1  0.64711923  0.91085562  0.84772347  1.0
  H  H36  1  0.60172633  0.97970209  0.92547108  1.0
  H  H37  1  0.61632798  0.87853357  0.94842439  1.0
  H  H38  1  0.17541999  0.02277747  0.37290102  1.0
  H  H39  1  0.17297578  0.91859000  0.47884465  1.0
  H  H40  1  0.98205479  0.91284990  0.70831042  1.0
  H  H41  1  0.03015703  0.86505394  0.61589403  1.0
  H  H42  1  0.02542223  0.96419480  0.61744379  1.0
  H  H43  1  0.97286663  0.33088170  0.45252565  1.0
  H  H44  1  0.86817935  0.43588251  0.55795693  1.0
  H  H45  1  0.85246139  0.65282262  0.58912827  1.0
  H  H46  1  0.89788783  0.57515773  0.52020410  1.0
  H  H47  1  0.88371672  0.55205481  0.62127576  1.0
  H  H48  1  0.42868556  0.52313073  0.87299146  1.0
  H  H49  1  0.42969585  0.41854482  0.97856675  1.0
  H  H50  1  0.39618444  0.41275346  0.20817855  1.0
  H  H51  1  0.48871854  0.36511709  0.11571728  1.0
  H  H52  1  0.39244084  0.46417570  0.11730116  1.0
  H  H53  1  0.24386535  0.83074129  0.95226867  1.0
  H  H54  1  0.13809954  0.93576195  0.05767580  1.0
  H  H55  1  0.90570130  0.15225969  0.08915278  1.0
  H  H56  1  0.00689391  0.07452464  0.02030224  1.0
  H  H57  1  0.94329664  0.05156187  0.12146008  1.0
  H  H58  1  0.07111867  0.62710603  0.97722276  1.0
  H  H59  1  0.07041827  0.52115282  0.08140200  1.0
  H  H60  1  0.10319192  0.29169051  0.08714685  1.0
  H  H61  1  0.01109806  0.38410596  0.13494091  1.0
  H  H62  1  0.10704570  0.38255439  0.03580538  1.0
  H  H63  1  0.25625473  0.54746595  0.66912980  1.0
  H  H64  1  0.36201996  0.44204894  0.56411832  1.0
  H  H65  1  0.59442228  0.41086962  0.34716193  1.0
  H  H66  1  0.49326618  0.47979892  0.42483152  1.0
  H  H67  1  0.55707243  0.37871846  0.44793181  1.0
  H  H68  1  0.67520346  0.87299530  0.52313322  1.0
  H  H69  1  0.67317477  0.97857293  0.41855548  1.0
  H  H70  1  0.48285421  0.20817441  0.41275872  1.0
  H  H71  1  0.53044322  0.11570272  0.36511848  1.0
  H  H72  1  0.52607042  0.11729413  0.46417808  1.0
  H  H73  1  0.47312078  0.95224181  0.83074659  1.0
  H  H74  1  0.36846966  0.05767198  0.93574623  1.0
  H  H75  1  0.35285519  0.08912594  0.15229092  1.0
  H  H76  1  0.39824264  0.02028425  0.07455469  1.0
  H  H77  1  0.38370084  0.12143785  0.05159970  1.0
  H  H78  1  0.82454982  0.97724288  0.62710352  1.0
  H  H79  1  0.82699144  0.08142617  0.52116016  1.0
  H  H80  1  0.01794484  0.08715793  0.29170922  1.0
  H  H81  1  0.96982353  0.13495449  0.38412619  1.0
  H  H82  1  0.97455690  0.03581959  0.38257431  1.0
  H  H83  1  0.02715027  0.66912252  0.54746461  1.0
  H  H84  1  0.13183265  0.56410979  0.44204535  1.0
  H  H85  1  0.14754439  0.34718338  0.41085067  1.0
  H  H86  1  0.10210799  0.42484171  0.47978370  1.0
  H  H87  1  0.11629993  0.44795299  0.37870963  1.0
  C  C88  1  0.64914410  0.47751601  0.08048179  1.0
  C  C89  1  0.64910335  0.53567560  0.02143150  1.0
  C  C90  1  0.68250778  0.62448650  0.85367852  1.0
  C  C91  1  0.59680635  0.59410763  0.85305158  1.0
  C  C92  1  0.73021731  0.11889597  0.05087914  1.0
  C  C93  1  0.78905263  0.06001621  0.99239337  1.0
  C  C94  1  0.93308341  0.89513793  0.90000247  1.0
  C  C95  1  0.02397098  0.90463421  0.91813999  1.0
  C  C96  1  0.85099111  0.41942039  0.02230294  1.0
  C  C97  1  0.85088214  0.47869220  0.96437601  1.0
  C  C98  1  0.81747921  0.64669512  0.87584236  1.0
  C  C99  1  0.90348153  0.64715774  0.90598323  1.0
  C  C100  1  0.76962416  0.44933883  0.38127287  1.0
  C  C101  1  0.71077094  0.50782195  0.44016879  1.0
  C  C102  1  0.56673701  0.60011124  0.60514318  1.0
  C  C103  1  0.47581002  0.58184548  0.59583187  1.0
  C  C104  1  0.29283742  0.08049332  0.47751205  1.0
  C  C105  1  0.29377337  0.02144418  0.53567437  1.0
  C  C106  1  0.33933997  0.85368412  0.62447624  1.0
  C  C107  1  0.45603832  0.85306270  0.59410612  1.0
  C  C108  1  0.60003734  0.05086558  0.11889124  1.0
  C  C109  1  0.65856744  0.99239196  0.06000375  1.0
  C  C110  1  0.77177725  0.90000357  0.89513484  1.0
  C  C111  1  0.65325312  0.91812639  0.90464313  1.0
  C  C112  1  0.20727632  0.02230041  0.41941822  1.0
  C  C113  1  0.20604051  0.96437973  0.47869422  1.0
  C  C114  1  0.15999197  0.87584372  0.64670545  1.0
  C  C115  1  0.04337896  0.90598008  0.64717073  1.0
  C  C116  1  0.89979750  0.38127989  0.44932983  1.0
  C  C117  1  0.84125242  0.44016308  0.50782459  1.0
  C  C118  1  0.72801139  0.60513426  0.60011247  1.0
  C  C119  1  0.84651379  0.59582872  0.58182871  1.0
  C  C120  1  0.35085959  0.52247866  0.91950880  1.0
  C  C121  1  0.35090612  0.46431369  0.97855100  1.0
  C  C122  1  0.31750145  0.37551115  0.14631055  1.0
  C  C123  1  0.40319189  0.40589480  0.14693838  1.0
  C  C124  1  0.26976972  0.88110887  0.94913748  1.0
  C  C125  1  0.21095296  0.93999519  0.00761240  1.0
  C  C126  1  0.06690701  0.10486153  0.09999961  1.0
  C  C127  1  0.97602397  0.09534855  0.08187699  1.0
  C  C128  1  0.14901736  0.58057726  0.97769077  1.0
  C  C129  1  0.14912322  0.52130068  0.03561270  1.0
  C  C130  1  0.18253250  0.35328821  0.12414864  1.0
  C  C131  1  0.09652206  0.35282321  0.09401768  1.0
  C  C132  1  0.23038691  0.55066778  0.61872703  1.0
  C  C133  1  0.28923972  0.49217930  0.55983698  1.0
  C  C134  1  0.43326693  0.39989239  0.39485319  1.0
  C  C135  1  0.52418529  0.41817068  0.40416135  1.0
  C  C136  1  0.70714544  0.91951807  0.52248554  1.0
  C  C137  1  0.70621507  0.97856541  0.46432184  1.0
  C  C138  1  0.66066551  0.14631950  0.37551361  1.0
  C  C139  1  0.54396719  0.14693318  0.40589589  1.0
  C  C140  1  0.39996365  0.94912671  0.88110105  1.0
  C  C141  1  0.34145693  0.00760509  0.93998039  1.0
  C  C142  1  0.22822580  0.10000184  0.10486208  1.0
  C  C143  1  0.34674705  0.08185994  0.09536958  1.0
  C  C144  1  0.79270073  0.97770860  0.58058640  1.0
  C  C145  1  0.79393878  0.03563107  0.52131003  1.0
  C  C146  1  0.84000311  0.12416530  0.35330653  1.0
  C  C147  1  0.95661272  0.09402953  0.35284768  1.0
  C  C148  1  0.10022103  0.61871956  0.55066340  1.0
  C  C149  1  0.15876631  0.55982981  0.49217617  1.0
  C  C150  1  0.27199267  0.39486757  0.39988523  1.0
  C  C151  1  0.15349186  0.40417609  0.41815926  1.0
  C  C152  1  0.75016235  0.35584842  0.14390995  1.0
  C  C153  1  0.75008411  0.41852483  0.08124844  1.0
  C  C154  1  0.74997390  0.53775210  0.96246478  1.0
  C  C155  1  0.74996106  0.59952120  0.90089508  1.0
  C  C156  1  0.25005888  0.14391120  0.35584708  1.0
  C  C157  1  0.25010749  0.08125989  0.41853074  1.0
  C  C158  1  0.24979330  0.96247807  0.53775664  1.0
  C  C159  1  0.24961812  0.90090253  0.59952326  1.0
  C  C160  1  0.24984472  0.64415520  0.85608771  1.0
  C  C161  1  0.24992434  0.58147282  0.91874142  1.0
  C  C162  1  0.25003265  0.46223839  0.03752227  1.0
  C  C163  1  0.25005345  0.40046272  0.09908783  1.0
  C  C164  1  0.74991322  0.85610138  0.64415296  1.0
  C  C165  1  0.74985828  0.91875449  0.58147476  1.0
  C  C166  1  0.75019008  0.03753392  0.46224622  1.0
  C  C167  1  0.75037684  0.09910349  0.40047927  1.0
  C  C168  1  0.57247008  0.17754247  0.17755062  1.0
  C  C169  1  0.63515810  0.11484859  0.11486228  1.0
  C  C170  1  0.75441341  0.99560021  0.99558713  1.0
  C  C171  1  0.81614434  0.93386875  0.93385113  1.0
  C  C172  1  0.92741399  0.32260555  0.32260264  1.0
  C  C173  1  0.86468654  0.38533169  0.38532214  1.0
  C  C174  1  0.74540183  0.50459061  0.50460631  1.0
  C  C175  1  0.68366542  0.56632206  0.56633952  1.0
  C  C176  1  0.42754902  0.82244208  0.82246835  1.0
  C  C177  1  0.36484376  0.88514074  0.88515831  1.0
  C  C178  1  0.24560793  0.00440759  0.00439853  1.0
  C  C179  1  0.18386229  0.06615277  0.06613024  1.0
  C  C180  1  0.07260811  0.67739926  0.67739096  1.0
  C  C181  1  0.13532355  0.61467373  0.61467436  1.0
  C  C182  1  0.25460485  0.49539990  0.49540497  1.0
  C  C183  1  0.31633692  0.43367083  0.43366883  1.0
  N  N184  1  0.70924968  0.68233440  0.80363170  1.0
  N  N185  1  0.95561825  0.84175903  0.84546054  1.0
  N  N186  1  0.79080373  0.69663273  0.81790483  1.0
  N  N187  1  0.54419178  0.65468800  0.65849249  1.0
  N  N188  1  0.30480248  0.80364324  0.68233073  1.0
  N  N189  1  0.85716453  0.84546132  0.84175597  1.0
  N  N190  1  0.19467506  0.81790911  0.69663576  1.0
  N  N191  1  0.64263966  0.65849180  0.65468383  1.0
  N  N192  1  0.29076405  0.31766206  0.19635567  1.0
  N  N193  1  0.04437139  0.15824043  0.15454232  1.0
  N  N194  1  0.20920931  0.30335896  0.18208785  1.0
  N  N195  1  0.45581618  0.34531384  0.34150517  1.0
  N  N196  1  0.69519263  0.19636875  0.31767364  1.0
  N  N197  1  0.14282703  0.15454828  0.15823766  1.0
  N  N198  1  0.80531934  0.18209811  0.30337338  1.0
  N  N199  1  0.35736777  0.34151422  0.34531117  1.0
  O  O200  1  0.66068747  0.36728119  0.20532829  1.0
  O  O201  1  0.60867755  0.23417673  0.17160977  1.0
  O  O202  1  0.83968447  0.29448647  0.13256576  1.0
  O  O203  1  0.89095641  0.32834716  0.26614118  1.0
  O  O204  1  0.26669892  0.20532776  0.36726402  1.0
  O  O205  1  0.48555641  0.17161017  0.23416780  1.0
  O  O206  1  0.23326602  0.13256122  0.29447616  1.0
  O  O207  1  0.01458194  0.26615480  0.32835505  1.0
  O  O208  1  0.33931927  0.63272303  0.79466166  1.0
  O  O209  1  0.39131066  0.76582572  0.82840355  1.0
  O  O210  1  0.16031863  0.70551418  0.86743185  1.0
  O  O211  1  0.10905758  0.67165826  0.73385417  1.0
  O  O212  1  0.73328228  0.79468064  0.63272954  1.0
  O  O213  1  0.51445117  0.82837674  0.76582333  1.0
  O  O214  1  0.76672694  0.86743464  0.70551963  1.0
  O  O215  1  0.98542826  0.73384883  0.67164223  1.0
