# generated using pymatgen
data_ZnH22C26NO6
_symmetry_space_group_name_H-M   'P 1'
_cell_length_a   13.87372756
_cell_length_b   15.37556506
_cell_length_c   19.69535514
_cell_angle_alpha   89.53774321
_cell_angle_beta   90.04168314
_cell_angle_gamma   89.98907727
_symmetry_Int_Tables_number   1
_chemical_formula_structural   ZnH22C26NO6
_chemical_formula_sum   'Zn2 H44 C52 N2 O12'
_cell_volume   4201.20434237
_cell_formula_units_Z   2
loop_
 _symmetry_equiv_pos_site_id
 _symmetry_equiv_pos_as_xyz
  1  'x, y, z'
loop_
 _atom_site_type_symbol
 _atom_site_label
 _atom_site_symmetry_multiplicity
 _atom_site_fract_x
 _atom_site_fract_y
 _atom_site_fract_z
 _atom_site_occupancy
  Zn  Zn0  1  0.59516671  0.50053918  0.50012095  1.0
  Zn  Zn1  1  0.40096499  0.49968478  0.50007751  1.0
  H  H2  1  0.34609509  0.48855468  0.28237532  1.0
  H  H3  1  0.38799628  0.40289559  0.93788050  1.0
  H  H4  1  0.61490543  0.59379286  0.93693400  1.0
  H  H5  1  0.38820667  0.40240588  0.06317130  1.0
  H  H6  1  0.64667429  0.05896559  0.52192516  1.0
  H  H7  1  0.34760930  0.93928867  0.52746076  1.0
  H  H8  1  0.64606582  0.94014622  0.46754708  1.0
  H  H9  1  0.34768933  0.06227732  0.46309009  1.0
  H  H10  1  0.06827269  0.49482324  0.60985203  1.0
  H  H11  1  0.92779736  0.55079599  0.39712518  1.0
  H  H12  1  0.06814455  0.50507763  0.38999900  1.0
  H  H13  1  0.65419325  0.50022465  0.71678116  1.0
  H  H14  1  0.92812257  0.44872845  0.60267362  1.0
  H  H15  1  0.24842264  0.49335925  0.60453000  1.0
  H  H16  1  0.74764503  0.54666367  0.40160589  1.0
  H  H17  1  0.24832613  0.50662794  0.39544946  1.0
  H  H18  1  0.74795511  0.45321954  0.59841185  1.0
  H  H19  1  0.74975806  0.15270618  0.45688370  1.0
  H  H20  1  0.77202886  0.13781348  0.54561870  1.0
  H  H21  1  0.90321074  0.22652022  0.48803592  1.0
  H  H22  1  0.81498916  0.30651487  0.46599219  1.0
  H  H23  1  0.84351348  0.28601132  0.55283757  1.0
  H  H24  1  0.34546822  0.49646062  0.71795686  1.0
  H  H25  1  0.27597160  0.72225272  0.44893510  1.0
  H  H26  1  0.24328061  0.83292437  0.46528169  1.0
  H  H27  1  0.14389956  0.78435022  0.56526633  1.0
  H  H28  1  0.10471821  0.73076918  0.49009847  1.0
  H  H29  1  0.17796312  0.67462813  0.55055040  1.0
  H  H30  1  0.74641539  0.84769866  0.53787080  1.0
  H  H31  1  0.77351784  0.86057474  0.44963626  1.0
  H  H32  1  0.90086551  0.77268726  0.51256006  1.0
  H  H33  1  0.81107825  0.69316739  0.53222825  1.0
  H  H34  1  0.84542997  0.71251648  0.44630957  1.0
  H  H35  1  0.65365106  0.51233161  0.28338879  1.0
  H  H36  1  0.27801742  0.27459426  0.54952723  1.0
  H  H37  1  0.24587945  0.16454874  0.53030443  1.0
  H  H38  1  0.14249429  0.21741109  0.43345400  1.0
  H  H39  1  0.10523339  0.26597888  0.51113439  1.0
  H  H40  1  0.17535745  0.32657288  0.45156489  1.0
  H  H41  1  0.34591920  0.48891729  0.15588289  1.0
  H  H42  1  0.65604451  0.50220131  0.84335625  1.0
  H  H43  1  0.34563978  0.49584415  0.84449175  1.0
  H  H44  1  0.65576183  0.50819077  0.15694671  1.0
  H  H45  1  0.61458753  0.59387112  0.06221620  1.0
  C  C46  1  0.49705027  0.33163627  0.49631426  1.0
  C  C47  1  0.49673337  0.95213756  0.49587994  1.0
  C  C48  1  0.10412459  0.49604346  0.56071763  1.0
  C  C49  1  0.89192074  0.52701297  0.44276743  1.0
  C  C50  1  0.10405637  0.50385641  0.43915896  1.0
  C  C51  1  0.89208702  0.47259084  0.55708015  1.0
  C  C52  1  0.20418249  0.49578008  0.55873429  1.0
  C  C53  1  0.79186193  0.52596131  0.44461139  1.0
  C  C54  1  0.20413292  0.50414206  0.44120831  1.0
  C  C55  1  0.79203384  0.47384241  0.55535023  1.0
  C  C56  1  0.05131049  0.49991139  0.49992092  1.0
  C  C57  1  0.49700086  0.66866227  0.50167931  1.0
  C  C58  1  0.94481017  0.49982723  0.49991659  1.0
  C  C59  1  0.49905006  0.49659008  0.63355261  1.0
  C  C60  1  0.49892249  0.50316831  0.36666461  1.0
  C  C61  1  0.41344973  0.49334149  0.25418686  1.0
  C  C62  1  0.58702304  0.49975345  0.74542675  1.0
  C  C63  1  0.41310801  0.49658101  0.74608372  1.0
  C  C64  1  0.58667801  0.50732133  0.25476171  1.0
  C  C65  1  0.41391662  0.49253413  0.18360645  1.0
  C  C66  1  0.58760208  0.50122059  0.81602711  1.0
  C  C67  1  0.41363498  0.49610546  0.81668331  1.0
  C  C68  1  0.58352860  0.18536059  0.50666963  1.0
  C  C69  1  0.58734016  0.50570294  0.18416979  1.0
  C  C70  1  0.50088636  0.49872350  0.14718714  1.0
  C  C71  1  0.50091479  0.49865493  0.85300738  1.0
  C  C72  1  0.49972747  0.50126481  0.29062258  1.0
  C  C73  1  0.49976010  0.49760988  0.70961315  1.0
  C  C74  1  0.56584046  0.55064359  0.03512167  1.0
  C  C75  1  0.43687239  0.44596990  0.96504564  1.0
  C  C76  1  0.56595731  0.55066033  0.96449251  1.0
  C  C77  1  0.43696599  0.44574959  0.03566333  1.0
  C  C78  1  0.50131637  0.49847340  0.92792022  1.0
  C  C79  1  0.41395442  0.81480221  0.51477922  1.0
  C  C80  1  0.50130210  0.49824854  0.07228377  1.0
  C  C81  1  0.58182630  0.09450069  0.50780123  1.0
  C  C82  1  0.41329490  0.90557669  0.51263231  1.0
  C  C83  1  0.58124913  0.90526593  0.48266735  1.0
  C  C84  1  0.41358570  0.09539855  0.47833196  1.0
  C  C85  1  0.75607388  0.18675747  0.50581856  1.0
  C  C86  1  0.83412703  0.25563972  0.50305059  1.0
  C  C87  1  0.25463173  0.76828501  0.48887921  1.0
  C  C88  1  0.16500256  0.73781805  0.52593410  1.0
  C  C89  1  0.75519598  0.81257623  0.48961365  1.0
  C  C90  1  0.58297891  0.81448183  0.48604025  1.0
  C  C91  1  0.83277019  0.74352751  0.49547325  1.0
  C  C92  1  0.25565275  0.23042505  0.50854849  1.0
  C  C93  1  0.16431317  0.26185082  0.47407476  1.0
  C  C94  1  0.41409950  0.18619350  0.47880929  1.0
  C  C95  1  0.49818483  0.23399460  0.49406894  1.0
  C  C96  1  0.49794407  0.76637359  0.50053935  1.0
  C  C97  1  0.49702106  0.04822409  0.49401646  1.0
  N  N98  1  0.25315104  0.49993907  0.49999142  1.0
  N  N99  1  0.74296973  0.50002371  0.50002104  1.0
  O  O100  1  0.57262190  0.37204699  0.47748344  1.0
  O  O101  1  0.33173981  0.77341025  0.53769268  1.0
  O  O102  1  0.66611003  0.76948879  0.47388894  1.0
  O  O103  1  0.33107789  0.22845658  0.45832607  1.0
  O  O104  1  0.42015229  0.63113642  0.48179196  1.0
  O  O105  1  0.57267268  0.62933748  0.52177780  1.0
  O  O106  1  0.42027953  0.36803727  0.51751325  1.0
  O  O107  1  0.57764023  0.47687421  0.60388028  1.0
  O  O108  1  0.42001435  0.48323228  0.39615616  1.0
  O  O109  1  0.57701642  0.52453172  0.39635518  1.0
  O  O110  1  0.41978865  0.51556423  0.60408537  1.0
  O  O111  1  0.66655658  0.23001080  0.51971033  1.0
