# generated using pymatgen
data_Hf3H12C22(NO8)2
_symmetry_space_group_name_H-M   'P 1'
_cell_length_a   13.02839487
_cell_length_b   16.49260406
_cell_length_c   16.56167786
_cell_angle_alpha   80.11096781
_cell_angle_beta   66.87284499
_cell_angle_gamma   66.79862403
_symmetry_Int_Tables_number   1
_chemical_formula_structural   Hf3H12C22(NO8)2
_chemical_formula_sum   'Hf6 H24 C44 N4 O32'
_cell_volume   3007.37303067
_cell_formula_units_Z   2
loop_
 _symmetry_equiv_pos_site_id
 _symmetry_equiv_pos_as_xyz
  1  'x, y, z'
loop_
 _atom_site_type_symbol
 _atom_site_label
 _atom_site_symmetry_multiplicity
 _atom_site_fract_x
 _atom_site_fract_y
 _atom_site_fract_z
 _atom_site_occupancy
  Hf  Hf0  1  0.89838686  0.12176041  0.01156470  1.0
  Hf  Hf1  1  0.06192979  0.95185031  0.85718158  1.0
  Hf  Hf2  1  0.89725097  0.95887160  0.18083363  1.0
  Hf  Hf3  1  0.05441985  0.79160070  0.02518935  1.0
  Hf  Hf4  1  0.78656866  0.95722880  0.01780770  1.0
  Hf  Hf5  1  0.17055095  0.95420737  0.01863395  1.0
  H  H6  1  0.36554211  0.48373547  0.02239075  1.0
  H  H7  1  0.14141441  0.57370969  0.02093849  1.0
  H  H8  1  0.60940892  0.42969747  0.98150257  1.0
  H  H9  1  0.83383850  0.33885481  0.98131224  1.0
  H  H10  1  0.88773020  0.96811375  0.49059033  1.0
  H  H11  1  0.75875056  0.95527900  0.40086359  1.0
  H  H12  1  0.07815292  0.92717370  0.54065619  1.0
  H  H13  1  0.21366606  0.91403864  0.63370578  1.0
  H  H14  1  0.11545782  0.09490059  0.88112315  1.0
  H  H15  1  0.95925181  0.82451035  0.88869833  1.0
  H  H16  1  0.13033068  0.82029261  0.14780558  1.0
  H  H17  1  0.70082578  0.08807659  0.14747670  1.0
  H  H18  1  0.23757864  0.82921592  0.74787923  1.0
  H  H19  1  0.16069913  0.75981339  0.84604331  1.0
  H  H20  1  0.99695322  0.67615448  0.15113505  1.0
  H  H21  1  0.96741339  0.77838427  0.21774734  1.0
  H  H22  1  0.84084657  0.07911443  0.29310720  1.0
  H  H23  1  0.79879666  0.15196322  0.19060454  1.0
  H  H24  1  0.85436184  0.23588637  0.88934690  1.0
  H  H25  1  0.14776369  0.04861268  0.70114090  1.0
  H  H26  1  0.96893904  0.82418392  0.29772181  1.0
  H  H27  1  0.84897429  0.22989938  0.13771748  1.0
  H  H28  1  0.01743479  0.05065466  0.71826642  1.0
  H  H29  1  0.23858314  0.68388211  0.89843648  1.0
  C  C30  1  0.32697931  0.36550555  0.02060596  1.0
  C  C31  1  0.30321530  0.45575941  0.02165179  1.0
  C  C32  1  0.18680146  0.50280455  0.02148589  1.0
  C  C33  1  0.13703422  0.44208097  0.02055810  1.0
  C  C34  1  0.63852346  0.54640121  0.00141594  1.0
  C  C35  1  0.66779316  0.45687262  0.99021726  1.0
  C  C36  1  0.78343465  0.40925052  0.99188639  1.0
  C  C37  1  0.82669986  0.46915624  0.00484588  1.0
  C  C38  1  0.73551821  0.95921147  0.60834764  1.0
  C  C39  1  0.80065786  0.96169676  0.51834294  1.0
  C  C40  1  0.73491065  0.95472091  0.47144294  1.0
  C  C41  1  0.62809310  0.94783822  0.53217471  1.0
  C  C42  1  0.23055473  0.94092475  0.42573859  1.0
  C  C43  1  0.16669096  0.93091857  0.51473484  1.0
  C  C44  1  0.23674085  0.92542652  0.56335202  1.0
  C  C45  1  0.34456324  0.93297732  0.50477695  1.0
  C  C46  1  0.63277746  0.16152228  0.00999606  1.0
  C  C47  1  0.33237532  0.94735231  0.81335279  1.0
  C  C48  1  0.83020304  0.96590954  0.81162560  1.0
  C  C49  1  0.12595199  0.15630488  0.02537664  1.0
  C  C50  1  0.12078512  0.95661511  0.22505458  1.0
  C  C51  1  0.82929521  0.75072078  0.02822328  1.0
  C  C52  1  0.33002038  0.74720527  0.01105716  1.0
  C  C53  1  0.63591785  0.94910289  0.22241772  1.0
  C  C54  1  0.19931191  0.94813488  0.35293945  1.0
  C  C55  1  0.16569263  0.95413213  0.29217034  1.0
  C  C56  1  0.43292265  0.94549896  0.34695096  1.0
  C  C57  1  0.52558228  0.94651686  0.28918327  1.0
  C  C58  1  0.53689135  0.94849740  0.69004280  1.0
  C  C59  1  0.44484079  0.94615797  0.74782229  1.0
  C  C60  1  0.76191328  0.96354514  0.68079696  1.0
  C  C61  1  0.78811257  0.96706852  0.74304679  1.0
  C  C62  1  0.53122021  0.94044765  0.52215740  1.0
  C  C63  1  0.44310454  0.93496734  0.51690317  1.0
  C  C64  1  0.53563196  0.61852271  0.00374250  1.0
  C  C65  1  0.44292466  0.67954991  0.00553506  1.0
  C  C66  1  0.78404673  0.68451124  0.02758803  1.0
  C  C67  1  0.75222786  0.62703030  0.01980909  1.0
  C  C68  1  0.17154527  0.22247836  0.02601553  1.0
  C  C69  1  0.20419735  0.28295344  0.02287861  1.0
  C  C70  1  0.42924102  0.29262719  0.01764910  1.0
  C  C71  1  0.52093799  0.22957646  0.01329060  1.0
  C  C72  1  0.02780518  0.45257043  0.01709675  1.0
  C  C73  1  0.93431925  0.45823559  0.01150745  1.0
  N  N74  1  0.22326350  0.35714525  0.02087624  1.0
  N  N75  1  0.73749716  0.55405596  0.01060381  1.0
  N  N76  1  0.62832286  0.95068212  0.61671644  1.0
  N  N77  1  0.34105686  0.94163934  0.41965009  1.0
  O  O78  1  0.71413282  0.18870764  0.00550230  1.0
  O  O79  1  0.64135797  0.08118459  0.01273693  1.0
  O  O80  1  0.25449668  0.94755608  0.78389700  1.0
  O  O81  1  0.31939679  0.94888252  0.89310218  1.0
  O  O82  1  0.93403249  0.97179853  0.78537958  1.0
  O  O83  1  0.76490824  0.95726912  0.89072592  1.0
  O  O84  1  0.01650477  0.18459579  0.03324334  1.0
  O  O85  1  0.19858107  0.07619174  0.01552030  1.0
  O  O86  1  0.91624112  0.21342936  0.91476658  1.0
  O  O87  1  0.80027775  0.19767732  0.13761383  1.0
  O  O88  1  0.06829032  0.05772516  0.74529302  1.0
  O  O89  1  0.15459074  0.83588730  0.78154236  1.0
  O  O90  1  0.89772623  0.02478791  0.94680819  1.0
  O  O91  1  0.08467377  0.05108340  0.91843976  1.0
  O  O92  1  0.01320411  0.95728152  0.25313494  1.0
  O  O93  1  0.18977690  0.95656216  0.14538724  1.0
  O  O94  1  0.93418279  0.72228830  0.03217164  1.0
  O  O95  1  0.76323324  0.83103513  0.02312791  1.0
  O  O96  1  0.25087171  0.72098899  0.00809002  1.0
  O  O97  1  0.31664469  0.82666356  0.01953510  1.0
  O  O98  1  0.71558689  0.94716131  0.24972160  1.0
  O  O99  1  0.64237125  0.95425011  0.14287944  1.0
  O  O100  1  0.92060292  0.83124797  0.26292769  1.0
  O  O101  1  0.80330921  0.07477941  0.25442206  1.0
  O  O102  1  0.03709464  0.71708727  0.14388109  1.0
  O  O103  1  0.15691932  0.71389859  0.89930368  1.0
  O  O104  1  0.08569613  0.86052338  0.11289689  1.0
  O  O105  1  0.89657442  0.88914798  0.08733551  1.0
  O  O106  1  0.99466888  0.02246646  0.08314721  1.0
  O  O107  1  0.96477356  0.86091304  0.92598026  1.0
  O  O108  1  0.77946475  0.05163103  0.10969812  1.0
  O  O109  1  0.12680352  0.88641773  0.95194147  1.0
