# generated using pymatgen
data_Zn4H8C40Cl4O13F8
_symmetry_space_group_name_H-M   'P 1'
_cell_length_a   23.95966059
_cell_length_b   23.96001788
_cell_length_c   23.95829619
_cell_angle_alpha   66.60753142
_cell_angle_beta   72.45058487
_cell_angle_gamma   107.54624487
_symmetry_Int_Tables_number   1
_chemical_formula_structural   Zn4H8C40Cl4O13F8
_chemical_formula_sum   'Zn8 H16 C80 Cl8 O26 F16'
_cell_volume   10550.00899443
_cell_formula_units_Z   2
loop_
 _symmetry_equiv_pos_site_id
 _symmetry_equiv_pos_as_xyz
  1  'x, y, z'
loop_
 _atom_site_type_symbol
 _atom_site_label
 _atom_site_symmetry_multiplicity
 _atom_site_fract_x
 _atom_site_fract_y
 _atom_site_fract_z
 _atom_site_occupancy
  Zn  Zn0  1  0.05712553  0.09947369  0.45764164  1.0
  Zn  Zn1  1  0.05712513  0.95765146  0.48522084  1.0
  Zn  Zn2  1  0.94286850  0.95763917  0.59948747  1.0
  Zn  Zn3  1  0.94288664  0.98523795  0.45763698  1.0
  Zn  Zn4  1  0.94287638  0.40052800  0.04235552  1.0
  Zn  Zn5  1  0.05713332  0.54236045  0.90051138  1.0
  Zn  Zn6  1  0.94287483  0.54234938  0.01477464  1.0
  Zn  Zn7  1  0.05711277  0.51476522  0.04236355  1.0
  H  H8  1  0.92328333  0.20867764  0.90193180  1.0
  H  H9  1  0.07670340  0.40192878  0.70865077  1.0
  H  H10  1  0.92329083  0.09807240  0.79134599  1.0
  H  H11  1  0.07665784  0.29133658  0.59805203  1.0
  H  H12  1  0.07671986  0.67481694  0.21459181  1.0
  H  H13  1  0.92329520  0.71464348  0.17476346  1.0
  H  H14  1  0.07666423  0.78532876  0.32526465  1.0
  H  H15  1  0.92329187  0.82522276  0.28537081  1.0
  H  H16  1  0.61059565  0.20867348  0.21465112  1.0
  H  H17  1  0.61059239  0.40193442  0.17476267  1.0
  H  H18  1  0.38940999  0.09806692  0.32524483  1.0
  H  H19  1  0.38940417  0.29131379  0.28542366  1.0
  H  H20  1  0.38941461  0.71468140  0.70866265  1.0
  H  H21  1  0.38939712  0.67476084  0.90195294  1.0
  H  H22  1  0.61060590  0.82525012  0.59804175  1.0
  H  H23  1  0.61058456  0.78539390  0.79132064  1.0
  C  C24  1  0.18119332  0.09059007  0.40940488  1.0
  C  C25  1  0.99999755  0.86307130  0.63692987  1.0
  C  C26  1  0.99999021  0.09058710  0.59060150  1.0
  C  C27  1  0.81880927  0.90941350  0.59058120  1.0
  C  C28  1  0.00000286  0.13693227  0.36306855  1.0
  C  C29  1  0.99999425  0.90940109  0.40940533  1.0
  C  C30  1  0.00000119  0.40941460  0.90939508  1.0
  C  C31  1  0.00000352  0.63693006  0.86306799  1.0
  C  C32  1  0.81880699  0.40940869  0.09060343  1.0
  C  C33  1  0.99999297  0.59060194  0.09059300  1.0
  C  C34  1  0.99999783  0.36306988  0.13693117  1.0
  C  C35  1  0.18119125  0.59060056  0.90941719  1.0
  C  C36  1  0.00000140  0.19483860  0.30516160  1.0
  C  C37  1  0.00000013  0.30516335  0.19483669  1.0
  C  C38  1  0.95721288  0.18024954  0.27696481  1.0
  C  C39  1  0.04278911  0.31975259  0.22303244  1.0
  C  C40  1  0.95721313  0.23418000  0.22303360  1.0
  C  C41  1  0.04278843  0.26582214  0.27696377  1.0
  C  C42  1  0.99999853  0.80516393  0.69483779  1.0
  C  C43  1  0.00000254  0.69483743  0.80516049  1.0
  C  C44  1  0.95721179  0.77696171  0.76583093  1.0
  C  C45  1  0.04278908  0.72304016  0.73416762  1.0
  C  C46  1  0.95721329  0.72303125  0.81975953  1.0
  C  C47  1  0.04278710  0.77696959  0.68023958  1.0
  C  C48  1  0.99999785  0.37199997  0.87198305  1.0
  C  C49  1  0.95789340  0.29982499  0.90587130  1.0
  C  C50  1  0.95709253  0.26422758  0.87229296  1.0
  C  C51  1  0.99999380  0.30050220  0.80049291  1.0
  C  C52  1  0.04289714  0.37229619  0.76420705  1.0
  C  C53  1  0.04210094  0.40587840  0.79980118  1.0
  C  C54  1  0.99998922  0.26522518  0.76522027  1.0
  C  C55  1  0.99998432  0.23477777  0.73477409  1.0
  C  C56  1  0.99997764  0.19950283  0.69949960  1.0
  C  C57  1  0.95708663  0.12770604  0.73578827  1.0
  C  C58  1  0.95788307  0.09412435  0.70019261  1.0
  C  C59  1  0.99997625  0.12800608  0.62800950  1.0
  C  C60  1  0.04206228  0.20018558  0.59411627  1.0
  C  C61  1  0.04286247  0.23578247  0.62769627  1.0
  C  C62  1  0.00000780  0.62803473  0.12798475  1.0
  C  C63  1  0.04211652  0.63626454  0.15804888  1.0
  C  C64  1  0.04291060  0.67063758  0.19285153  1.0
  C  C65  1  0.00000146  0.69951954  0.19948526  1.0
  C  C66  1  0.95710373  0.69290082  0.17058830  1.0
  C  C67  1  0.95790532  0.65810823  0.13620509  1.0
  C  C68  1  0.99999175  0.73478379  0.23477394  1.0
  C  C69  1  0.99998743  0.76521511  0.26522928  1.0
  C  C70  1  0.99998195  0.80048175  0.30051491  1.0
  C  C71  1  0.04286766  0.80708492  0.32942583  1.0
  C  C72  1  0.04206722  0.84187906  0.36380808  1.0
  C  C73  1  0.99997948  0.87197019  0.37201156  1.0
  C  C74  1  0.95788468  0.86375907  0.34192914  1.0
  C  C75  1  0.95708856  0.82938447  0.30712772  1.0
  C  C76  1  0.74398166  0.37199759  0.12801056  1.0
  C  C77  1  0.70568840  0.29982099  0.15809567  1.0
  C  C78  1  0.63651262  0.26422512  0.19289518  1.0
  C  C79  1  0.60099623  0.30050455  0.19950764  1.0
  C  C80  1  0.63651104  0.37230041  0.17059897  1.0
  C  C81  1  0.70568743  0.40588106  0.13621713  1.0
  C  C82  1  0.53044772  0.26522755  0.23478815  1.0
  C  C83  1  0.46955303  0.23477119  0.26524424  1.0
  C  C84  1  0.39900419  0.19949159  0.30052797  1.0
  C  C85  1  0.36349082  0.12769885  0.32942035  1.0
  C  C86  1  0.29431459  0.09411665  0.36380151  1.0
  C  C87  1  0.25601848  0.12799700  0.37201989  1.0
  C  C88  1  0.29431040  0.20016787  0.34196084  1.0
  C  C89  1  0.36348603  0.23576530  0.30716118  1.0
  C  C90  1  0.25601678  0.62802152  0.87200358  1.0
  C  C91  1  0.29431654  0.65811852  0.79981809  1.0
  C  C92  1  0.36349265  0.69291680  0.76422259  1.0
  C  C93  1  0.39900389  0.69951819  0.80050915  1.0
  C  C94  1  0.36348286  0.67060368  0.87231320  1.0
  C  C95  1  0.29430676  0.63622441  0.90589321  1.0
  C  C96  1  0.46955542  0.73479415  0.76522689  1.0
  C  C97  1  0.53044519  0.76524275  0.73476409  1.0
  C  C98  1  0.60099740  0.80051923  0.69948225  1.0
  C  C99  1  0.63651817  0.82941714  0.62768152  1.0
  C  C100  1  0.70569510  0.86379537  0.59410251  1.0
  C  C101  1  0.74398337  0.87200966  0.62799064  1.0
  C  C102  1  0.70568462  0.84193654  0.70017012  1.0
  C  C103  1  0.63650768  0.80713930  0.73576587  1.0
  Cl  Cl104  1  0.90262356  0.09712751  0.30550191  1.0
  Cl  Cl105  1  0.09737950  0.40287410  0.19449480  1.0
  Cl  Cl106  1  0.90262264  0.20812728  0.19450121  1.0
  Cl  Cl107  1  0.09737891  0.29187484  0.30549701  1.0
  Cl  Cl108  1  0.90262294  0.80549511  0.79189244  1.0
  Cl  Cl109  1  0.09737818  0.69450729  0.70810625  1.0
  Cl  Cl110  1  0.90262377  0.69449326  0.90289149  1.0
  Cl  Cl111  1  0.09737575  0.80550758  0.59710705  1.0
  O  O112  1  0.99999968  0.99999944  0.50000130  1.0
  O  O113  1  0.15238319  0.12670395  0.41361462  1.0
  O  O114  1  0.03968903  0.88548325  0.57483226  1.0
  O  O115  1  0.95965636  0.02566609  0.62671805  1.0
  O  O116  1  0.15238355  0.02567254  0.43397869  1.0
  O  O117  1  0.04033881  0.12669662  0.52567735  1.0
  O  O118  1  0.96030388  0.88546751  0.65421998  1.0
  O  O119  1  0.84761396  0.91362754  0.62670049  1.0
  O  O120  1  0.96031861  0.07484281  0.38547042  1.0
  O  O121  1  0.84762508  0.93400158  0.52565499  1.0
  O  O122  1  0.03968905  0.15421303  0.38547406  1.0
  O  O123  1  0.04033649  0.91363242  0.43398361  1.0
  O  O124  1  0.95966859  0.93399852  0.41361835  1.0
  O  O125  1  0.00000160  0.50000224  0.99999722  1.0
  O  O126  1  0.95966515  0.37330195  0.97432252  1.0
  O  O127  1  0.03969356  0.61453073  0.84577896  1.0
  O  O128  1  0.84761660  0.47432778  0.06602237  1.0
  O  O129  1  0.04033743  0.47433509  0.87327884  1.0
  O  O130  1  0.84761816  0.37329896  0.08637921  1.0
  O  O131  1  0.96031412  0.61452070  0.92516520  1.0
  O  O132  1  0.95965518  0.58637252  0.06601095  1.0
  O  O133  1  0.03967988  0.42515932  0.11453081  1.0
  O  O134  1  0.04031881  0.56600382  0.08638187  1.0
  O  O135  1  0.96031251  0.34578911  0.11452457  1.0
  O  O136  1  0.15238708  0.58637252  0.87330120  1.0
  O  O137  1  0.15237551  0.56600885  0.97434482  1.0
  F  F138  1  0.91525043  0.26131448  0.97478456  1.0
  F  F139  1  0.08474399  0.47478450  0.76128180  1.0
  F  F140  1  0.91524844  0.02521564  0.73871550  1.0
  F  F141  1  0.08468446  0.23870130  0.52519846  1.0
  F  F142  1  0.08476978  0.61001466  0.15390548  1.0
  F  F143  1  0.91526909  0.65398432  0.10993287  1.0
  F  F144  1  0.08469050  0.84598636  0.39009579  1.0
  F  F145  1  0.91524857  0.89003178  0.34605163  1.0
  F  F146  1  0.73608378  0.26130781  0.15397895  1.0
  F  F147  1  0.73608072  0.47479098  0.10993298  1.0
  F  F148  1  0.26392142  0.02520984  0.39007396  1.0
  F  F149  1  0.26391456  0.23867531  0.34610543  1.0
  F  F150  1  0.26392669  0.65401467  0.76129595  1.0
  F  F151  1  0.26390716  0.60993929  0.97481046  1.0
  F  F152  1  0.73609529  0.89006854  0.52518815  1.0
  F  F153  1  0.73607206  0.84606634  0.73868813  1.0
