# generated using pymatgen
data_Al2H14C17O11
_symmetry_space_group_name_H-M   'P 1'
_cell_length_a   6.65705412
_cell_length_b   14.04293704
_cell_length_c   16.08382878
_cell_angle_alpha   90.34008806
_cell_angle_beta   90.67073034
_cell_angle_gamma   90.87755251
_symmetry_Int_Tables_number   1
_chemical_formula_structural   Al2H14C17O11
_chemical_formula_sum   'Al4 H28 C34 O22'
_cell_volume   1503.28268245
_cell_formula_units_Z   2
loop_
 _symmetry_equiv_pos_site_id
 _symmetry_equiv_pos_as_xyz
  1  'x, y, z'
loop_
 _atom_site_type_symbol
 _atom_site_label
 _atom_site_symmetry_multiplicity
 _atom_site_fract_x
 _atom_site_fract_y
 _atom_site_fract_z
 _atom_site_occupancy
  Al  Al0  1  0.11113586  0.49856661  0.49881581  1.0
  Al  Al1  1  0.61131900  0.50262134  0.50049740  1.0
  Al  Al2  1  0.61660779  0.00474400  0.99574334  1.0
  Al  Al3  1  0.11651221  0.00404813  0.99724591  1.0
  H  H4  1  0.56113406  0.70162133  0.31140750  1.0
  H  H5  1  0.01869783  0.68753519  0.28810591  1.0
  H  H6  1  0.16612857  0.78719771  0.83798000  1.0
  H  H7  1  0.56389839  0.72105406  0.66202953  1.0
  H  H8  1  0.54889991  0.84282882  0.77502022  1.0
  H  H9  1  0.06819743  0.17138580  0.19760740  1.0
  H  H10  1  0.68152044  0.34554227  0.29369005  1.0
  H  H11  1  0.05021175  0.26905139  0.66049181  1.0
  H  H12  1  0.04983466  0.15376952  0.77946966  1.0
  H  H13  1  0.67096857  0.22146852  0.82974171  1.0
  H  H14  1  0.56319526  0.79702598  0.18158258  1.0
  H  H15  1  0.66020054  0.26665290  0.04836392  1.0
  H  H16  1  0.92180779  0.25351051  0.07074266  1.0
  H  H17  1  0.92968880  0.40609320  0.15097825  1.0
  H  H18  1  0.84354924  0.42403999  0.04684522  1.0
  H  H19  1  0.66892441  0.42260349  0.12972814  1.0
  H  H20  1  0.67227712  0.33605237  0.70988257  1.0
  H  H21  1  0.01810564  0.82121628  0.21409756  1.0
  H  H22  1  0.14679492  0.51318675  0.72743680  1.0
  H  H23  1  0.14242389  0.57079121  0.82697033  1.0
  H  H24  1  0.44655585  0.46886172  0.81362095  1.0
  H  H25  1  0.52422991  0.53517069  0.72521223  1.0
  H  H26  1  0.51712243  0.59155698  0.82456184  1.0
  H  H27  1  0.04893866  0.28476781  0.31662882  1.0
  H  H28  1  0.35754216  0.61238300  0.54367499  1.0
  H  H29  1  0.85331131  0.37948799  0.52489131  1.0
  H  H30  1  0.36682651  0.88708726  0.03067239  1.0
  H  H31  1  0.87034393  0.11589157  0.04010040  1.0
  C  C32  1  0.35941564  0.38981599  0.38452517  1.0
  C  C33  1  0.35995386  0.37944323  0.60915173  1.0
  C  C34  1  0.86878564  0.61535381  0.61495242  1.0
  C  C35  1  0.86492566  0.61299447  0.38725310  1.0
  C  C36  1  0.70670683  0.78319905  0.21265259  1.0
  C  C37  1  0.87174576  0.82857629  0.18379556  1.0
  C  C38  1  0.70553144  0.71872241  0.28289943  1.0
  C  C39  1  0.87021965  0.67673718  0.31473782  1.0
  C  C40  1  0.03405309  0.77342112  0.79880555  1.0
  C  C41  1  0.04349736  0.70483991  0.73591804  1.0
  C  C42  1  0.87279953  0.68612225  0.68475884  1.0
  C  C43  1  0.69646021  0.73710943  0.70010146  1.0
  C  C44  1  0.68698100  0.80466206  0.76327788  1.0
  C  C45  1  0.85736605  0.82314972  0.81308081  1.0
  C  C46  1  0.19069094  0.27329023  0.28527281  1.0
  C  C47  1  0.20215898  0.21025414  0.21864215  1.0
  C  C48  1  0.38376357  0.19444847  0.17734880  1.0
  C  C49  1  0.55814899  0.24499056  0.20504012  1.0
  C  C50  1  0.54645336  0.30743446  0.27251733  1.0
  C  C51  1  0.36438265  0.32200132  0.31278332  1.0
  C  C52  1  0.18534414  0.25811611  0.69790109  1.0
  C  C53  1  0.18475792  0.19443653  0.76379700  1.0
  C  C54  1  0.36008821  0.18175319  0.81140715  1.0
  C  C55  1  0.53652177  0.23229946  0.79180990  1.0
  C  C56  1  0.53725100  0.29534022  0.72541041  1.0
  C  C57  1  0.36119912  0.30914323  0.67848559  1.0
  C  C58  1  0.35816645  0.11507999  0.88336358  1.0
  C  C59  1  0.38262248  0.12289738  0.10809306  1.0
  C  C60  1  0.87123861  0.89134300  0.11064405  1.0
  C  C61  1  0.85280748  0.89284282  0.88339064  1.0
  C  C62  1  0.78124057  0.28376325  0.09365902  1.0
  C  C63  1  0.80694534  0.39049304  0.10649374  1.0
  C  C64  1  0.22513027  0.56562486  0.76808118  1.0
  C  C65  1  0.44148429  0.53892488  0.78372227  1.0
  O  O66  1  0.52992884  0.40667167  0.58152383  1.0
  O  O67  1  0.18901152  0.41011922  0.41436605  1.0
  O  O68  1  0.03521250  0.58259472  0.41175258  1.0
  O  O69  1  0.18843128  0.40702098  0.58342140  1.0
  O  O70  1  0.03463439  0.58989535  0.58384358  1.0
  O  O71  1  0.52810677  0.42192454  0.41098982  1.0
  O  O72  1  0.36151823  0.55857967  0.50554885  1.0
  O  O73  1  0.69503863  0.58641756  0.59018661  1.0
  O  O74  1  0.69614982  0.59371031  0.42019615  1.0
  O  O75  1  0.85802541  0.44228108  0.50036351  1.0
  O  O76  1  0.21255841  0.10349790  0.07362214  1.0
  O  O77  1  0.52494165  0.10029834  0.92031863  1.0
  O  O78  1  0.68494308  0.92967183  0.90113844  1.0
  O  O79  1  0.54872759  0.08573147  0.08847506  1.0
  O  O80  1  0.70508339  0.90680855  0.07286099  1.0
  O  O81  1  0.18929985  0.07891815  0.90331989  1.0
  O  O82  1  0.36518786  0.94511252  0.99834816  1.0
  O  O83  1  0.04391123  0.92492333  0.09058467  1.0
  O  O84  1  0.01800011  0.90905647  0.92189145  1.0
  O  O85  1  0.86883408  0.06377147  0.00017364  1.0
  O  O86  1  0.74450003  0.23365504  0.17050203  1.0
  O  O87  1  0.22263028  0.65814872  0.72827232  1.0
