# generated using pymatgen
data_Zn3H12C50(OF)12
_symmetry_space_group_name_H-M   'P 1'
_cell_length_a   29.52827353
_cell_length_b   29.52828321
_cell_length_c   29.52802030
_cell_angle_alpha   105.35960835
_cell_angle_beta   118.04989209
_cell_angle_gamma   105.35992667
_symmetry_Int_Tables_number   1
_chemical_formula_structural   Zn3H12C50(OF)12
_chemical_formula_sum   'Zn6 H24 C100 O24 F24'
_cell_volume   19481.56538800
_cell_formula_units_Z   2
loop_
 _symmetry_equiv_pos_site_id
 _symmetry_equiv_pos_as_xyz
  1  'x, y, z'
loop_
 _atom_site_type_symbol
 _atom_site_label
 _atom_site_symmetry_multiplicity
 _atom_site_fract_x
 _atom_site_fract_y
 _atom_site_fract_z
 _atom_site_occupancy
  Zn  Zn0  1  0.53613610  0.53613497  0.00000004  1.0
  Zn  Zn1  1  0.00000012  0.46386309  0.46386331  1.0
  Zn  Zn2  1  0.46386365  0.46386391  0.00000068  1.0
  Zn  Zn3  1  0.99999960  0.53613478  0.53613540  1.0
  Zn  Zn4  1  0.45790678  0.00000013  0.45790689  1.0
  Zn  Zn5  1  0.54209298  0.00000021  0.54209349  1.0
  H  H6  1  0.09785570  0.50417444  0.68276516  1.0
  H  H7  1  0.68276731  0.58491192  0.17859256  1.0
  H  H8  1  0.17859434  0.49582574  0.59367920  1.0
  H  H9  1  0.59368024  0.41508799  0.09785471  1.0
  H  H10  1  0.82140759  0.41508783  0.31723318  1.0
  H  H11  1  0.40631908  0.50417477  0.82140908  1.0
  H  H12  1  0.90214483  0.58491184  0.40631975  1.0
  H  H13  1  0.31723141  0.49582531  0.90214639  1.0
  H  H14  1  0.57067817  0.81147591  0.38277139  1.0
  H  H15  1  0.38276954  0.81207949  0.57128347  1.0
  H  H16  1  0.57128389  0.18851356  0.75920388  1.0
  H  H17  1  0.75920281  0.18791703  0.57068945  1.0
  H  H18  1  0.42871421  0.18791725  0.61722787  1.0
  H  H19  1  0.24079619  0.81148853  0.42871566  1.0
  H  H20  1  0.42931984  0.81209228  0.24079569  1.0
  H  H21  1  0.61722909  0.18851333  0.42930980  1.0
  H  H22  1  0.57049252  0.88147614  0.45226690  1.0
  H  H23  1  0.45226492  0.88176089  0.57077858  1.0
  H  H24  1  0.57077968  0.11851456  0.68901693  1.0
  H  H25  1  0.68901671  0.11823543  0.57050243  1.0
  H  H26  1  0.42921894  0.11823546  0.54773347  1.0
  H  H27  1  0.31098374  0.88148714  0.42922012  1.0
  H  H28  1  0.42950737  0.88177466  0.31098354  1.0
  H  H29  1  0.54773448  0.11851424  0.42949749  1.0
  C  C30  1  0.50000216  0.57238701  0.07238576  1.0
  C  C31  1  0.07238542  0.57238663  0.50000211  1.0
  C  C32  1  0.50000209  0.42761688  0.92761433  1.0
  C  C33  1  0.92761579  0.42761625  0.50000283  1.0
  C  C34  1  0.49999955  0.88568547  0.38568511  1.0
  C  C35  1  0.38568462  0.88568464  0.49999876  1.0
  C  C36  1  0.49999915  0.11431408  0.61431416  1.0
  C  C37  1  0.61431470  0.11431418  0.49999994  1.0
  C  C38  1  0.49999864  0.80731829  0.30731763  1.0
  C  C39  1  0.30731745  0.80731844  0.49999969  1.0
  C  C40  1  0.49999985  0.19268202  0.69268183  1.0
  C  C41  1  0.69268179  0.19268146  0.49999972  1.0
  C  C42  1  0.49999866  0.76774404  0.26774333  1.0
  C  C43  1  0.26774254  0.76774448  0.49999987  1.0
  C  C44  1  0.49999911  0.23225613  0.73225580  1.0
  C  C45  1  0.73225598  0.23225528  0.49999922  1.0
  C  C46  1  0.49999797  0.73370594  0.23370487  1.0
  C  C47  1  0.23370536  0.73370635  0.50000043  1.0
  C  C48  1  0.49999825  0.26629287  0.76629311  1.0
  C  C49  1  0.76629352  0.26629301  0.49999902  1.0
  C  C50  1  0.48125359  0.64212468  0.18659079  1.0
  C  C51  1  0.18659010  0.70533608  0.54446685  1.0
  C  C52  1  0.54446506  0.35787464  0.83912922  1.0
  C  C53  1  0.83912999  0.29466371  0.48125342  1.0
  C  C54  1  0.45553308  0.29466353  0.81341081  1.0
  C  C55  1  0.16087087  0.64212379  0.45553440  1.0
  C  C56  1  0.51874311  0.70533546  0.16086793  1.0
  C  C57  1  0.81340966  0.35787547  0.51874592  1.0
  C  C58  1  0.48114843  0.60320938  0.14772025  1.0
  C  C59  1  0.14771859  0.66657031  0.54451000  1.0
  C  C60  1  0.54450983  0.39679016  0.87793937  1.0
  C  C61  1  0.87794007  0.33342923  0.48114923  1.0
  C  C62  1  0.45548954  0.33342926  0.85228157  1.0
  C  C63  1  0.12206275  0.60320910  0.45549124  1.0
  C  C64  1  0.51884934  0.66656951  0.12205907  1.0
  C  C65  1  0.85228151  0.39679022  0.51885201  1.0
  C  C66  1  0.49999898  0.61420073  0.11420162  1.0
  C  C67  1  0.11420212  0.61420053  0.50000019  1.0
  C  C68  1  0.49999951  0.38579767  0.88579863  1.0
  C  C69  1  0.88579948  0.38579788  0.50000080  1.0
  C  C70  1  0.49999812  0.69434765  0.19434636  1.0
  C  C71  1  0.19434811  0.69434808  0.50000063  1.0
  C  C72  1  0.49999895  0.30565164  0.80565247  1.0
  C  C73  1  0.80565169  0.30565142  0.49999895  1.0
  C  C74  1  0.42736131  0.92736123  0.49999982  1.0
  C  C75  1  0.50000037  0.07263869  0.57263932  1.0
  C  C76  1  0.57263933  0.07263854  0.50000100  1.0
  C  C77  1  0.50000055  0.92736175  0.42736257  1.0
  C  C78  1  0.41493923  0.49999980  0.91494113  1.0
  C  C79  1  0.91494012  0.50000156  0.41494156  1.0
  C  C80  1  0.58506238  0.50000247  0.08506066  1.0
  C  C81  1  0.08506053  0.49999935  0.58505848  1.0
  C  C82  1  0.13367632  0.50215756  0.68177520  1.0
  C  C83  1  0.68177700  0.54810053  0.17961905  1.0
  C  C84  1  0.17962028  0.49784225  0.63151730  1.0
  C  C85  1  0.63151878  0.45189970  0.13367605  1.0
  C  C86  1  0.82038094  0.45189943  0.31822335  1.0
  C  C87  1  0.36848166  0.50215796  0.82038302  1.0
  C  C88  1  0.86632361  0.54810048  0.36848170  1.0
  C  C89  1  0.31822188  0.49784250  0.86632471  1.0
  C  C90  1  0.13417328  0.49999950  0.63417004  1.0
  C  C91  1  0.63417192  0.49999964  0.13417178  1.0
  C  C92  1  0.86582808  0.49999979  0.36582833  1.0
  C  C93  1  0.36582646  0.49999945  0.86582994  1.0
  C  C94  1  0.22666309  0.49922844  0.67802766  1.0
  C  C95  1  0.67802767  0.45136574  0.17879932  1.0
  C  C96  1  0.17880053  0.50077232  0.72743304  1.0
  C  C97  1  0.72743383  0.54863374  0.22666190  1.0
  C  C98  1  0.82120016  0.54863390  0.32197263  1.0
  C  C99  1  0.27256531  0.49922822  0.82120098  1.0
  C  C100  1  0.77333850  0.45136602  0.27256653  1.0
  C  C101  1  0.32197223  0.50077231  0.77333957  1.0
  C  C102  1  0.22664401  0.50000023  0.72664314  1.0
  C  C103  1  0.72664388  0.49999984  0.22664334  1.0
  C  C104  1  0.77335634  0.49999980  0.27335620  1.0
  C  C105  1  0.27335640  0.50000034  0.77335711  1.0
  C  C106  1  0.27558926  0.49952171  0.67898009  1.0
  C  C107  1  0.67897967  0.40339148  0.17945822  1.0
  C  C108  1  0.17945839  0.50047974  0.77606623  1.0
  C  C109  1  0.77606649  0.59660815  0.27558765  1.0
  C  C110  1  0.82054213  0.59660808  0.32102114  1.0
  C  C111  1  0.22393266  0.49952150  0.82054168  1.0
  C  C112  1  0.72441207  0.40339169  0.22393317  1.0
  C  C113  1  0.32102151  0.50047976  0.72441392  1.0
  C  C114  1  0.53986627  0.82700754  0.36729414  1.0
  C  C115  1  0.36729302  0.82741887  0.54027876  1.0
  C  C116  1  0.54027940  0.17298609  0.71286039  1.0
  C  C117  1  0.71285986  0.17257897  0.53987390  1.0
  C  C118  1  0.45971945  0.17257961  0.63270531  1.0
  C  C119  1  0.28713943  0.82701523  0.45971992  1.0
  C  C120  1  0.46013129  0.82742682  0.28713929  1.0
  C  C121  1  0.63270605  0.17298564  0.46012574  1.0
  C  C122  1  0.53978554  0.86587133  0.40589941  1.0
  C  C123  1  0.40589792  0.86610509  0.54002034  1.0
  C  C124  1  0.54002080  0.13412276  0.67391501  1.0
  C  C125  1  0.67391460  0.13389218  0.53979117  1.0
  C  C126  1  0.45997776  0.13389237  0.59410106  1.0
  C  C127  1  0.32608509  0.86587773  0.45997842  1.0
  C  C128  1  0.46021391  0.86611328  0.32608525  1.0
  C  C129  1  0.59410207  0.13412290  0.46020852  1.0
  O  O130  1  0.53266397  0.58804513  0.05721168  1.0
  O  O131  1  0.05721038  0.52454420  0.46916299  1.0
  O  O132  1  0.46916528  0.41195445  0.94462052  1.0
  O  O133  1  0.94461967  0.47545287  0.53266644  1.0
  O  O134  1  0.53083373  0.47545273  0.94278626  1.0
  O  O135  1  0.05538209  0.58804550  0.53083508  1.0
  O  O136  1  0.46733367  0.52454416  0.05538171  1.0
  O  O137  1  0.94278995  0.41195350  0.46733477  1.0
  O  O138  1  0.46567970  0.53100030  0.93298128  1.0
  O  O139  1  0.93297976  0.46729518  0.40197655  1.0
  O  O140  1  0.40197390  0.46899310  0.93468124  1.0
  O  O141  1  0.93468061  0.53270317  0.46568314  1.0
  O  O142  1  0.59802283  0.53270274  0.06702004  1.0
  O  O143  1  0.06531997  0.53100005  0.59801944  1.0
  O  O144  1  0.53431538  0.46729656  0.06532026  1.0
  O  O145  1  0.06702067  0.46899381  0.53431276  1.0
  O  O146  1  0.40624542  0.94374803  0.46258512  1.0
  O  O147  1  0.46258583  0.05633962  0.51883709  1.0
  O  O148  1  0.51883816  0.05625163  0.46249785  1.0
  O  O149  1  0.46249791  0.94366057  0.40624604  1.0
  O  O150  1  0.48116040  0.94365974  0.53741281  1.0
  O  O151  1  0.53750066  0.94374787  0.48116110  1.0
  O  O152  1  0.59375347  0.05634014  0.53750203  1.0
  O  O153  1  0.53741229  0.05625187  0.59375361  1.0
  F  F154  1  0.27645405  0.49899134  0.63337090  1.0
  F  F155  1  0.63337054  0.35691828  0.13437876  1.0
  F  F156  1  0.13437979  0.50101014  0.77746041  1.0
  F  F157  1  0.77746094  0.64308070  0.27645165  1.0
  F  F158  1  0.86562034  0.64308081  0.36662984  1.0
  F  F159  1  0.22253742  0.49899106  0.86562041  1.0
  F  F160  1  0.72354858  0.35691907  0.22253959  1.0
  F  F161  1  0.36663055  0.50101017  0.72355017  1.0
  F  F162  1  0.46288088  0.62932885  0.21762484  1.0
  F  F163  1  0.21762351  0.75474270  0.58829633  1.0
  F  F164  1  0.58829377  0.37067034  0.83355077  1.0
  F  F165  1  0.83355187  0.24525682  0.46287923  1.0
  F  F166  1  0.41170308  0.24525733  0.78237764  1.0
  F  F167  1  0.16644831  0.62932825  0.41170467  1.0
  F  F168  1  0.53711608  0.75474172  0.16644407  1.0
  F  F169  1  0.78237746  0.37067161  0.53712048  1.0
  F  F170  1  0.46330459  0.55477756  0.14449690  1.0
  F  F171  1  0.14449232  0.68119027  0.58971646  1.0
  F  F172  1  0.58971677  0.44522187  0.90852582  1.0
  F  F173  1  0.90852736  0.31880862  0.46330379  1.0
  F  F174  1  0.41028244  0.31881000  0.85550758  1.0
  F  F175  1  0.09147652  0.55477589  0.41028370  1.0
  F  F176  1  0.53669417  0.68118895  0.09147158  1.0
  F  F177  1  0.85550652  0.44522231  0.53669675  1.0
