# generated using pymatgen
data_Zn4H3C15Br3N6O13
_symmetry_space_group_name_H-M   'P 1'
_cell_length_a   16.95247420
_cell_length_b   17.02057418
_cell_length_c   17.46376776
_cell_angle_alpha   62.06033092
_cell_angle_beta   62.47290851
_cell_angle_gamma   61.43626255
_symmetry_Int_Tables_number   1
_chemical_formula_structural   Zn4H3C15Br3N6O13
_chemical_formula_sum   'Zn8 H6 C30 Br6 N12 O26'
_cell_volume   3721.13530874
_cell_formula_units_Z   2
loop_
 _symmetry_equiv_pos_site_id
 _symmetry_equiv_pos_as_xyz
  1  'x, y, z'
loop_
 _atom_site_type_symbol
 _atom_site_label
 _atom_site_symmetry_multiplicity
 _atom_site_fract_x
 _atom_site_fract_y
 _atom_site_fract_z
 _atom_site_occupancy
  Zn  Zn0  1  0.08433056  0.00606721  0.82373485  1.0
  Zn  Zn1  1  0.07204861  0.82976486  0.01653869  1.0
  Zn  Zn2  1  0.89773801  0.01567927  0.99396911  1.0
  Zn  Zn3  1  0.06884508  0.02372480  0.01076045  1.0
  Zn  Zn4  1  0.50145990  0.41608437  0.59286012  1.0
  Zn  Zn5  1  0.47856831  0.60065939  0.44254733  1.0
  Zn  Zn6  1  0.46843105  0.42496346  0.42357563  1.0
  Zn  Zn7  1  0.67338128  0.42369860  0.40740560  1.0
  H  H8  1  0.22586227  0.61847561  0.90780663  1.0
  H  H9  1  0.70871384  0.19038779  0.86316845  1.0
  H  H10  1  0.24017627  0.18189137  0.89060765  1.0
  H  H11  1  0.68942224  0.90530310  0.17115077  1.0
  H  H12  1  0.20010220  0.90628528  0.20296910  1.0
  H  H13  1  0.68817267  0.18104393  0.14328547  1.0
  C  C14  1  0.17606248  0.80658190  0.83259490  1.0
  C  C15  1  0.23331011  0.73475719  0.78663725  1.0
  C  C16  1  0.32192465  0.63701699  0.70316702  1.0
  C  C17  1  0.38102843  0.59077025  0.63179417  1.0
  C  C18  1  0.28007003  0.73407394  0.69652121  1.0
  C  C19  1  0.89446615  0.10918394  0.80320724  1.0
  C  C20  1  0.83004388  0.17530712  0.74850099  1.0
  C  C21  1  0.74217988  0.27916217  0.65511362  1.0
  C  C22  1  0.69818224  0.34421241  0.58139838  1.0
  C  C23  1  0.83592263  0.21966963  0.65609544  1.0
  C  C24  1  0.17883481  0.11344124  0.82496113  1.0
  C  C25  1  0.24145282  0.17016072  0.77448200  1.0
  C  C26  1  0.34128157  0.25216049  0.68411721  1.0
  C  C27  1  0.40497979  0.30563120  0.61030288  1.0
  C  C28  1  0.28999448  0.20706439  0.68289376  1.0
  C  C29  1  0.87693839  0.82864450  0.10772429  1.0
  C  C30  1  0.80782982  0.78002762  0.17003719  1.0
  C  C31  1  0.71344603  0.69310293  0.26675924  1.0
  C  C32  1  0.66731771  0.62023405  0.32887791  1.0
  C  C33  1  0.80928464  0.68650552  0.21678660  1.0
  C  C34  1  0.16406567  0.83201496  0.12151436  1.0
  C  C35  1  0.21775251  0.78259359  0.18651053  1.0
  C  C36  1  0.30320282  0.69365600  0.28368961  1.0
  C  C37  1  0.36287739  0.62004413  0.34327244  1.0
  C  C38  1  0.26648917  0.68871782  0.22807313  1.0
  C  C39  1  0.87553513  0.12729729  0.09681644  1.0
  C  C40  1  0.80429093  0.18455633  0.15638484  1.0
  C  C41  1  0.70571048  0.27129562  0.25039006  1.0
  C  C42  1  0.65779963  0.32802691  0.31328516  1.0
  C  C43  1  0.80290441  0.22877918  0.20769270  1.0
  Br  Br44  1  0.28328976  0.83935618  0.59230517  1.0
  Br  Br45  1  0.94459612  0.20345495  0.55728221  1.0
  Br  Br46  1  0.28907707  0.19541549  0.58241254  1.0
  Br  Br47  1  0.91576881  0.57841406  0.21281210  1.0
  Br  Br48  1  0.28017762  0.58213445  0.21100240  1.0
  Br  Br49  1  0.90807021  0.22963176  0.21644269  1.0
  N  N50  1  0.25006255  0.64175785  0.83866031  1.0
  N  N51  1  0.30209439  0.58214933  0.79139454  1.0
  N  N52  1  0.73651723  0.20955504  0.79428621  1.0
  N  N53  1  0.68294159  0.27139798  0.74140081  1.0
  N  N54  1  0.26538537  0.19606771  0.82199572  1.0
  N  N55  1  0.32480804  0.24391557  0.77072596  1.0
  N  N56  1  0.71463316  0.83371950  0.19416294  1.0
  N  N57  1  0.65719151  0.78463838  0.25153983  1.0
  N  N58  1  0.22818062  0.83488811  0.21927414  1.0
  N  N59  1  0.27800307  0.78462945  0.27682130  1.0
  N  N60  1  0.71123521  0.20331625  0.17141607  1.0
  N  N61  1  0.65135984  0.25407956  0.22666822  1.0
  O  O62  1  0.03483603  0.96795571  0.95884348  1.0
  O  O63  1  0.14704084  0.77213674  0.91972358  1.0
  O  O64  1  0.16039603  0.89321296  0.78481218  1.0
  O  O65  1  0.41000873  0.64277907  0.55085391  1.0
  O  O66  1  0.39785577  0.50224694  0.65817947  1.0
  O  O67  1  0.85101652  0.08565127  0.88931611  1.0
  O  O68  1  0.98300443  0.08213764  0.76490140  1.0
  O  O69  1  0.74226234  0.33888054  0.50090805  1.0
  O  O70  1  0.61584692  0.40157021  0.60676350  1.0
  O  O71  1  0.14911309  0.09709406  0.91162241  1.0
  O  O72  1  0.16019930  0.08579177  0.78102160  1.0
  O  O73  1  0.39410666  0.34596554  0.53151588  1.0
  O  O74  1  0.46450825  0.30721938  0.63443540  1.0
  O  O75  1  0.83908595  0.91870402  0.07716461  1.0
  O  O76  1  0.96459291  0.78151036  0.08965396  1.0
  O  O77  1  0.71713975  0.53453529  0.33276964  1.0
  O  O78  1  0.58092299  0.65254714  0.37188849  1.0
  O  O79  1  0.13682902  0.92240845  0.09757536  1.0
  O  O80  1  0.14876413  0.78373121  0.09529269  1.0
  O  O81  1  0.38460532  0.53377780  0.35269564  1.0
  O  O82  1  0.38642528  0.65199385  0.37930941  1.0
  O  O83  1  0.84010826  0.10426198  0.06250486  1.0
  O  O84  1  0.96281130  0.10504669  0.08389652  1.0
  O  O85  1  0.71030425  0.34960139  0.32874493  1.0
  O  O86  1  0.56867309  0.34900123  0.34488517  1.0
  O  O87  1  0.53438928  0.46487352  0.45903441  1.0
