# generated using pymatgen
data_AlH3C15(SO4)3
_symmetry_space_group_name_H-M   'P 1'
_cell_length_a   4.02714217
_cell_length_b   20.10875733
_cell_length_c   20.10871851
_cell_angle_alpha   59.99969204
_cell_angle_beta   90.00013529
_cell_angle_gamma   89.99917486
_symmetry_Int_Tables_number   1
_chemical_formula_structural   AlH3C15(SO4)3
_chemical_formula_sum   'Al2 H6 C30 S6 O24'
_cell_volume   1410.24923760
_cell_formula_units_Z   2
loop_
 _symmetry_equiv_pos_site_id
 _symmetry_equiv_pos_as_xyz
  1  'x, y, z'
loop_
 _atom_site_type_symbol
 _atom_site_label
 _atom_site_symmetry_multiplicity
 _atom_site_fract_x
 _atom_site_fract_y
 _atom_site_fract_z
 _atom_site_occupancy
  Al  Al0  1  0.99653636  0.50000212  0.99999663  1.0
  Al  Al1  1  0.99654486  0.16666769  0.66666801  1.0
  H  H2  1  0.74007963  0.18870901  0.31445798  1.0
  H  H3  1  0.74001994  0.47795990  0.35223184  1.0
  H  H4  1  0.74005986  0.49683953  0.68870687  1.0
  H  H5  1  0.74005090  0.16981690  0.97795875  1.0
  H  H6  1  0.74007037  0.81444595  0.99683612  1.0
  H  H7  1  0.74003472  0.85222872  0.66980522  1.0
  C  C8  1  0.49602310  0.61660802  0.94452797  1.0
  C  C9  1  0.49603544  0.43886323  0.11660329  1.0
  C  C10  1  0.49602668  0.44453533  0.93885960  1.0
  C  C11  1  0.49604809  0.22780766  0.55006410  1.0
  C  C12  1  0.49603201  0.22212395  0.72781410  1.0
  C  C13  1  0.49605298  0.05006487  0.72212448  1.0
  C  C14  1  0.50891819  0.31768881  0.25132884  1.0
  C  C15  1  0.50887588  0.34897599  0.41533973  1.0
  C  C16  1  0.49815808  0.39648295  0.20206372  1.0
  C  C17  1  0.49819895  0.27018938  0.46460079  1.0
  C  C18  1  0.50734517  0.36602082  0.33736500  1.0
  C  C19  1  0.50737724  0.30064448  0.32930356  1.0
  C  C20  1  0.50886182  0.43098231  0.81768738  1.0
  C  C21  1  0.50885156  0.23567848  0.84898281  1.0
  C  C22  1  0.49813863  0.40145487  0.89647867  1.0
  C  C23  1  0.49816751  0.26520410  0.77019323  1.0
  C  C24  1  0.50732981  0.29661114  0.86602408  1.0
  C  C25  1  0.50734419  0.37004887  0.80064668  1.0
  C  C26  1  0.50886358  0.75133097  0.93097755  1.0
  C  C27  1  0.50887393  0.91534482  0.73567583  1.0
  C  C28  1  0.49814290  0.70206925  0.90144847  1.0
  C  C29  1  0.49817992  0.96460425  0.76520259  1.0
  C  C30  1  0.50733504  0.83737035  0.79660525  1.0
  C  C31  1  0.50734571  0.82930660  0.87004582  1.0
  C  C32  1  0.49240208  0.26172213  0.22344665  1.0
  C  C33  1  0.49226427  0.40494697  0.44321441  1.0
  C  C34  1  0.49231078  0.51483238  0.76171295  1.0
  C  C35  1  0.49228482  0.15182863  0.90495491  1.0
  C  C36  1  0.49229999  0.72345113  0.01482722  1.0
  C  C37  1  0.49228498  0.94322567  0.65182324  1.0
  S  S38  1  0.48435268  0.44886452  0.24884437  1.0
  S  S39  1  0.48447118  0.21780286  0.41782414  1.0
  S  S40  1  0.48435850  0.30228971  0.94886646  1.0
  S  S41  1  0.48440950  0.36437011  0.71780482  1.0
  S  S42  1  0.48436162  0.74884942  0.80228400  1.0
  S  S43  1  0.48441561  0.91782563  0.86436702  1.0
  O  O44  1  0.25970114  0.42865516  0.98642452  1.0
  O  O45  1  0.25969028  0.58492563  0.92864742  1.0
  O  O46  1  0.25970219  0.48642762  0.08492031  1.0
  O  O47  1  0.73253262  0.49104539  0.92594822  1.0
  O  O48  1  0.73254335  0.42595494  0.08300141  1.0
  O  O49  1  0.73252976  0.58300712  0.99104040  1.0
  O  O50  1  0.25972059  0.08174553  0.73800788  1.0
  O  O51  1  0.25970619  0.18025025  0.58174246  1.0
  O  O52  1  0.25968986  0.23800695  0.68025087  1.0
  O  O53  1  0.73255172  0.08366933  0.67561150  1.0
  O  O54  1  0.73253396  0.17560929  0.74072435  1.0
  O  O55  1  0.73252571  0.24071842  0.58367060  1.0
  O  O56  1  0.61622970  0.19012923  0.27191198  1.0
  O  O57  1  0.36712377  0.27603832  0.16276414  1.0
  O  O58  1  0.61609615  0.47653605  0.39476891  1.0
  O  O59  1  0.36685861  0.39062907  0.50388913  1.0
  O  O60  1  0.61616410  0.53795972  0.69012094  1.0
  O  O61  1  0.36694489  0.56119438  0.77602421  1.0
  O  O62  1  0.61614563  0.12869686  0.97654609  1.0
  O  O63  1  0.36690837  0.10547045  0.89064113  1.0
  O  O64  1  0.61615547  0.77191305  0.03795610  1.0
  O  O65  1  0.36692071  0.66277996  0.06118651  1.0
  O  O66  1  0.61612872  0.89476944  0.62868723  1.0
  O  O67  1  0.36690772  0.00389979  0.60546790  1.0
