# generated using pymatgen
data_Zn4H56C81N20O13
_symmetry_space_group_name_H-M   'P 1'
_cell_length_a   19.48194609
_cell_length_b   20.21794971
_cell_length_c   20.86599865
_cell_angle_alpha   102.73311110
_cell_angle_beta   108.42224930
_cell_angle_gamma   113.66310315
_symmetry_Int_Tables_number   1
_chemical_formula_structural   Zn4H56C81N20O13
_chemical_formula_sum   'Zn4 H56 C81 N20 O13'
_cell_volume   6546.99964924
_cell_formula_units_Z   1
loop_
 _symmetry_equiv_pos_site_id
 _symmetry_equiv_pos_as_xyz
  1  'x, y, z'
loop_
 _atom_site_type_symbol
 _atom_site_label
 _atom_site_symmetry_multiplicity
 _atom_site_fract_x
 _atom_site_fract_y
 _atom_site_fract_z
 _atom_site_occupancy
  Zn  Zn0  1  0.90213125  0.90190692  0.50480016  1.0
  Zn  Zn1  1  0.11373224  0.10953499  0.49605747  1.0
  Zn  Zn2  1  0.10961336  0.00894323  0.59846333  1.0
  Zn  Zn3  1  0.90744655  0.99895846  0.40010762  1.0
  H  H4  1  0.85590342  0.00060998  0.60825502  1.0
  H  H5  1  0.14044599  0.00840896  0.37216606  1.0
  H  H6  1  0.15415885  0.88296930  0.64392103  1.0
  H  H7  1  0.89154866  0.00625486  0.23612929  1.0
  H  H8  1  0.16054656  0.16087918  0.36552639  1.0
  H  H9  1  0.88942993  0.73457174  0.49260092  1.0
  H  H10  1  0.82367803  0.86334608  0.24665176  1.0
  H  H11  1  0.11875925  0.86508429  0.50000987  1.0
  H  H12  1  0.38062951  0.98364692  0.44596540  1.0
  H  H13  1  0.49930098  0.96968501  0.46504340  1.0
  H  H14  1  0.13088752  0.27447645  0.56584915  1.0
  H  H15  1  0.46319743  0.84348197  0.47258964  1.0
  H  H16  1  0.37320467  0.88188729  0.48626700  1.0
  H  H17  1  0.38214406  0.86688079  0.26873885  1.0
  H  H18  1  0.25187443  0.83237038  0.25886709  1.0
  H  H19  1  0.48749744  0.98019405  0.38127695  1.0
  H  H20  1  0.35224327  0.96383258  0.35185119  1.0
  H  H21  1  0.26638685  0.13802329  0.75298015  1.0
  H  H22  1  0.88581337  0.41061135  0.46400285  1.0
  H  H23  1  0.94171732  0.42582199  0.55612595  1.0
  H  H24  1  0.00633369  0.56444237  0.59911359  1.0
  H  H25  1  0.91755007  0.54155529  0.52045551  1.0
  H  H26  1  0.05218436  0.45467596  0.40693935  1.0
  H  H27  1  0.94229905  0.39603407  0.37319616  1.0
  H  H28  1  0.14623283  0.48952207  0.53000603  1.0
  H  H29  1  0.14269889  0.58745445  0.50196116  1.0
  H  H30  1  0.71089942  0.97053361  0.34397855  1.0
  H  H31  1  0.92365414  0.50530350  0.39939355  1.0
  H  H32  1  0.33954812  0.24589454  0.86024218  1.0
  H  H33  1  0.41065453  0.36086678  0.97840850  1.0
  H  H34  1  0.56213797  0.50519339  0.17357235  1.0
  H  H35  1  0.69600315  0.61736541  0.27812325  1.0
  H  H36  1  0.29605064  0.38702991  0.74189839  1.0
  H  H37  1  0.54974393  0.65441914  0.05771983  1.0
  H  H38  1  0.36918048  0.50167956  0.86099252  1.0
  H  H39  1  0.68207962  0.76781570  0.16239608  1.0
  H  H40  1  0.92096118  0.10113262  0.17185871  1.0
  H  H41  1  0.25301318  0.28315148  0.63071005  1.0
  H  H42  1  0.92315646  0.12269904  0.05952924  1.0
  H  H43  1  0.86395239  0.10895968  0.85528226  1.0
  H  H44  1  0.12577441  0.18305957  0.94803774  1.0
  H  H45  1  0.15110727  0.11655235  0.11066670  1.0
  H  H46  1  0.12102891  0.16513748  0.82631276  1.0
  H  H47  1  0.70045494  0.84103857  0.48382609  1.0
  H  H48  1  0.86097091  0.12990759  0.43523666  1.0
  H  H49  1  0.12740964  0.14808770  0.72632976  1.0
  H  H50  1  0.80245056  0.73094567  0.38331147  1.0
  H  H51  1  0.41550344  0.71538371  0.35851983  1.0
  H  H52  1  0.25962248  0.73709446  0.52307881  1.0
  H  H53  1  0.30726937  0.73367889  0.17806327  1.0
  H  H54  1  0.15438357  0.71281494  0.26626848  1.0
  H  H55  1  0.22209512  0.71717694  0.70823909  1.0
  H  H56  1  0.10770540  0.49764471  0.70422299  1.0
  H  H57  1  0.13534864  0.62590769  0.38263994  1.0
  H  H58  1  0.78965129  0.08939570  0.74529015  1.0
  H  H59  1  0.20669803  0.08542697  0.19733239  1.0
  C  C60  1  0.92331984  0.02913131  0.62811417  1.0
  C  C61  1  0.99461025  0.23189563  0.49873668  1.0
  C  C62  1  0.27729963  0.24096410  0.72238539  1.0
  C  C63  1  0.66886498  0.89780241  0.40624825  1.0
  C  C64  1  0.81975838  0.77452500  0.36005417  1.0
  C  C65  1  0.13076074  0.98104008  0.41033784  1.0
  C  C66  1  0.08750817  0.85802745  0.60971539  1.0
  C  C67  1  0.95617807  0.04388619  0.27881959  1.0
  C  C68  1  0.09360331  0.12213174  0.34465287  1.0
  C  C69  1  0.95226180  0.78268285  0.53215055  1.0
  C  C70  1  0.82946634  0.84211303  0.29047883  1.0
  C  C71  1  0.06595591  0.22698079  0.53382686  1.0
  C  C72  1  0.11961373  0.90760474  0.47594405  1.0
  C  C73  1  0.77954953  0.76731647  0.28772689  1.0
  C  C74  1  0.14299319  0.91906545  0.42020358  1.0
  C  C75  1  0.02596822  0.77934017  0.56181636  1.0
  C  C76  1  0.02927740  0.08659519  0.27211893  1.0
  C  C77  1  0.45497770  0.94446741  0.40634923  1.0
  C  C78  1  0.40697876  0.81556399  0.41892319  1.0
  C  C79  1  0.33993478  0.83149410  0.43309550  1.0
  C  C80  1  0.18519260  0.88661516  0.39293966  1.0
  C  C81  1  0.43629456  0.85899173  0.37128960  1.0
  C  C82  1  0.25603949  0.16293734  0.71221371  1.0
  C  C83  1  0.37289564  0.94405994  0.39544775  1.0
  C  C84  1  0.30148996  0.85939791  0.37420466  1.0
  C  C85  1  0.28147511  0.80910587  0.29496347  1.0
  C  C86  1  0.36438271  0.82186926  0.29179809  1.0
  C  C87  1  0.23075865  0.86544380  0.37821049  1.0
  C  C88  1  0.51436617  0.86422693  0.37555952  1.0
  C  C89  1  0.58628752  0.88053595  0.39005718  1.0
  C  C90  1  0.10525933  0.50341185  0.54911124  1.0
  C  C91  1  0.94700976  0.44755013  0.51334298  1.0
  C  C92  1  0.97256444  0.53442989  0.53880229  1.0
  C  C93  1  0.72300258  0.94227179  0.38135044  1.0
  C  C94  1  0.03438074  0.71274353  0.54261149  1.0
  C  C95  1  0.01270595  0.43749362  0.49218085  1.0
  C  C96  1  0.11851746  0.58271708  0.54250481  1.0
  C  C97  1  0.03081756  0.57687837  0.50699026  1.0
  C  C98  1  0.99016830  0.52233200  0.42313719  1.0
  C  C99  1  0.99925808  0.44869836  0.41855008  1.0
  C  C100  1  0.03741315  0.65336867  0.52095143  1.0
  C  C101  1  0.00284995  0.36121962  0.48755828  1.0
  C  C102  1  0.99519234  0.30035473  0.49345662  1.0
  C  C103  1  0.70076221  0.70075004  0.22726717  1.0
  C  C104  1  0.24795966  0.23629950  0.64967476  1.0
  C  C105  1  0.65673141  0.71000791  0.16479203  1.0
  C  C106  1  0.58234278  0.64745410  0.10652414  1.0
  C  C107  1  0.54875892  0.57241087  0.10884648  1.0
  C  C108  1  0.58946541  0.56344042  0.17237396  1.0
  C  C109  1  0.66427607  0.62640265  0.23040176  1.0
  C  C110  1  0.38477774  0.36537807  0.92612052  1.0
  C  C111  1  0.34519470  0.30167736  0.85970552  1.0
  C  C112  1  0.39621954  0.43902392  0.92694076  1.0
  C  C113  1  0.31495653  0.30809832  0.79155844  1.0
  C  C114  1  0.32144826  0.38047346  0.79322524  1.0
  C  C115  1  0.71751275  0.87580107  0.45264350  1.0
  C  C116  1  0.36155374  0.44487122  0.85975962  1.0
  C  C117  1  0.98748546  0.11958666  0.76662237  1.0
  C  C118  1  0.06350302  0.15204480  0.83139561  1.0
  C  C119  1  0.06705431  0.16201497  0.90021819  1.0
  C  C120  1  0.99294001  0.14082271  0.90837060  1.0
  C  C121  1  0.92003780  0.12012747  0.84780943  1.0
  C  C122  1  0.91554107  0.10950558  0.77740672  1.0
  C  C123  1  0.97231416  0.11638928  0.09569500  1.0
  C  C124  1  0.97106227  0.10336533  0.15786599  1.0
  C  C125  1  0.03888576  0.12285815  0.07909740  1.0
  C  C126  1  0.92783863  0.15341333  0.46670641  1.0
  C  C127  1  0.03445767  0.09595260  0.20632362  1.0
  C  C128  1  0.10008950  0.09967108  0.18790213  1.0
  C  C129  1  0.10125823  0.11397737  0.12536209  1.0
  C  C130  1  0.06205940  0.10455069  0.68875586  1.0
  C  C131  1  0.98849555  0.09093122  0.69642719  1.0
  C  C132  1  0.38626255  0.73033628  0.39305582  1.0
  C  C133  1  0.27524808  0.76532984  0.44202867  1.0
  C  C134  1  0.35445727  0.75171186  0.23523369  1.0
  C  C135  1  0.21446215  0.72341004  0.26544970  1.0
  C  C136  1  0.18341804  0.65942491  0.60763079  1.0
  C  C137  1  0.13539882  0.50495077  0.62647766  1.0
  C  C138  1  0.02693819  0.56854420  0.38201385  1.0
  C  C139  1  0.83397866  0.09048904  0.72138278  1.0
  C  C140  1  0.16513907  0.08222676  0.22479953  1.0
  N  N141  1  0.95664026  0.00707520  0.58617465  1.0
  N  N142  1  0.10441005  0.00514393  0.45839256  1.0
  N  N143  1  0.05348636  0.90440438  0.60740148  1.0
  N  N144  1  0.97578079  0.05258628  0.34906768  1.0
  N  N145  1  0.06148530  0.10264125  0.39014399  1.0
  N  N146  1  0.96890600  0.85708860  0.55891364  1.0
  N  N147  1  0.89229458  0.89024459  0.35946761  1.0
  N  N148  1  0.09767984  0.96023182  0.49865576  1.0
  N  N149  1  0.48221839  0.50234523  0.04894045  1.0
  N  N150  1  0.44896499  0.51021992  0.99008318  1.0
  N  N151  1  0.98557579  0.13481626  0.97196260  1.0
  N  N152  1  0.04343531  0.15139449  0.52168401  1.0
  N  N153  1  0.04688803  0.13431241  0.01720356  1.0
  N  N154  1  0.21533900  0.11560644  0.63990581  1.0
  N  N155  1  0.79727865  0.94598596  0.41044516  1.0
  N  N156  1  0.21049961  0.16171063  0.60068896  1.0
  N  N157  1  0.79375590  0.90469654  0.45465254  1.0
  N  N158  1  0.95833673  0.10600901  0.48029459  1.0
  N  N159  1  0.04203040  0.05373193  0.62334288  1.0
  N  N160  1  0.88599931  0.84807776  0.40257474  1.0
  O  O161  1  0.34448825  0.68282087  0.41213657  1.0
  O  O162  1  0.20701153  0.71233544  0.39053331  1.0
  O  O163  1  0.29975472  0.77739006  0.51313184  1.0
  O  O164  1  0.40007468  0.72392999  0.24657388  1.0
  O  O165  1  0.22342575  0.66911398  0.23842665  1.0
  O  O166  1  0.23656667  0.71497689  0.60344296  1.0
  O  O167  1  0.17747652  0.66429901  0.67116694  1.0
  O  O168  1  0.20417364  0.51337454  0.66055316  1.0
  O  O169  1  0.07990599  0.49537225  0.65492340  1.0
  O  O170  1  0.99125403  0.59415877  0.34445620  1.0
  O  O171  1  0.10445512  0.58087805  0.39478681  1.0
  O  O172  1  0.81237364  0.07846436  0.65606061  1.0
  O  O173  1  0.17588559  0.06359660  0.27771262  1.0
