# generated using pymatgen
data_ZnH16C22N3O4
_symmetry_space_group_name_H-M   'P 1'
_cell_length_a   9.94047899
_cell_length_b   10.82581389
_cell_length_c   15.39066386
_cell_angle_alpha   84.86496959
_cell_angle_beta   89.25846129
_cell_angle_gamma   88.76133330
_symmetry_Int_Tables_number   1
_chemical_formula_structural   ZnH16C22N3O4
_chemical_formula_sum   'Zn2 H32 C44 N6 O8'
_cell_volume   1649.11390764
_cell_formula_units_Z   2
loop_
 _symmetry_equiv_pos_site_id
 _symmetry_equiv_pos_as_xyz
  1  'x, y, z'
loop_
 _atom_site_type_symbol
 _atom_site_label
 _atom_site_symmetry_multiplicity
 _atom_site_fract_x
 _atom_site_fract_y
 _atom_site_fract_z
 _atom_site_occupancy
  Zn  Zn0  1  0.65056249  0.50614964  0.49700998  1.0
  Zn  Zn1  1  0.34942127  0.49385609  0.50302790  1.0
  H  H2  1  0.47472415  0.80639227  0.07207168  1.0
  H  H3  1  0.52535251  0.19360533  0.92794587  1.0
  H  H4  1  0.55163776  0.87307401  0.85064279  1.0
  H  H5  1  0.37784210  0.88839052  0.87065757  1.0
  H  H6  1  0.49373690  0.92968780  0.94953694  1.0
  H  H7  1  0.44840678  0.12692272  0.14936461  1.0
  H  H8  1  0.50632331  0.07032293  0.05047031  1.0
  H  H9  1  0.62221210  0.11165259  0.12935005  1.0
  H  H10  1  0.22148404  0.82646816  0.46182490  1.0
  H  H11  1  0.17199969  0.98226703  0.43057267  1.0
  H  H12  1  0.26604920  0.89592827  0.35686321  1.0
  H  H13  1  0.77853676  0.17351772  0.53816630  1.0
  H  H14  1  0.73395898  0.10410623  0.64314318  1.0
  H  H15  1  0.82800861  0.01772708  0.56945524  1.0
  H  H16  1  0.34912627  0.26118346  0.38997146  1.0
  H  H17  1  0.27408243  0.13001675  0.35147796  1.0
  H  H18  1  0.21374120  0.18916182  0.44855587  1.0
  H  H19  1  0.65087911  0.73881122  0.61003369  1.0
  H  H20  1  0.78626218  0.81083297  0.55144474  1.0
  H  H21  1  0.72592587  0.86998066  0.64853029  1.0
  H  H22  1  0.24052086  0.30463357  0.59746052  1.0
  H  H23  1  0.14526814  0.35874512  0.68535811  1.0
  H  H24  1  0.08280664  0.23878016  0.62651417  1.0
  H  H25  1  0.75942626  0.69533007  0.40251276  1.0
  H  H26  1  0.91712351  0.76123879  0.37350065  1.0
  H  H27  1  0.85477109  0.64126306  0.31463511  1.0
  H  H28  1  0.24777716  0.64917470  0.37650962  1.0
  H  H29  1  0.16758788  0.54963166  0.30979301  1.0
  H  H30  1  0.09466792  0.69762905  0.32498375  1.0
  H  H31  1  0.75230769  0.35065796  0.62347583  1.0
  H  H32  1  0.90540810  0.30260052  0.67516127  1.0
  H  H33  1  0.83210340  0.45051388  0.69014032  1.0
  C  C34  1  0.47305154  0.73582444  0.49102879  1.0
  C  C35  1  0.52694247  0.26417598  0.50900214  1.0
  C  C36  1  0.52554241  0.48773515  0.32873970  1.0
  C  C37  1  0.47443612  0.51227922  0.67128543  1.0
  C  C38  1  0.50941962  0.39903791  0.81896209  1.0
  C  C39  1  0.49057967  0.60095746  0.18105087  1.0
  C  C40  1  0.48402546  0.51164242  0.76935840  1.0
  C  C41  1  0.51598071  0.48835751  0.23065883  1.0
  C  C42  1  0.46518557  0.62140730  0.81112925  1.0
  C  C43  1  0.53484676  0.37859176  0.18889240  1.0
  C  C44  1  0.47860187  0.62205504  0.90330309  1.0
  C  C45  1  0.52144550  0.37794603  0.09671642  1.0
  C  C46  1  0.49714615  0.50460900  0.95351450  1.0
  C  C47  1  0.50291642  0.49538954  0.04649919  1.0
  C  C48  1  0.51072032  0.39308358  0.91137478  1.0
  C  C49  1  0.48932520  0.60691302  0.08863782  1.0
  C  C50  1  0.47500818  0.73407959  0.94802227  1.0
  C  C51  1  0.52502708  0.26592335  0.05199332  1.0
  C  C52  1  0.47813265  0.72252856  0.03758582  1.0
  C  C53  1  0.52192085  0.27746988  0.96242924  1.0
  C  C54  1  0.38182734  0.95619231  0.46297623  1.0
  C  C55  1  0.61817280  0.04380761  0.53703974  1.0
  C  C56  1  0.40338809  0.08448596  0.46085571  1.0
  C  C57  1  0.59661095  0.91551672  0.53916078  1.0
  C  C58  1  0.51897649  0.12756419  0.50046414  1.0
  C  C59  1  0.48102565  0.87243570  0.49955377  1.0
  C  C60  1  0.06777899  0.41908682  0.55832796  1.0
  C  C61  1  0.93220434  0.58093609  0.44169087  1.0
  C  C62  1  0.07224969  0.55992483  0.43371607  1.0
  C  C63  1  0.92773690  0.44012199  0.56630999  1.0
  C  C64  1  0.53204823  0.28837828  0.77681208  1.0
  C  C65  1  0.46793804  0.71161408  0.22320631  1.0
  C  C66  1  0.42382850  0.72835867  0.75631267  1.0
  C  C67  1  0.57617969  0.27164023  0.24370915  1.0
  C  C68  1  0.47414613  0.86262371  0.90209181  1.0
  C  C69  1  0.52590000  0.13738581  0.09792273  1.0
  C  C70  1  0.25305119  0.91279414  0.42602800  1.0
  C  C71  1  0.74695601  0.08720597  0.57398272  1.0
  C  C72  1  0.30550762  0.17134532  0.41038237  1.0
  C  C73  1  0.69449764  0.82865301  0.58962520  1.0
  C  C74  1  0.13869294  0.32564224  0.62011111  1.0
  C  C75  1  0.86128021  0.67435422  0.37988896  1.0
  C  C76  1  0.14937354  0.61832951  0.35742893  1.0
  C  C77  1  0.85059735  0.38173658  0.64260017  1.0
  N  N78  1  0.86222200  0.51844070  0.50692625  1.0
  N  N79  1  0.13776709  0.48159157  0.49309013  1.0
  N  N80  1  0.55286396  0.19601473  0.74450055  1.0
  N  N81  1  0.44718539  0.80398834  0.25551365  1.0
  N  N82  1  0.38337292  0.81059268  0.70869770  1.0
  N  N83  1  0.61663670  0.18939018  0.29133531  1.0
  O  O84  1  0.58381818  0.68135202  0.47282776  1.0
  O  O85  1  0.41617874  0.31865327  0.52719511  1.0
  O  O86  1  0.63856506  0.32027180  0.49962884  1.0
  O  O87  1  0.36143003  0.67972470  0.50041073  1.0
  O  O88  1  0.64225261  0.49635824  0.35817545  1.0
  O  O89  1  0.35772599  0.50361880  0.64186000  1.0
  O  O90  1  0.58590886  0.51938496  0.63025283  1.0
  O  O91  1  0.41407739  0.48063960  0.36977435  1.0
