# generated using pymatgen
data_Zn8H36C70Cl6O29
_symmetry_space_group_name_H-M   'P 1'
_cell_length_a   18.20219847
_cell_length_b   18.20952595
_cell_length_c   18.30706423
_cell_angle_alpha   60.44381605
_cell_angle_beta   60.58784401
_cell_angle_gamma   60.50516427
_symmetry_Int_Tables_number   1
_chemical_formula_structural   Zn8H36C70Cl6O29
_chemical_formula_sum   'Zn8 H36 C70 Cl6 O29'
_cell_volume   4340.33779969
_cell_formula_units_Z   1
loop_
 _symmetry_equiv_pos_site_id
 _symmetry_equiv_pos_as_xyz
  1  'x, y, z'
loop_
 _atom_site_type_symbol
 _atom_site_label
 _atom_site_symmetry_multiplicity
 _atom_site_fract_x
 _atom_site_fract_y
 _atom_site_fract_z
 _atom_site_occupancy
  Zn  Zn0  1  0.13644464  0.95278100  0.45903062  1.0
  Zn  Zn1  1  0.95853445  0.12743613  0.45851313  1.0
  Zn  Zn2  1  0.95503556  0.95799427  0.63107281  1.0
  Zn  Zn3  1  0.95831990  0.95275792  0.45903167  1.0
  Zn  Zn4  1  0.37036330  0.54837690  0.04190001  1.0
  Zn  Zn5  1  0.54315802  0.54422912  0.87151495  1.0
  Zn  Zn6  1  0.54292880  0.36886713  0.04286525  1.0
  Zn  Zn7  1  0.54049115  0.54380801  0.05121842  1.0
  H  H8  1  0.37855254  0.65362057  0.28065430  1.0
  H  H9  1  0.95778561  0.72255565  0.55717650  1.0
  H  H10  1  0.99441262  0.58201132  0.53840273  1.0
  H  H11  1  0.91242972  0.47398355  0.65577092  1.0
  H  H12  1  0.64184995  0.76708004  0.88197582  1.0
  H  H13  1  0.97835779  0.09799039  0.22446565  1.0
  H  H14  1  0.04954994  0.10686227  0.06684606  1.0
  H  H15  1  0.96300950  0.20967519  0.96146004  1.0
  H  H16  1  0.17708271  0.66761122  0.26308376  1.0
  H  H17  1  0.60137101  0.33556776  0.30175616  1.0
  H  H18  1  0.85592862  0.11267215  0.78734103  1.0
  H  H19  1  0.32427010  0.82418838  0.25060487  1.0
  H  H20  1  0.72514974  0.25892895  0.55639287  1.0
  H  H21  1  0.59724340  0.39206237  0.52382786  1.0
  H  H22  1  0.51002028  0.49067232  0.61807686  1.0
  H  H23  1  0.55030359  0.45356207  0.74477744  1.0
  H  H24  1  0.76515118  0.20821611  0.88450597  1.0
  H  H25  1  0.28127575  0.11861864  0.23771196  1.0
  H  H26  1  0.06742177  0.25183224  0.46573706  1.0
  H  H27  1  0.04160052  0.38102463  0.49673682  1.0
  H  H28  1  0.18686401  0.74661369  0.15540217  1.0
  H  H29  1  0.13271415  0.48264447  0.38939986  1.0
  H  H30  1  0.39502629  0.77170199  0.12944940  1.0
  H  H31  1  0.24827160  0.45408228  0.25212093  1.0
  H  H32  1  0.37346060  0.21898734  0.13220077  1.0
  H  H33  1  0.29865309  0.83064957  0.09635923  1.0
  H  H34  1  0.27097673  0.71841250  0.38729787  1.0
  H  H35  1  0.26404981  0.75351840  0.91154968  1.0
  H  H36  1  0.76652127  0.49869062  0.85667510  1.0
  H  H37  1  0.20926081  0.95307181  0.15102897  1.0
  H  H38  1  0.14874429  0.88598067  0.75775699  1.0
  H  H39  1  0.25900561  0.52510971  0.65660187  1.0
  H  H40  1  0.36622951  0.43688978  0.74188865  1.0
  H  H41  1  0.38578438  0.50764311  0.81302215  1.0
  H  H42  1  0.74373888  0.85824153  0.78384540  1.0
  H  H43  1  0.08059641  0.79094300  0.31073475  1.0
  C  C44  1  0.86586979  0.13275860  0.36139786  1.0
  C  C45  1  0.34149984  0.54743449  0.77342895  1.0
  C  C46  1  0.29442838  0.63897820  0.76542687  1.0
  C  C47  1  0.13625374  0.85149154  0.64371702  1.0
  C  C48  1  0.23549154  0.69165462  0.71290005  1.0
  C  C49  1  0.18818775  0.78367050  0.70672564  1.0
  C  C50  1  0.18831802  0.81707082  0.75963004  1.0
  C  C51  1  0.23939985  0.76381749  0.81744707  1.0
  C  C52  1  0.29823753  0.67796664  0.81476401  1.0
  C  C53  1  0.91862057  0.67852571  0.60565187  1.0
  C  C54  1  0.93902126  0.59963243  0.59556377  1.0
  C  C55  1  0.23995694  0.71315011  0.35245297  1.0
  C  C56  1  0.89268666  0.53909144  0.66021200  1.0
  C  C57  1  0.82342640  0.55970248  0.73384022  1.0
  C  C58  1  0.79349804  0.64484941  0.74229257  1.0
  C  C59  1  0.13959340  0.13831749  0.37722513  1.0
  C  C60  1  0.84638114  0.70307242  0.67909517  1.0
  C  C61  1  0.82533301  0.78123302  0.69632154  1.0
  C  C62  1  0.75603880  0.80011743  0.77101765  1.0
  C  C63  1  0.70005872  0.74784008  0.82724098  1.0
  C  C64  1  0.71632732  0.67297874  0.81205552  1.0
  C  C65  1  0.94022148  0.14211430  0.17869391  1.0
  C  C66  1  0.19706706  0.80913863  0.29489388  1.0
  C  C67  1  0.97995128  0.14674766  0.09102278  1.0
  C  C68  1  0.93136295  0.20418964  0.03137374  1.0
  C  C69  1  0.84306989  0.25534344  0.06056794  1.0
  C  C70  1  0.79734288  0.25141142  0.15137341  1.0
  C  C71  1  0.87514892  0.84644251  0.63700820  1.0
  C  C72  1  0.84965936  0.19392150  0.21052122  1.0
  C  C73  1  0.81038484  0.19043742  0.30090834  1.0
  C  C74  1  0.72271916  0.24133696  0.33194643  1.0
  C  C75  1  0.67068645  0.29652318  0.27545944  1.0
  C  C76  1  0.70626629  0.30093208  0.18769141  1.0
  C  C77  1  0.29749270  0.70217678  0.20004205  1.0
  C  C78  1  0.68719503  0.30069962  0.59823736  1.0
  C  C79  1  0.61565684  0.37571616  0.57984289  1.0
  C  C80  1  0.56636199  0.43116859  0.63298718  1.0
  C  C81  1  0.58862809  0.41014555  0.70450652  1.0
  C  C82  1  0.66151055  0.33295103  0.72613177  1.0
  C  C83  1  0.84725895  0.13958669  0.63791002  1.0
  C  C84  1  0.71278691  0.27702536  0.67100005  1.0
  C  C85  1  0.78497375  0.19822453  0.69411018  1.0
  C  C86  1  0.80169676  0.17382670  0.77063442  1.0
  C  C87  1  0.75097475  0.22745200  0.82498459  1.0
  C  C88  1  0.32224548  0.78842705  0.15403698  1.0
  C  C89  1  0.68368411  0.30654274  0.80253313  1.0
  C  C90  1  0.10744057  0.29545690  0.41868604  1.0
  C  C91  1  0.09285249  0.36814424  0.43579421  1.0
  C  C92  1  0.14404410  0.42559017  0.37524340  1.0
  C  C93  1  0.20917685  0.40944027  0.29836698  1.0
  C  C94  1  0.22656397  0.33491667  0.27855161  1.0
  C  C95  1  0.14098853  0.86828788  0.35401329  1.0
  C  C96  1  0.17424874  0.27619992  0.34031253  1.0
  C  C97  1  0.19471525  0.19886639  0.32213040  1.0
  C  C98  1  0.26617578  0.17867471  0.24908136  1.0
  C  C99  1  0.31284913  0.65615421  0.29074546  1.0
  C  C100  1  0.31753524  0.23535801  0.18952594  1.0
  C  C101  1  0.29732138  0.31307224  0.20216072  1.0
  C  C102  1  0.64473851  0.63037606  0.86790766  1.0
  C  C103  1  0.35474673  0.37013054  0.13485604  1.0
  C  C104  1  0.36244416  0.63178625  0.86316878  1.0
  C  C105  1  0.64028041  0.35887781  0.13803109  1.0
  C  C106  1  0.63595328  0.36230895  0.86113240  1.0
  C  C107  1  0.14203972  0.80182662  0.25785924  1.0
  C  C108  1  0.35809932  0.64131053  0.14311238  1.0
  C  C109  1  0.19816746  0.72666371  0.21704072  1.0
  C  C110  1  0.22434710  0.64659029  0.67558155  1.0
  C  C111  1  0.27750909  0.84057938  0.21908983  1.0
  C  C112  1  0.27081440  0.55701732  0.68504599  1.0
  C  C113  1  0.33020000  0.50770589  0.73381013  1.0
  Cl  Cl114  1  0.10064660  0.90703670  0.17612411  1.0
  Cl  Cl115  1  0.14608275  0.69948044  0.62186464  1.0
  Cl  Cl116  1  0.67385041  0.23775017  0.44153232  1.0
  Cl  Cl117  1  0.79230808  0.32685164  0.97929003  1.0
  Cl  Cl118  1  0.15465213  0.66573701  0.43971700  1.0
  Cl  Cl119  1  0.31931712  0.54137449  0.33849703  1.0
  O  O120  1  0.00489546  0.99630006  0.50077767  1.0
  O  O121  1  0.61082994  0.31894087  0.12305880  1.0
  O  O122  1  0.62120268  0.44620425  0.82328473  1.0
  O  O123  1  0.87289991  0.05047280  0.39713756  1.0
  O  O124  1  0.44209791  0.62060552  0.12222609  1.0
  O  O125  1  0.61543247  0.32051610  0.94485834  1.0
  O  O126  1  0.31943498  0.61741143  0.12079619  1.0
  O  O127  1  0.33475575  0.64585896  0.93708520  1.0
  O  O128  1  0.61530362  0.44251777  0.12217010  1.0
  O  O129  1  0.60722409  0.62621121  0.82736187  1.0
  O  O130  1  0.43835282  0.32863766  0.10994918  1.0
  O  O131  1  0.18110532  0.05503211  0.38792135  1.0
  O  O132  1  0.18094101  0.87450780  0.56125256  1.0
  O  O133  1  0.05512272  0.17525003  0.40661192  1.0
  O  O134  1  0.88201866  0.88423754  0.67530201  1.0
  O  O135  1  0.86585556  0.17624939  0.55369982  1.0
  O  O136  1  0.05748702  0.90039740  0.36783877  1.0
  O  O137  1  0.87969055  0.05659505  0.67895602  1.0
  O  O138  1  0.18346159  0.87779714  0.38522264  1.0
  O  O139  1  0.23088560  0.80186211  0.86969187  1.0
  O  O140  1  0.78649496  0.49427901  0.79841427  1.0
  O  O141  1  0.25448588  0.93472003  0.17648648  1.0
  O  O142  1  0.90477476  0.86158752  0.55321022  1.0
  O  O143  1  0.90111095  0.17208857  0.37009322  1.0
  O  O144  1  0.05280157  0.88435566  0.68066483  1.0
  O  O145  1  0.50057420  0.50058404  0.00243246  1.0
  O  O146  1  0.62510780  0.60561843  0.95195995  1.0
  O  O147  1  0.31608289  0.45484151  0.10677521  1.0
  O  O148  1  0.44169505  0.58401541  0.83099502  1.0
