# generated using pymatgen
data_ZnH12C16(NO2)2
_symmetry_space_group_name_H-M   'P 1'
_cell_length_a   11.04841167
_cell_length_b   12.38639802
_cell_length_c   21.26340000
_cell_angle_alpha   74.44761691
_cell_angle_beta   75.19218953
_cell_angle_gamma   63.55785145
_symmetry_Int_Tables_number   1
_chemical_formula_structural   ZnH12C16(NO2)2
_chemical_formula_sum   'Zn4 H48 C64 N8 O16'
_cell_volume   2478.59883605
_cell_formula_units_Z   4
loop_
 _symmetry_equiv_pos_site_id
 _symmetry_equiv_pos_as_xyz
  1  'x, y, z'
loop_
 _atom_site_type_symbol
 _atom_site_label
 _atom_site_symmetry_multiplicity
 _atom_site_fract_x
 _atom_site_fract_y
 _atom_site_fract_z
 _atom_site_occupancy
  Zn  Zn0  1  0.37051275  0.86724668  0.27342050  1.0
  Zn  Zn1  1  0.51081118  0.63282245  0.22637563  1.0
  Zn  Zn2  1  0.62948274  0.13275237  0.72657874  1.0
  Zn  Zn3  1  0.48918619  0.36717660  0.77362477  1.0
  H  H4  1  0.39203029  0.72782425  0.47885128  1.0
  H  H5  1  0.59839516  0.77219814  0.02126618  1.0
  H  H6  1  0.60796780  0.27217937  0.52114926  1.0
  H  H7  1  0.40160303  0.22779907  0.97873346  1.0
  H  H8  1  0.56103693  0.39004942  0.40662494  1.0
  H  H9  1  0.35786671  0.11024883  0.09307743  1.0
  H  H10  1  0.43896024  0.60995420  0.59337571  1.0
  H  H11  1  0.64213481  0.88974930  0.90692351  1.0
  H  H12  1  0.72385541  0.92683001  0.27848954  1.0
  H  H13  1  0.92860341  0.57285700  0.22155996  1.0
  H  H14  1  0.27613988  0.07317361  0.72150619  1.0
  H  H15  1  0.07139510  0.42714571  0.77843925  1.0
  H  H16  1  0.95091166  0.92551323  0.28030103  1.0
  H  H17  1  0.15604466  0.57443585  0.21964327  1.0
  H  H18  1  0.04908092  0.07449223  0.71969901  1.0
  H  H19  1  0.84395239  0.42556594  0.78036004  1.0
  H  H20  1  0.47287701  0.07466450  0.19850502  1.0
  H  H21  1  0.74643454  0.42482737  0.30203467  1.0
  H  H22  1  0.52712763  0.92533088  0.80149217  1.0
  H  H23  1  0.25356916  0.57516801  0.69796640  1.0
  H  H24  1  0.50790921  0.26861113  0.17639923  1.0
  H  H25  1  0.95335674  0.23100902  0.32420636  1.0
  H  H26  1  0.49209365  0.73138608  0.82359744  1.0
  H  H27  1  0.04664799  0.76898819  0.67579430  1.0
  H  H28  1  0.38160711  0.42192256  0.25045796  1.0
  H  H29  1  0.05404953  0.07809437  0.24984880  1.0
  H  H30  1  0.61839992  0.57807373  0.74953971  1.0
  H  H31  1  0.94595479  0.92190376  0.75015129  1.0
  H  H32  1  0.21659942  0.38757621  0.34916004  1.0
  H  H33  1  0.95285518  0.11286774  0.15072268  1.0
  H  H34  1  0.78341041  0.61242008  0.65083914  1.0
  H  H35  1  0.04715144  0.88712948  0.84927678  1.0
  H  H36  1  0.01981225  0.02892527  0.42862731  1.0
  H  H37  1  0.47625483  0.47164422  0.07068866  1.0
  H  H38  1  0.98018823  0.97107928  0.57137371  1.0
  H  H39  1  0.52374950  0.52835391  0.92931143  1.0
  H  H40  1  0.18103619  0.91372357  0.44890320  1.0
  H  H41  1  0.54272020  0.58655357  0.05084670  1.0
  H  H42  1  0.81896378  0.08628006  0.55109709  1.0
  H  H43  1  0.45728277  0.41344548  0.94915343  1.0
  H  H44  1  0.12187593  0.91280356  0.37902527  1.0
  H  H45  1  0.41343513  0.58756154  0.12042344  1.0
  H  H46  1  0.87812206  0.08719823  0.62097603  1.0
  H  H47  1  0.58656920  0.41243658  0.87957665  1.0
  H  H48  1  0.10933548  0.20000641  0.41655045  1.0
  H  H49  1  0.72520922  0.30037431  0.08300437  1.0
  H  H50  1  0.89067176  0.79999355  0.58344803  1.0
  H  H51  1  0.27479656  0.69962473  0.91699586  1.0
  C  C52  1  0.44872679  0.63413648  0.36916161  1.0
  C  C53  1  0.45166318  0.86604169  0.13063738  1.0
  C  C54  1  0.55126893  0.36587447  0.63083951  1.0
  C  C55  1  0.54832753  0.13396377  0.86936291  1.0
  C  C56  1  0.47334956  0.56484725  0.43709213  1.0
  C  C57  1  0.47515106  0.93526403  0.06282259  1.0
  C  C58  1  0.52664811  0.43515730  0.56290832  1.0
  C  C59  1  0.52484712  0.06473318  0.93717705  1.0
  C  C60  1  0.43853529  0.62801073  0.48911805  1.0
  C  C61  1  0.55541328  0.87200708  0.01093060  1.0
  C  C62  1  0.56146228  0.37199198  0.51088270  1.0
  C  C63  1  0.44458823  0.12799105  0.98906799  1.0
  C  C64  1  0.53507083  0.43657946  0.44807003  1.0
  C  C65  1  0.41976783  0.06354285  0.05177831  1.0
  C  C66  1  0.46492528  0.56342233  0.55193153  1.0
  C  C67  1  0.58022942  0.93645436  0.94822193  1.0
  C  C68  1  0.67742805  0.74982289  0.25006598  1.0
  C  C69  1  0.32256486  0.25018807  0.74993080  1.0
  C  C70  1  0.81330498  0.74985221  0.25004009  1.0
  C  C71  1  0.18669083  0.25015233  0.74995778  1.0
  C  C72  1  0.81931930  0.84964832  0.26631929  1.0
  C  C73  1  0.93496972  0.65005793  0.23374693  1.0
  C  C74  1  0.18067421  0.15035714  0.73367828  1.0
  C  C75  1  0.06502557  0.34994569  0.76625256  1.0
  C  C76  1  0.94521463  0.84903345  0.26702463  1.0
  C  C77  1  0.06090203  0.65087348  0.23291890  1.0
  C  C78  1  0.05478014  0.15096926  0.73297554  1.0
  C  C79  1  0.93909221  0.34912832  0.76708384  1.0
  C  C80  1  0.20283402  0.75015552  0.24981338  1.0
  C  C81  1  0.79715762  0.24984994  0.75019243  1.0
  C  C82  1  0.06703650  0.74999149  0.24993235  1.0
  C  C83  1  0.93295692  0.25001213  0.75006880  1.0
  C  C84  1  0.25403926  0.21104192  0.32837861  1.0
  C  C85  1  0.79300631  0.28909780  0.17159553  1.0
  C  C86  1  0.74596507  0.78895621  0.67162007  1.0
  C  C87  1  0.20699990  0.71090032  0.82840384  1.0
  C  C88  1  0.32422254  0.12380337  0.28596553  1.0
  C  C89  1  0.73378433  0.37607886  0.21418654  1.0
  C  C90  1  0.67578126  0.87619384  0.71403431  1.0
  C  C91  1  0.26621480  0.62391835  0.78581485  1.0
  C  C92  1  0.41699337  0.14309238  0.23032914  1.0
  C  C93  1  0.79057012  0.35659559  0.27004558  1.0
  C  C94  1  0.58300751  0.85690300  0.76966855  1.0
  C  C95  1  0.20943046  0.64340254  0.72995454  1.0
  C  C96  1  0.43525265  0.25134816  0.21896077  1.0
  C  C97  1  0.90578327  0.24836821  0.28147020  1.0
  C  C98  1  0.56475375  0.74864539  0.78103788  1.0
  C  C99  1  0.09421731  0.75162991  0.71853133  1.0
  C  C100  1  0.36410029  0.33844193  0.26110942  1.0
  C  C101  1  0.96365604  0.16155943  0.23913445  1.0
  C  C102  1  0.63590632  0.66155528  0.73888722  1.0
  C  C103  1  0.03634787  0.83843962  0.76086791  1.0
  C  C104  1  0.27163846  0.31990066  0.31679633  1.0
  C  C105  1  0.90798929  0.18034353  0.18322170  1.0
  C  C106  1  0.72836908  0.68009656  0.68320207  1.0
  C  C107  1  0.09201680  0.81965277  0.81678032  1.0
  C  C108  1  0.19434716  0.05125103  0.36508040  1.0
  C  C109  1  0.61007463  0.44882454  0.13471297  1.0
  C  C110  1  0.80565799  0.94874526  0.63491987  1.0
  C  C111  1  0.38993052  0.55117175  0.86528824  1.0
  C  C112  1  0.12472012  0.97265905  0.40791608  1.0
  C  C113  1  0.50456557  0.52761533  0.09165362  1.0
  C  C114  1  0.87528067  0.02734274  0.59208344  1.0
  C  C115  1  0.49543835  0.47238371  0.90834685  1.0
  N  N116  1  0.17380230  0.16142839  0.37772092  1.0
  N  N117  1  0.71224948  0.33878831  0.12203297  1.0
  N  N118  1  0.82620255  0.83857066  0.62227849  1.0
  N  N119  1  0.28775619  0.66120890  0.87796897  1.0
  N  N120  1  0.28392966  0.02655652  0.31018583  1.0
  N  N121  1  0.62031608  0.47330005  0.18983430  1.0
  N  N122  1  0.71606967  0.97344436  0.68981309  1.0
  N  N123  1  0.37968773  0.52669716  0.81016694  1.0
  O  O124  1  0.40712758  0.74998416  0.36085348  1.0
  O  O125  1  0.51712169  0.75011062  0.13898006  1.0
  O  O126  1  0.59286958  0.25001946  0.63914765  1.0
  O  O127  1  0.48287264  0.24988476  0.86102038  1.0
  O  O128  1  0.47306810  0.57169324  0.32514009  1.0
  O  O129  1  0.36978561  0.92857656  0.17451557  1.0
  O  O130  1  0.52693186  0.42831038  0.67485926  1.0
  O  O131  1  0.63020498  0.07141882  0.82548208  1.0
  O  O132  1  0.57233858  0.84964649  0.25582219  1.0
  O  O133  1  0.67773572  0.64995255  0.24433942  1.0
  O  O134  1  0.42765918  0.15035164  0.74417455  1.0
  O  O135  1  0.32225998  0.35005016  0.75565687  1.0
  O  O136  1  0.20178573  0.82976552  0.27780151  1.0
  O  O137  1  0.30882330  0.67075994  0.22169702  1.0
  O  O138  1  0.79820600  0.17023352  0.72220388  1.0
  O  O139  1  0.69117344  0.32924460  0.77830684  1.0
