# generated using pymatgen
data_Zn2H13C24N2O8F
_symmetry_space_group_name_H-M   'P 1'
_cell_length_a   9.74553789
_cell_length_b   11.08449979
_cell_length_c   14.14008686
_cell_angle_alpha   88.92634922
_cell_angle_beta   80.61792697
_cell_angle_gamma   88.84994367
_symmetry_Int_Tables_number   1
_chemical_formula_structural   Zn2H13C24N2O8F
_chemical_formula_sum   'Zn2 H13 C24 N2 O8 F1'
_cell_volume   1506.55309682
_cell_formula_units_Z   1
loop_
 _symmetry_equiv_pos_site_id
 _symmetry_equiv_pos_as_xyz
  1  'x, y, z'
loop_
 _atom_site_type_symbol
 _atom_site_label
 _atom_site_symmetry_multiplicity
 _atom_site_fract_x
 _atom_site_fract_y
 _atom_site_fract_z
 _atom_site_occupancy
  Zn  Zn0  1  0.63563255  0.50170542  0.49750387  1.0
  Zn  Zn1  1  0.34926518  0.50672577  0.51197621  1.0
  H  H2  1  0.65639766  0.50714246  0.98176773  1.0
  H  H3  1  0.82973718  0.40904002  0.62931343  1.0
  H  H4  1  0.90349837  0.70576584  0.33824804  1.0
  H  H5  1  0.18503962  0.57015983  0.28410712  1.0
  H  H6  1  0.16445653  0.71094231  0.34556165  1.0
  H  H7  1  0.33585615  0.49516068  0.02837232  1.0
  H  H8  1  0.27244655  0.89188440  0.55131564  1.0
  H  H9  1  0.26863642  0.11604512  0.55471872  1.0
  H  H10  1  0.79957698  0.12286376  0.38641380  1.0
  H  H11  1  0.82545268  0.11482426  0.50835480  1.0
  H  H12  1  0.80211931  0.89687988  0.38000967  1.0
  H  H13  1  0.83023953  0.88744645  0.50186951  1.0
  H  H14  1  0.08634473  0.41669132  0.63847823  1.0
  C  C15  1  0.49441523  0.73978938  0.50349828  1.0
  C  C16  1  0.53983391  0.50348434  0.21333078  1.0
  C  C17  1  0.61460907  0.94138806  0.48507005  1.0
  C  C18  1  0.49387213  0.87419134  0.50690997  1.0
  C  C19  1  0.36902780  0.94126926  0.53269532  1.0
  C  C20  1  0.36699351  0.06707450  0.53490737  1.0
  C  C21  1  0.48974833  0.13434201  0.51183235  1.0
  C  C22  1  0.61256219  0.06735340  0.48769181  1.0
  C  C23  1  0.76821500  0.07636133  0.45560355  1.0
  C  C24  1  0.77059641  0.93383772  0.45205518  1.0
  C  C25  1  0.08300437  0.55286106  0.43428543  1.0
  C  C26  1  0.52666017  0.50306714  0.31661210  1.0
  C  C27  1  0.04499007  0.45502091  0.57712336  1.0
  C  C28  1  0.90313089  0.44963144  0.57166307  1.0
  C  C29  1  0.94220591  0.54617838  0.42846163  1.0
  C  C30  1  0.95927905  0.61835338  0.33409657  1.0
  C  C31  1  0.11995671  0.62153122  0.34072227  1.0
  C  C32  1  0.48735652  0.26885371  0.51122441  1.0
  C  C33  1  0.45911414  0.50290589  0.69359968  1.0
  C  C34  1  0.44821808  0.50066286  0.79675353  1.0
  C  C35  1  0.43830489  0.49900626  0.98333453  1.0
  C  C36  1  0.55365489  0.50337768  0.02641693  1.0
  C  C37  1  0.54637253  0.50349097  0.12636345  1.0
  C  C38  1  0.44427851  0.49964565  0.88351754  1.0
  N  N39  1  0.13793976  0.50894275  0.50828977  1.0
  N  N40  1  0.84868914  0.49680759  0.49634637  1.0
  O  O41  1  0.61270081  0.68613712  0.49607937  1.0
  O  O42  1  0.37737459  0.68852013  0.50809056  1.0
  O  O43  1  0.63870181  0.50334693  0.35180900  1.0
  O  O44  1  0.40279457  0.50247209  0.36296683  1.0
  O  O45  1  0.60519906  0.31969903  0.50275727  1.0
  O  O46  1  0.36946382  0.32291413  0.51809417  1.0
  O  O47  1  0.58251707  0.50183611  0.64646785  1.0
  O  O48  1  0.34599067  0.50618795  0.65932290  1.0
  F  F49  1  0.93110496  0.55775372  0.25464422  1.0
