# generated using pymatgen
data_Zr3H8C20(N3O8)2
_symmetry_space_group_name_H-M   'P 1'
_cell_length_a   15.47812649
_cell_length_b   18.97137936
_cell_length_c   18.98182897
_cell_angle_alpha   88.77638742
_cell_angle_beta   89.85497453
_cell_angle_gamma   89.89487746
_symmetry_Int_Tables_number   1
_chemical_formula_structural   Zr3H8C20(N3O8)2
_chemical_formula_sum   'Zr6 H16 C40 N12 O32'
_cell_volume   5572.55330472
_cell_formula_units_Z   2
loop_
 _symmetry_equiv_pos_site_id
 _symmetry_equiv_pos_as_xyz
  1  'x, y, z'
loop_
 _atom_site_type_symbol
 _atom_site_label
 _atom_site_symmetry_multiplicity
 _atom_site_fract_x
 _atom_site_fract_y
 _atom_site_fract_z
 _atom_site_occupancy
  Zr  Zr0  1  0.99351561  0.09974692  0.01015711  1.0
  Zr  Zr1  1  0.99678399  0.96054615  0.88631818  1.0
  Zr  Zr2  1  0.99659155  0.97307006  0.15155558  1.0
  Zr  Zr3  1  0.99364595  0.83452212  0.02801267  1.0
  Zr  Zr4  1  0.83387692  0.96748491  0.01926411  1.0
  Zr  Zr5  1  0.15677721  0.96713429  0.01918510  1.0
  H  H6  1  0.11352376  0.07794383  0.90846701  1.0
  H  H7  1  0.87336002  0.85679042  0.91491934  1.0
  H  H8  1  0.11280342  0.85606602  0.13042468  1.0
  H  H9  1  0.87691953  0.07648265  0.12668836  1.0
  H  H10  1  0.94218841  0.86946473  0.78588065  1.0
  H  H11  1  0.05197607  0.73228476  0.94341604  1.0
  H  H12  1  0.96146257  0.73213733  0.12182867  1.0
  H  H13  1  0.03825245  0.89928302  0.27747991  1.0
  H  H14  1  0.02886522  0.06667976  0.25000122  1.0
  H  H15  1  0.94834363  0.22406504  0.07935380  1.0
  H  H16  1  0.95977712  0.20067742  0.91542250  1.0
  H  H17  1  0.04487296  0.03244794  0.76496103  1.0
  H  H18  1  0.93830115  0.89271528  0.26042653  1.0
  H  H19  1  0.04839519  0.20788303  0.08832306  1.0
  H  H20  1  0.94409539  0.04313211  0.77502497  1.0
  H  H21  1  0.95517126  0.70922301  0.95727049  1.0
  C  C22  1  0.49381264  0.36007899  0.02006227  1.0
  C  C23  1  0.42164748  0.25650449  0.02539015  1.0
  C  C24  1  0.56783826  0.25731782  0.01719091  1.0
  C  C25  1  0.49540529  0.57443736  0.01843384  1.0
  C  C26  1  0.56962213  0.67678174  0.02260260  1.0
  C  C27  1  0.42360930  0.67840526  0.01315050  1.0
  C  C28  1  0.49673037  0.97010452  0.62624079  1.0
  C  C29  1  0.42285425  0.97004093  0.72921651  1.0
  C  C30  1  0.56913737  0.97606734  0.72923879  1.0
  C  C31  1  0.49486172  0.96503267  0.41219076  1.0
  C  C32  1  0.42012753  0.96581221  0.30999425  1.0
  C  C33  1  0.56640833  0.95885019  0.30842971  1.0
  C  C34  1  0.78313238  0.13315022  0.00959862  1.0
  C  C35  1  0.20828219  0.96417222  0.85454000  1.0
  C  C36  1  0.78224252  0.97677147  0.85537927  1.0
  C  C37  1  0.20795279  0.13063860  0.02813338  1.0
  C  C38  1  0.20581877  0.97225903  0.18517855  1.0
  C  C39  1  0.78393550  0.80143196  0.02930418  1.0
  C  C40  1  0.20885503  0.80373644  0.01047987  1.0
  C  C41  1  0.78078992  0.95672525  0.18262986  1.0
  C  C42  1  0.27693524  0.97107998  0.23474799  1.0
  C  C43  1  0.34078451  0.96875219  0.27182178  1.0
  C  C44  1  0.64478758  0.95516541  0.26888465  1.0
  C  C45  1  0.70861124  0.95377802  0.23153722  1.0
  C  C46  1  0.34388666  0.96751423  0.76803524  1.0
  C  C47  1  0.28009388  0.96536367  0.80538931  1.0
  C  C48  1  0.64763375  0.97931658  0.76836271  1.0
  C  C49  1  0.71070501  0.98028929  0.80628678  1.0
  C  C50  1  0.49684786  0.96825324  0.55116381  1.0
  C  C51  1  0.49599180  0.96683852  0.48724638  1.0
  C  C52  1  0.28107000  0.75499801  0.00746784  1.0
  C  C53  1  0.34515148  0.71790882  0.00901016  1.0
  C  C54  1  0.64880033  0.71496791  0.02698984  1.0
  C  C55  1  0.71263215  0.75198468  0.02957528  1.0
  C  C56  1  0.34314960  0.21722657  0.02926983  1.0
  C  C57  1  0.27956043  0.17975762  0.03079498  1.0
  C  C58  1  0.71144844  0.18240039  0.01042950  1.0
  C  C59  1  0.64707911  0.21896670  0.01323599  1.0
  C  C60  1  0.49354306  0.43526652  0.01931892  1.0
  C  C61  1  0.49441768  0.49927276  0.01885036  1.0
  N  N62  1  0.41659330  0.32751520  0.02478451  1.0
  N  N63  1  0.49517058  0.21843919  0.02193790  1.0
  N  N64  1  0.57166514  0.32831228  0.01599675  1.0
  N  N65  1  0.57327878  0.60575000  0.02352440  1.0
  N  N66  1  0.49716383  0.71604495  0.01758654  1.0
  N  N67  1  0.41841881  0.60745929  0.01302700  1.0
  N  N68  1  0.41894962  0.96775508  0.65835180  1.0
  N  N69  1  0.49576331  0.97444570  0.76760193  1.0
  N  N70  1  0.57417004  0.97408987  0.65837299  1.0
  N  N71  1  0.41674957  0.96806529  0.38087921  1.0
  N  N72  1  0.49263476  0.96110824  0.27083062  1.0
  N  N73  1  0.57190269  0.96047789  0.37928074  1.0
  O  O74  1  0.85952566  0.15805750  0.00793080  1.0
  O  O75  1  0.76137093  0.06859938  0.01150749  1.0
  O  O76  1  0.13229720  0.96592263  0.82956314  1.0
  O  O77  1  0.22996817  0.96214858  0.91920665  1.0
  O  O78  1  0.85840523  0.98359142  0.83110258  1.0
  O  O79  1  0.76055545  0.96467955  0.91929135  1.0
  O  O80  1  0.13180387  0.15408023  0.03591711  1.0
  O  O81  1  0.22999699  0.06723404  0.01613835  1.0
  O  O82  1  0.00749391  0.17213273  0.93285097  1.0
  O  O83  1  0.98999590  0.18846245  0.09503465  1.0
  O  O84  1  0.00053873  0.04913406  0.79741484  1.0
  O  O85  1  0.98993840  0.88878122  0.81195412  1.0
  O  O86  1  0.92521812  0.02134968  0.96052046  1.0
  O  O87  1  0.08407526  0.04415137  0.93931491  1.0
  O  O88  1  0.12915640  0.97311070  0.20993275  1.0
  O  O89  1  0.22821862  0.97161520  0.12081541  1.0
  O  O90  1  0.86048989  0.77654093  0.03055772  1.0
  O  O91  1  0.76180204  0.86596048  0.02651675  1.0
  O  O92  1  0.13305994  0.78033256  0.00161785  1.0
  O  O93  1  0.23000583  0.86692173  0.02406760  1.0
  O  O94  1  0.85657327  0.94782243  0.20641010  1.0
  O  O95  1  0.75968011  0.97014051  0.11881111  1.0
  O  O96  1  0.99689763  0.88569934  0.24158685  1.0
  O  O97  1  0.98176143  0.04951553  0.22152733  1.0
  O  O98  1  0.00859495  0.76127261  0.10435382  1.0
  O  O99  1  0.99142115  0.74803785  0.94038479  1.0
  O  O100  1  0.08307980  0.89033211  0.10029922  1.0
  O  O101  1  0.92464414  0.91266028  0.07700134  1.0
  O  O102  1  0.06514358  0.02347440  0.07269222  1.0
  O  O103  1  0.90699057  0.88724749  0.94469437  1.0
  O  O104  1  0.90646779  0.04671357  0.09317347  1.0
  O  O105  1  0.06537835  0.91054296  0.96562574  1.0
