# generated using pymatgen
data_Zn4H9C28S2Cl4O13F
_symmetry_space_group_name_H-M   'P 1'
_cell_length_a   18.38349322
_cell_length_b   19.63603919
_cell_length_c   32.68487522
_cell_angle_alpha   78.73029656
_cell_angle_beta   73.68780042
_cell_angle_gamma   62.11034943
_symmetry_Int_Tables_number   1
_chemical_formula_structural   Zn4H9C28S2Cl4O13F
_chemical_formula_sum   'Zn16 H36 C112 S8 Cl16 O52 F4'
_cell_volume   9979.80714413
_cell_formula_units_Z   4
loop_
 _symmetry_equiv_pos_site_id
 _symmetry_equiv_pos_as_xyz
  1  'x, y, z'
loop_
 _atom_site_type_symbol
 _atom_site_label
 _atom_site_symmetry_multiplicity
 _atom_site_fract_x
 _atom_site_fract_y
 _atom_site_fract_z
 _atom_site_occupancy
  Zn  Zn0  1  0.57900677  0.54662878  0.48136825  1.0
  Zn  Zn1  1  0.47536716  0.47743083  0.56066995  1.0
  Zn  Zn2  1  0.54639604  0.40048660  0.47450735  1.0
  Zn  Zn3  1  0.39022291  0.56938382  0.48426684  1.0
  Zn  Zn4  1  0.19312033  0.18287528  0.26348774  1.0
  Zn  Zn5  1  0.17149553  0.35098792  0.27365312  1.0
  Zn  Zn6  1  0.28643474  0.26840872  0.18805104  1.0
  Zn  Zn7  1  0.34883266  0.20236644  0.27545803  1.0
  Zn  Zn8  1  0.77796591  0.75405039  0.68611666  1.0
  Zn  Zn9  1  0.84988284  0.68376031  0.77294820  1.0
  Zn  Zn10  1  0.67123890  0.70296798  0.77217812  1.0
  Zn  Zn11  1  0.70299847  0.85131365  0.77025705  1.0
  Zn  Zn12  1  0.07545863  0.90183473  0.97471453  1.0
  Zn  Zn13  1  0.88799180  0.04600700  0.98493733  1.0
  Zn  Zn14  1  0.05415505  0.06989575  0.97620118  1.0
  Zn  Zn15  1  0.98842065  0.98871961  0.06119542  1.0
  H  H16  1  0.25240269  0.95513038  0.33738783  1.0
  H  H17  1  0.70901008  0.96705533  0.59083317  1.0
  H  H18  1  0.98608933  0.44583252  0.37765658  1.0
  H  H19  1  0.93561013  0.49754758  0.33458910  1.0
  H  H20  1  0.79423096  0.54599705  0.38646016  1.0
  H  H21  1  0.84429327  0.49375094  0.42963003  1.0
  H  H22  1  0.97717517  0.65736130  0.57674741  1.0
  H  H23  1  0.97053049  0.75066425  0.57722980  1.0
  H  H24  1  0.11430492  0.71064884  0.52767920  1.0
  H  H25  1  0.12038293  0.61770432  0.52663286  1.0
  H  H26  1  0.69172541  0.75132417  0.57424275  1.0
  H  H27  1  0.78254838  0.66097935  0.57533744  1.0
  H  H28  1  0.73641705  0.61031507  0.52691446  1.0
  H  H29  1  0.64564354  0.70048516  0.52566456  1.0
  H  H30  1  0.46154623  0.20588364  0.36865695  1.0
  H  H31  1  0.50687338  0.25026549  0.32274197  1.0
  H  H32  1  0.55596200  0.30044292  0.37011296  1.0
  H  H33  1  0.51068577  0.25599373  0.41598362  1.0
  H  H34  1  0.16247594  0.66267302  0.03724620  1.0
  H  H35  1  0.97136157  0.09919053  0.16677173  1.0
  H  H36  1  0.05915286  0.00661861  0.16824242  1.0
  H  H37  1  0.10932800  0.05229709  0.21705572  1.0
  H  H38  1  0.02223160  0.14523698  0.21531460  1.0
  H  H39  1  0.62921307  0.19719398  0.03152342  1.0
  H  H40  1  0.62565057  0.10739036  0.03366723  1.0
  H  H41  1  0.48111233  0.16042409  0.08274522  1.0
  H  H42  1  0.48493385  0.24997472  0.08079959  1.0
  H  H43  1  0.74693906  0.29183359  0.91268925  1.0
  H  H44  1  0.72839267  0.00643946  0.93067459  1.0
  H  H45  1  0.77169362  0.05588118  0.88674284  1.0
  H  H46  1  0.72506961  0.01023206  0.83614120  1.0
  H  H47  1  0.67977153  0.96243100  0.88021539  1.0
  H  H48  1  0.32329135  0.74750197  0.91300779  1.0
  H  H49  1  0.27475290  0.79406684  0.86869613  1.0
  H  H50  1  0.41814878  0.74986680  0.81851080  1.0
  H  H51  1  0.46668635  0.70195237  0.86270670  1.0
  C  C52  1  0.56488835  0.56183586  0.57105732  1.0
  C  C53  1  0.55626450  0.31032029  0.55667471  1.0
  C  C54  1  0.70438534  0.41489903  0.43064622  1.0
  C  C55  1  0.40286281  0.45375109  0.43414882  1.0
  C  C56  1  0.45678746  0.68174440  0.43908595  1.0
  C  C57  1  0.29473656  0.57191075  0.57046010  1.0
  C  C58  1  0.03721813  0.30088608  0.31118205  1.0
  C  C59  1  0.18870919  0.43772655  0.19002533  1.0
  C  C60  1  0.20310549  0.18069125  0.17207900  1.0
  C  C61  1  0.46610470  0.18251814  0.19052021  1.0
  C  C62  1  0.31740710  0.06764542  0.31315274  1.0
  C  C63  1  0.28846292  0.33766629  0.32335166  1.0
  C  C64  1  0.95942212  0.67323040  0.68598020  1.0
  C  C65  1  0.78561243  0.56949201  0.81562311  1.0
  C  C66  1  0.67446335  0.67893999  0.68409790  1.0
  C  C67  1  0.54755907  0.83869642  0.81839521  1.0
  C  C68  1  0.70142817  0.92450651  0.68158441  1.0
  C  C69  1  0.83278898  0.80897862  0.81664339  1.0
  C  C70  1  0.94798411  0.91959936  0.92982957  1.0
  C  C71  1  0.90597438  0.18222180  0.93880718  1.0
  C  C72  1  0.20927053  0.94844063  0.93154558  1.0
  C  C73  1  0.08141153  0.07666287  0.05885680  1.0
  C  C74  1  0.06425185  0.81917133  0.06030549  1.0
  C  C75  1  0.80379767  0.06315051  0.07577492  1.0
  C  C76  1  0.47096632  0.80682284  0.40331165  1.0
  C  C77  1  0.30936633  0.94217073  0.34746890  1.0
  C  C78  1  0.43354524  0.75672985  0.41404219  1.0
  C  C79  1  0.34662067  0.99204608  0.33771558  1.0
  C  C80  1  0.35471921  0.87517753  0.37170860  1.0
  C  C81  1  0.42654078  0.87504017  0.37943103  1.0
  C  C82  1  0.58048349  0.21777703  0.62393368  1.0
  C  C83  1  0.68071737  0.01311568  0.61226192  1.0
  C  C84  1  0.58475299  0.23437920  0.58027709  1.0
  C  C85  1  0.67438741  0.99908009  0.65599622  1.0
  C  C86  1  0.64563195  0.09340421  0.60062940  1.0
  C  C87  1  0.61435682  0.13799159  0.63605708  1.0
  C  C88  1  0.95145485  0.32481069  0.34010738  1.0
  C  C89  1  0.78746471  0.38104280  0.39959471  1.0
  C  C90  1  0.91624184  0.39310115  0.36022538  1.0
  C  C91  1  0.82098882  0.31158677  0.37895382  1.0
  C  C92  1  0.83816482  0.41973308  0.38870761  1.0
  C  C93  1  0.90100304  0.28431601  0.35000016  1.0
  C  C94  1  0.93153896  0.46066742  0.36424007  1.0
  C  C95  1  0.84297474  0.49086116  0.39664007  1.0
  C  C96  1  0.04711343  0.64865744  0.65936558  1.0
  C  C97  1  0.21225317  0.60145600  0.60188981  1.0
  C  C98  1  0.05863948  0.65895971  0.61493949  1.0
  C  C99  1  0.20295485  0.59274123  0.64692768  1.0
  C  C100  1  0.13764630  0.63680309  0.58740221  1.0
  C  C101  1  0.12245672  0.61520505  0.67515322  1.0
  C  C102  1  0.01248184  0.68844226  0.57865721  1.0
  C  C103  1  0.10233636  0.66331949  0.54741694  1.0
  C  C104  1  0.64059598  0.65009693  0.65818956  1.0
  C  C105  1  0.58830787  0.59045886  0.60227916  1.0
  C  C106  1  0.66384311  0.65756149  0.61370606  1.0
  C  C107  1  0.56293720  0.58207561  0.64761246  1.0
  C  C108  1  0.63874838  0.62928146  0.58702498  1.0
  C  C109  1  0.58735767  0.61225069  0.67487863  1.0
  C  C110  1  0.71441487  0.68837329  0.57681400  1.0
  C  C111  1  0.68560488  0.65656750  0.54651293  1.0
  C  C112  1  0.31108372  0.37423155  0.35083194  1.0
  C  C113  1  0.36763325  0.43178289  0.40554414  1.0
  C  C114  1  0.38958444  0.33321874  0.36163695  1.0
  C  C115  1  0.28784774  0.47598970  0.39436706  1.0
  C  C116  1  0.41657094  0.36071898  0.38773983  1.0
  C  C117  1  0.26022745  0.44789901  0.36763136  1.0
  C  C118  1  0.46983432  0.25842580  0.35573821  1.0
  C  C119  1  0.50052262  0.28972048  0.38535584  1.0
  C  C120  1  0.11125387  0.58616128  0.17889770  1.0
  C  C121  1  0.13502672  0.67174441  0.07097476  1.0
  C  C122  1  0.16245417  0.51247551  0.16501389  1.0
  C  C123  1  0.08558514  0.74459548  0.08579754  1.0
  C  C124  1  0.14422331  0.61408371  0.10516276  1.0
  C  C125  1  0.10059463  0.64479327  0.14525389  1.0
  C  C126  1  0.11752850  0.10352554  0.08450487  1.0
  C  C127  1  0.17776501  0.15478345  0.14043661  1.0
  C  C128  1  0.09349280  0.09660277  0.12888838  1.0
  C  C129  1  0.20516151  0.16095921  0.09514722  1.0
  C  C130  1  0.12183155  0.12151064  0.15563677  1.0
  C  C131  1  0.17525344  0.13638914  0.06787240  1.0
  C  C132  1  0.03946756  0.06911089  0.16554377  1.0
  C  C133  1  0.07129248  0.09768675  0.19598979  1.0
  C  C134  1  0.72139059  0.08909750  0.10770915  1.0
  C  C135  1  0.55466952  0.14968127  0.16447817  1.0
  C  C136  1  0.64679681  0.12669003  0.09297282  1.0
  C  C137  1  0.62963792  0.11059817  0.18063642  1.0
  C  C138  1  0.56724691  0.15598622  0.12005361  1.0
  C  C139  1  0.71093257  0.08071023  0.15292813  1.0
  C  C140  1  0.61197814  0.15381249  0.05280377  1.0
  C  C141  1  0.52165808  0.18692714  0.08356959  1.0
  C  C142  1  0.88173393  0.44301506  0.85065687  1.0
  C  C143  1  0.80007330  0.30612599  0.90365148  1.0
  C  C144  1  0.80551900  0.49415962  0.83969577  1.0
  C  C145  1  0.87709548  0.25779655  0.91428677  1.0
  C  C146  1  0.80166612  0.37439289  0.88030439  1.0
  C  C147  1  0.88047195  0.37508340  0.87378804  1.0
  C  C148  1  0.92540192  0.88676266  0.90027551  1.0
  C  C149  1  0.86900227  0.83371193  0.84336358  1.0
  C  C150  1  0.84653611  0.92848854  0.88984183  1.0
  C  C151  1  0.95027719  0.79020465  0.85269036  1.0
  C  C152  1  0.81989782  0.90354123  0.86226504  1.0
  C  C153  1  0.97786445  0.81582507  0.88059837  1.0
  C  C154  1  0.76510163  0.00205132  0.89757020  1.0
  C  C155  1  0.73509869  0.97383076  0.86604920  1.0
  C  C156  1  0.29653592  0.92481327  0.90464610  1.0
  C  C157  1  0.46285919  0.87197392  0.84794350  1.0
  C  C158  1  0.33689367  0.85437508  0.88625273  1.0
  C  C159  1  0.42415610  0.94351592  0.86694824  1.0
  C  C160  1  0.41606856  0.82947300  0.85881360  1.0
  C  C161  1  0.34286245  0.96927589  0.89463637  1.0
  C  C162  1  0.32701377  0.78338276  0.88291444  1.0
  C  C163  1  0.41686246  0.75518348  0.85156207  1.0
  S  S164  1  0.34237157  0.79328299  0.39440112  1.0
  S  S165  1  0.43718680  0.95799780  0.35759264  1.0
  S  S166  1  0.63124035  0.15053917  0.55340129  1.0
  S  S167  1  0.62644878  0.08224570  0.68338677  1.0
  S  S168  1  0.19784983  0.51460066  0.10964892  1.0
  S  S169  1  0.04923313  0.74407923  0.14105854  1.0
  S  S170  1  0.73055210  0.45804697  0.85803940  1.0
  S  S171  1  0.95187635  0.29379575  0.89617551  1.0
  Cl  Cl172  1  0.76555188  0.25782819  0.38741514  1.0
  Cl  Cl173  1  0.93466475  0.20124853  0.32562034  1.0
  Cl  Cl174  1  0.29042708  0.55792913  0.66832651  1.0
  Cl  Cl175  1  0.12015522  0.60006877  0.72898258  1.0
  Cl  Cl176  1  0.50379200  0.53256675  0.67169627  1.0
  Cl  Cl177  1  0.54901501  0.60171188  0.72898826  1.0
  Cl  Cl178  1  0.22181800  0.56649032  0.41225810  1.0
  Cl  Cl179  1  0.16359438  0.50705581  0.35520615  1.0
  Cl  Cl180  1  0.27797328  0.19651860  0.07132282  1.0
  Cl  Cl181  1  0.21401611  0.14386105  0.01370072  1.0
  Cl  Cl182  1  0.62519358  0.09862965  0.23471350  1.0
  Cl  Cl183  1  0.79701553  0.03119818  0.17600577  1.0
  Cl  Cl184  1  0.01948661  0.70606972  0.82843325  1.0
  Cl  Cl185  1  0.07658846  0.75664644  0.89054084  1.0
  Cl  Cl186  1  0.47364939  0.00277360  0.85649622  1.0
  Cl  Cl187  1  0.30281071  0.05528814  0.91711938  1.0
  O  O188  1  0.49987798  0.50003417  0.49844496  1.0
  O  O189  1  0.60714529  0.56097851  0.53244692  1.0
  O  O190  1  0.53429914  0.36804346  0.57754949  1.0
  O  O191  1  0.66273112  0.37550446  0.44375719  1.0
  O  O192  1  0.50506842  0.54210010  0.58458341  1.0
  O  O193  1  0.68276738  0.48209245  0.44167258  1.0
  O  O194  1  0.55641573  0.31216939  0.51723603  1.0
  O  O195  1  0.47961419  0.40713212  0.43540365  1.0
  O  O196  1  0.40314553  0.65429047  0.44530352  1.0
  O  O197  1  0.35672084  0.51355382  0.45489408  1.0
  O  O198  1  0.52547320  0.65101413  0.45207057  1.0
  O  O199  1  0.35382098  0.50866603  0.58087882  1.0
  O  O200  1  0.29788617  0.61121070  0.53437414  1.0
  O  O201  1  0.24958767  0.25078544  0.25000664  1.0
  O  O202  1  0.08141661  0.23087451  0.30209086  1.0
  O  O203  1  0.15786365  0.43781620  0.23020537  1.0
  O  O204  1  0.24077597  0.22359446  0.15885076  1.0
  O  O205  1  0.05948575  0.35561784  0.29874537  1.0
  O  O206  1  0.18223641  0.15726167  0.21103702  1.0
  O  O207  1  0.24073092  0.37884037  0.16872565  1.0
  O  O208  1  0.40964110  0.22358888  0.16877133  1.0
  O  O209  1  0.35622798  0.10804004  0.31190737  1.0
  O  O210  1  0.45287107  0.16731530  0.23073856  1.0
  O  O211  1  0.25646487  0.08591442  0.29539060  1.0
  O  O212  1  0.21301538  0.36656167  0.31873760  1.0
  O  O213  1  0.35009802  0.27699317  0.30681516  1.0
  O  O214  1  0.74989033  0.74923159  0.74883838  1.0
  O  O215  1  0.90115196  0.70114456  0.66485447  1.0
  O  O216  1  0.84717084  0.58695082  0.79992716  1.0
  O  O217  1  0.65788266  0.66675293  0.72442996  1.0
  O  O218  1  0.94887075  0.66507492  0.72641542  1.0
  O  O219  1  0.71969145  0.71308854  0.66259130  1.0
  O  O220  1  0.70886417  0.61084981  0.81225722  1.0
  O  O221  1  0.56241501  0.77952932  0.80064660  1.0
  O  O222  1  0.68182398  0.92970454  0.72206533  1.0
  O  O223  1  0.59784347  0.86877664  0.81331853  1.0
  O  O224  1  0.74074933  0.86297811  0.66181148  1.0
  O  O225  1  0.85489962  0.73722537  0.81639519  1.0
  O  O226  1  0.77865831  0.86399233  0.79731826  1.0
  O  O227  1  0.99925222  0.00156510  0.99913180  1.0
  O  O228  1  0.02461308  0.89133564  0.93242641  1.0
  O  O229  1  0.85681570  0.14963803  0.95295616  1.0
  O  O230  1  0.16142004  0.01989654  0.93579268  1.0
  O  O231  1  0.88602533  0.97605879  0.94991513  1.0
  O  O232  1  0.18910351  0.89297939  0.94725254  1.0
  O  O233  1  0.98153037  0.15620404  0.94345754  1.0
  O  O234  1  0.07377743  0.10790774  0.02139579  1.0
  O  O235  1  0.02183426  0.87945600  0.08146203  1.0
  O  O236  1  0.05857002  0.02421687  0.07823772  1.0
  O  O237  1  0.09025617  0.81680722  0.01983174  1.0
  O  O238  1  0.79986584  0.05827499  0.03803669  1.0
  O  O239  1  0.86968839  0.05031803  0.08755912  1.0
  F  F240  1  0.54184026  0.79328472  0.41458624  1.0
  F  F241  1  0.54705766  0.27091869  0.65261033  1.0
  F  F242  1  0.07537698  0.60171944  0.21999616  1.0
  F  F243  1  0.95075402  0.45537809  0.84107160  1.0
