# generated using pymatgen
data_MgH9C16O3
_symmetry_space_group_name_H-M   'P 1'
_cell_length_a   6.78855897
_cell_length_b   32.37369439
_cell_length_c   32.37201747
_cell_angle_alpha   119.49509311
_cell_angle_beta   94.03440916
_cell_angle_gamma   93.99221714
_symmetry_Int_Tables_number   1
_chemical_formula_structural   MgH9C16O3
_chemical_formula_sum   'Mg6 H54 C96 O18'
_cell_volume   6132.33544094
_cell_formula_units_Z   6
loop_
 _symmetry_equiv_pos_site_id
 _symmetry_equiv_pos_as_xyz
  1  'x, y, z'
loop_
 _atom_site_type_symbol
 _atom_site_label
 _atom_site_symmetry_multiplicity
 _atom_site_fract_x
 _atom_site_fract_y
 _atom_site_fract_z
 _atom_site_occupancy
  Mg  Mg0  1  0.36937335  0.67472373  0.36940064  1.0
  Mg  Mg1  1  0.69456660  0.69482134  0.32531598  1.0
  Mg  Mg2  1  0.99988741  0.63068755  0.30527695  1.0
  Mg  Mg3  1  0.63062588  0.32527677  0.63059965  1.0
  Mg  Mg4  1  0.30543263  0.30517917  0.67468431  1.0
  Mg  Mg5  1  0.00011005  0.36931303  0.69472270  1.0
  H  H6  1  0.95733176  0.17235285  0.61844380  1.0
  H  H7  1  0.98054776  0.11348805  0.63234557  1.0
  H  H8  1  0.94177126  0.04750118  0.59226499  1.0
  H  H9  1  0.89006822  0.08245220  0.50901685  1.0
  H  H10  1  0.95626369  0.05396482  0.42580132  1.0
  H  H11  1  0.75845262  0.98022828  0.35860254  1.0
  H  H12  1  0.49380135  0.93587558  0.37504799  1.0
  H  H13  1  0.74970437  0.81552470  0.41787845  1.0
  H  H14  1  0.64406666  0.89459862  0.43869783  1.0
  H  H15  1  0.78468749  0.44614845  0.82759462  1.0
  H  H16  1  0.86676067  0.51890184  0.88656202  1.0
  H  H17  1  0.89354651  0.54471989  0.95256941  1.0
  H  H18  1  0.80654087  0.42627372  0.91740088  1.0
  H  H19  1  0.90120648  0.37158808  0.94596707  1.0
  H  H20  1  0.77745106  0.37822579  0.01977534  1.0
  H  H21  1  0.55757815  0.43912578  0.06413882  1.0
  H  H22  1  0.93402953  0.60252899  0.18455152  1.0
  H  H23  1  0.74945672  0.54429213  0.10546735  1.0
  H  H24  1  0.33877302  0.38137199  0.55390933  1.0
  H  H25  1  0.34852328  0.36765994  0.48120796  1.0
  H  H26  1  0.34979501  0.40780253  0.45534126  1.0
  H  H27  1  0.38145661  0.49103879  0.57348173  1.0
  H  H28  1  0.53096204  0.57425765  0.62811992  1.0
  H  H29  1  0.39968640  0.64142895  0.62158205  1.0
  H  H30  1  0.11835124  0.62493637  0.56081170  1.0
  H  H31  1  0.33165916  0.58212924  0.39765195  1.0
  H  H32  1  0.20505976  0.56126781  0.45585593  1.0
  H  H33  1  0.04267089  0.82764791  0.38155424  1.0
  H  H34  1  0.01943951  0.88651053  0.36765637  1.0
  H  H35  1  0.05821020  0.95249767  0.40773686  1.0
  H  H36  1  0.10992726  0.91754845  0.49098466  1.0
  H  H37  1  0.04373770  0.94603820  0.57420077  1.0
  H  H38  1  0.24155253  0.01977478  0.64139816  1.0
  H  H39  1  0.50620536  0.06412427  0.62495022  1.0
  H  H40  1  0.25029330  0.18447461  0.58211993  1.0
  H  H41  1  0.35593517  0.10540171  0.56130193  1.0
  H  H42  1  0.21531402  0.55384978  0.17240661  1.0
  H  H43  1  0.13323481  0.48109845  0.11343984  1.0
  H  H44  1  0.10644191  0.45527889  0.04743166  1.0
  H  H45  1  0.19346333  0.57372679  0.08260049  1.0
  H  H46  1  0.09879857  0.62841162  0.05403385  1.0
  H  H47  1  0.22255451  0.62177242  0.98022516  1.0
  H  H48  1  0.44242628  0.56087223  0.93586255  1.0
  H  H49  1  0.06596845  0.39747010  0.81544771  1.0
  H  H50  1  0.25054126  0.45570606  0.89453277  1.0
  H  H51  1  0.66122529  0.61862795  0.44608968  1.0
  H  H52  1  0.65147180  0.63233919  0.51879132  1.0
  H  H53  1  0.65020879  0.59219647  0.54465788  1.0
  H  H54  1  0.61854501  0.50896262  0.42651947  1.0
  H  H55  1  0.46903117  0.42574420  0.37188172  1.0
  H  H56  1  0.60030679  0.35857272  0.37841976  1.0
  H  H57  1  0.88164715  0.37506531  0.43918869  1.0
  H  H58  1  0.66834090  0.41787152  0.60234680  1.0
  H  H59  1  0.79494124  0.43873352  0.54414411  1.0
  C  C60  1  0.54031600  0.22360045  0.61237862  1.0
  C  C61  1  0.74401005  0.21913926  0.62260868  1.0
  C  C62  1  0.80025518  0.17401784  0.61062920  1.0
  C  C63  1  0.66566022  0.13254572  0.58916194  1.0
  C  C64  1  0.73192587  0.08599581  0.57817901  1.0
  C  C65  1  0.89307845  0.08221463  0.60224818  1.0
  C  C66  1  0.61344210  0.04189080  0.53831558  1.0
  C  C67  1  0.46381855  0.01652289  0.54807824  1.0
  C  C68  1  0.34888594  0.97401851  0.50921060  1.0
  C  C69  1  0.80265739  0.05060208  0.47971024  1.0
  C  C70  1  0.83957211  0.03463207  0.43338938  1.0
  C  C71  1  0.72692340  0.99279719  0.39522107  1.0
  C  C72  1  0.58013838  0.96798618  0.40428246  1.0
  C  C73  1  0.59461647  0.81870999  0.40993609  1.0
  C  C74  1  0.53431106  0.86286265  0.42147368  1.0
  C  C75  1  0.09769637  0.74017801  0.35433611  1.0
  C  C76  1  0.31675861  0.38863570  0.77631588  1.0
  C  C77  1  0.52483451  0.40338349  0.78078757  1.0
  C  C78  1  0.62604039  0.43659739  0.82590495  1.0
  C  C79  1  0.53295342  0.45655472  0.86738141  1.0
  C  C80  1  0.64569041  0.49211119  0.91394015  1.0
  C  C81  1  0.81045826  0.52001015  0.91779942  1.0
  C  C82  1  0.57123998  0.49633595  0.95803938  1.0
  C  C83  1  0.44758110  0.53160746  0.98348721  1.0
  C  C84  1  0.37544667  0.53531304  0.02605562  1.0
  C  C85  1  0.75106907  0.42888908  0.94929217  1.0
  C  C86  1  0.80388721  0.39853119  0.96528258  1.0
  C  C87  1  0.73348799  0.40227971  0.00718595  1.0
  C  C88  1  0.61172762  0.43620610  0.03200357  1.0
  C  C89  1  0.77579408  0.59138839  0.18136026  1.0
  C  C90  1  0.67144415  0.55875655  0.13720671  1.0
  C  C91  1  0.35745286  0.61427424  0.25988182  1.0
  C  C92  1  0.92796316  0.38755114  0.61125646  1.0
  C  C93  1  0.12136305  0.37729172  0.59654766  1.0
  C  C94  1  0.18958313  0.38923862  0.56338349  1.0
  C  C95  1  0.07658507  0.41076909  0.54339141  1.0
  C  C96  1  0.15403026  0.42181072  0.50787089  1.0
  C  C97  1  0.29116794  0.39777257  0.48004338  1.0
  C  C98  1  0.07529461  0.46167492  0.50360722  1.0
  C  C99  1  0.91590858  0.45192368  0.46845096  1.0
  C  C100  1  0.83962970  0.49078906  0.46480492  1.0
  C  C101  1  0.32309835  0.52031567  0.57090415  1.0
  C  C102  1  0.40639687  0.56663804  0.60123403  1.0
  C  C103  1  0.33170366  0.60479600  0.59755258  1.0
  C  C104  1  0.17564150  0.59571693  0.56370128  1.0
  C  C105  1  0.18450771  0.59009379  0.40875256  1.0
  C  C106  1  0.11262959  0.57853910  0.44135538  1.0
  C  C107  1  0.74342727  0.64578987  0.38581827  1.0
  C  C108  1  0.45968260  0.77639997  0.38762051  1.0
  C  C109  1  0.25599468  0.78086138  0.37739068  1.0
  C  C110  1  0.19974634  0.82598290  0.38936954  1.0
  C  C111  1  0.33434742  0.86745523  0.41083701  1.0
  C  C112  1  0.26807129  0.91400446  0.42182033  1.0
  C  C113  1  0.10691027  0.91778482  0.39775284  1.0
  C  C114  1  0.38655681  0.95811029  0.46168350  1.0
  C  C115  1  0.53617891  0.98347768  0.45192140  1.0
  C  C116  1  0.65111298  0.02598204  0.49078902  1.0
  C  C117  1  0.19733663  0.94939985  0.52029004  1.0
  C  C118  1  0.16043157  0.96537047  0.56661187  1.0
  C  C119  1  0.27308112  0.00720471  0.60477954  1.0
  C  C120  1  0.41986698  0.03201526  0.59571734  1.0
  C  C121  1  0.40538941  0.18129014  0.59006311  1.0
  C  C122  1  0.46569222  0.13713837  0.57852534  1.0
  C  C123  1  0.90230567  0.25982177  0.64566167  1.0
  C  C124  1  0.68324000  0.61136347  0.22368450  1.0
  C  C125  1  0.47516845  0.59661525  0.21921310  1.0
  C  C126  1  0.37395968  0.56340122  0.17409595  1.0
  C  C127  1  0.46704831  0.54344279  0.13261803  1.0
  C  C128  1  0.35430612  0.50788739  0.08605964  1.0
  C  C129  1  0.18953775  0.47998920  0.08220150  1.0
  C  C130  1  0.42875717  0.50366217  0.04196210  1.0
  C  C131  1  0.55242250  0.46839299  0.01651302  1.0
  C  C132  1  0.62455308  0.46468544  0.97394479  1.0
  C  C133  1  0.24893453  0.57110957  0.05070984  1.0
  C  C134  1  0.19611462  0.60146788  0.03471843  1.0
  C  C135  1  0.26651561  0.59771912  0.99281588  1.0
  C  C136  1  0.38827474  0.56379203  0.96799649  1.0
  C  C137  1  0.22420973  0.40860989  0.81863960  1.0
  C  C138  1  0.32855353  0.44124099  0.86279347  1.0
  C  C139  1  0.64255541  0.38572537  0.74011972  1.0
  C  C140  1  0.07203690  0.61244908  0.38874283  1.0
  C  C141  1  0.87863815  0.62270781  0.40345166  1.0
  C  C142  1  0.81041454  0.61076034  0.43661525  1.0
  C  C143  1  0.92341124  0.58923128  0.45660910  1.0
  C  C144  1  0.84597094  0.57818898  0.49212824  1.0
  C  C145  1  0.70883587  0.60222662  0.51995559  1.0
  C  C146  1  0.92470774  0.53832482  0.49639123  1.0
  C  C147  1  0.08409065  0.54807664  0.53154951  1.0
  C  C148  1  0.16037586  0.50921023  0.53519451  1.0
  C  C149  1  0.67689974  0.47968499  0.42909665  1.0
  C  C150  1  0.59359738  0.43336156  0.39876607  1.0
  C  C151  1  0.66829005  0.39520471  0.40244828  1.0
  C  C152  1  0.82435773  0.40428340  0.43629919  1.0
  C  C153  1  0.81548768  0.40990637  0.59124631  1.0
  C  C154  1  0.88737514  0.42146208  0.55864344  1.0
  C  C155  1  0.25657341  0.35421079  0.61418182  1.0
  O  O156  1  0.92286210  0.74542202  0.34217444  1.0
  O  O157  1  0.13897473  0.69878490  0.34695112  1.0
  O  O158  1  0.52685530  0.73470950  0.37726960  1.0
  O  O159  1  0.17734714  0.59692831  0.25462168  1.0
  O  O160  1  0.44011553  0.64829494  0.30127241  1.0
  O  O161  1  0.79203975  0.64273933  0.26536854  1.0
  O  O162  1  0.58075020  0.65790989  0.40319393  1.0
  O  O163  1  0.79207789  0.65318525  0.35181374  1.0
  O  O164  1  0.14958788  0.62277262  0.35738589  1.0
  O  O165  1  0.07713848  0.25457815  0.65782301  1.0
  O  O166  1  0.86103053  0.30121534  0.65304675  1.0
  O  O167  1  0.47314590  0.26529057  0.62272918  1.0
  O  O168  1  0.82265415  0.40307314  0.74537884  1.0
  O  O169  1  0.55989326  0.35170247  0.69872943  1.0
  O  O170  1  0.20796322  0.35726103  0.73463053  1.0
  O  O171  1  0.41925194  0.34209057  0.59680632  1.0
  O  O172  1  0.20792549  0.34681680  0.64818738  1.0
  O  O173  1  0.85041134  0.37722860  0.64261368  1.0
