# generated using pymatgen
data_Zn4H24C54O13
_symmetry_space_group_name_H-M   'P 1'
_cell_length_a   24.42261344
_cell_length_b   24.42258549
_cell_length_c   24.42257368
_cell_angle_alpha   60.00002003
_cell_angle_beta   60.00005123
_cell_angle_gamma   60.00007245
_symmetry_Int_Tables_number   1
_chemical_formula_structural   Zn4H24C54O13
_chemical_formula_sum   'Zn8 H48 C108 O26'
_cell_volume   10300.55620749
_cell_formula_units_Z   2
loop_
 _symmetry_equiv_pos_site_id
 _symmetry_equiv_pos_as_xyz
  1  'x, y, z'
loop_
 _atom_site_type_symbol
 _atom_site_label
 _atom_site_symmetry_multiplicity
 _atom_site_fract_x
 _atom_site_fract_y
 _atom_site_fract_z
 _atom_site_occupancy
  Zn  Zn0  1  0.78279784  0.78279970  0.65160288  1.0
  Zn  Zn1  1  0.78279835  0.78279954  0.78279977  1.0
  Zn  Zn2  1  0.78279831  0.65160270  0.78279947  1.0
  Zn  Zn3  1  0.65160681  0.78279789  0.78279763  1.0
  Zn  Zn4  1  0.21720196  0.21720063  0.21720031  1.0
  Zn  Zn5  1  0.21720194  0.21720064  0.34839697  1.0
  Zn  Zn6  1  0.21720199  0.34839700  0.21720044  1.0
  Zn  Zn7  1  0.34839300  0.21720244  0.21720221  1.0
  H  H8  1  0.90169514  0.90169532  0.68612760  1.0
  H  H9  1  0.96419906  0.96419882  0.67539403  1.0
  H  H10  1  0.90169515  0.90169531  0.51048190  1.0
  H  H11  1  0.96419907  0.96419881  0.39620805  1.0
  H  H12  1  0.51048194  0.68612808  0.90169497  1.0
  H  H13  1  0.39620831  0.67539413  0.96419876  1.0
  H  H14  1  0.68612707  0.51048227  0.90169530  1.0
  H  H15  1  0.67539287  0.39620874  0.96419916  1.0
  H  H16  1  0.90169558  0.68612760  0.90169512  1.0
  H  H17  1  0.96419897  0.67539359  0.96419915  1.0
  H  H18  1  0.90169554  0.51048234  0.90169492  1.0
  H  H19  1  0.96419890  0.39620841  0.96419837  1.0
  H  H20  1  0.68612769  0.90169490  0.51048236  1.0
  H  H21  1  0.67539354  0.96419850  0.39620851  1.0
  H  H22  1  0.51048199  0.90169516  0.68612793  1.0
  H  H23  1  0.39620839  0.96419937  0.67539405  1.0
  H  H24  1  0.68612767  0.90169492  0.90169502  1.0
  H  H25  1  0.67539402  0.96419837  0.96419925  1.0
  H  H26  1  0.51048199  0.90169517  0.90169489  1.0
  H  H27  1  0.39620838  0.96419938  0.96419858  1.0
  H  H28  1  0.90169504  0.51048203  0.68612795  1.0
  H  H29  1  0.96419942  0.39620822  0.67539408  1.0
  H  H30  1  0.90169510  0.68612775  0.51048181  1.0
  H  H31  1  0.96419899  0.67539356  0.39620865  1.0
  H  H32  1  0.09830465  0.09830503  0.48951794  1.0
  H  H33  1  0.03580173  0.03580072  0.60379169  1.0
  H  H34  1  0.09830466  0.09830502  0.31387224  1.0
  H  H35  1  0.03580125  0.03580087  0.32460588  1.0
  H  H36  1  0.48951787  0.31387273  0.09830463  1.0
  H  H37  1  0.60379150  0.32460620  0.03580108  1.0
  H  H38  1  0.31387223  0.48951776  0.09830494  1.0
  H  H39  1  0.32460593  0.60379193  0.03580101  1.0
  H  H40  1  0.09830470  0.31387212  0.48951827  1.0
  H  H41  1  0.03580130  0.32460614  0.60379168  1.0
  H  H42  1  0.09830475  0.48951784  0.31387254  1.0
  H  H43  1  0.03580139  0.60379131  0.32460607  1.0
  H  H44  1  0.31387263  0.09830478  0.09830489  1.0
  H  H45  1  0.32460629  0.03580180  0.03580042  1.0
  H  H46  1  0.48951781  0.09830470  0.09830519  1.0
  H  H47  1  0.60379192  0.03580079  0.03580150  1.0
  H  H48  1  0.31387261  0.09830480  0.48951796  1.0
  H  H49  1  0.32460625  0.03580184  0.60379134  1.0
  H  H50  1  0.48951780  0.09830471  0.31387215  1.0
  H  H51  1  0.60379191  0.03580033  0.32460627  1.0
  H  H52  1  0.09830477  0.48951735  0.09830540  1.0
  H  H53  1  0.03580140  0.60379129  0.03580113  1.0
  H  H54  1  0.09830472  0.31387209  0.09830520  1.0
  H  H55  1  0.03580133  0.32460611  0.03580076  1.0
  C  C56  1  0.91816525  0.91816449  0.63159522  1.0
  C  C57  1  0.95873444  0.95873309  0.59203277  1.0
  C  C58  1  0.98024139  0.98024039  0.62082624  1.0
  C  C59  1  0.91816524  0.91816449  0.53207500  1.0
  C  C60  1  0.95873394  0.95873278  0.49050047  1.0
  C  C61  1  0.98024140  0.98024038  0.41869194  1.0
  C  C62  1  0.53207562  0.63159580  0.91816427  1.0
  C  C63  1  0.49049945  0.59203282  0.95873384  1.0
  C  C64  1  0.41869213  0.62082707  0.98024038  1.0
  C  C65  1  0.63159520  0.53207553  0.91816461  1.0
  C  C66  1  0.59203247  0.49049959  0.95873394  1.0
  C  C67  1  0.62082639  0.41869247  0.98024054  1.0
  C  C68  1  0.91816466  0.63159577  0.91816452  1.0
  C  C69  1  0.95873383  0.59203278  0.95873368  1.0
  C  C70  1  0.98024078  0.62082641  0.98024063  1.0
  C  C71  1  0.91816463  0.53207559  0.91816410  1.0
  C  C72  1  0.95873381  0.49049989  0.95873357  1.0
  C  C73  1  0.98024073  0.41869204  0.98024027  1.0
  C  C74  1  0.63159532  0.91816506  0.53207544  1.0
  C  C75  1  0.59203261  0.95873437  0.49049989  1.0
  C  C76  1  0.62082657  0.98024049  0.41869220  1.0
  C  C77  1  0.53207521  0.91816438  0.63159554  1.0
  C  C78  1  0.49049956  0.95873329  0.59203270  1.0
  C  C79  1  0.41869223  0.98024028  0.62082704  1.0
  C  C80  1  0.63159530  0.91816508  0.91816415  1.0
  C  C81  1  0.59203259  0.95873439  0.95873310  1.0
  C  C82  1  0.62082654  0.98024053  0.98024071  1.0
  C  C83  1  0.53207519  0.91816487  0.91816420  1.0
  C  C84  1  0.49049954  0.95873379  0.95873378  1.0
  C  C85  1  0.41869221  0.98024077  0.98024020  1.0
  C  C86  1  0.91816463  0.53207558  0.63159562  1.0
  C  C87  1  0.95873381  0.49049987  0.59203308  1.0
  C  C88  1  0.98024075  0.41869202  0.62082688  1.0
  C  C89  1  0.91816417  0.63159544  0.53207540  1.0
  C  C90  1  0.95873385  0.59203276  0.49049965  1.0
  C  C91  1  0.98024081  0.62082637  0.41869212  1.0
  C  C92  1  0.08183556  0.08183504  0.46792474  1.0
  C  C93  1  0.04126686  0.04126581  0.50950015  1.0
  C  C94  1  0.01975990  0.01975899  0.58130805  1.0
  C  C95  1  0.08183556  0.08183504  0.36840452  1.0
  C  C96  1  0.04126687  0.04126580  0.40796704  1.0
  C  C97  1  0.01975992  0.01975897  0.37917333  1.0
  C  C98  1  0.46792417  0.36840454  0.08183558  1.0
  C  C99  1  0.50949985  0.40796721  0.04126599  1.0
  C  C100  1  0.58130718  0.37917343  0.01975962  1.0
  C  C101  1  0.36840411  0.46792450  0.08183563  1.0
  C  C102  1  0.40796683  0.50950044  0.04126589  1.0
  C  C103  1  0.37917290  0.58130804  0.01975947  1.0
  C  C104  1  0.08183514  0.36840411  0.46792508  1.0
  C  C105  1  0.04126595  0.40796711  0.50950042  1.0
  C  C106  1  0.01975950  0.37917332  0.58130779  1.0
  C  C107  1  0.08183566  0.46792459  0.36840447  1.0
  C  C108  1  0.04126699  0.50950013  0.40796725  1.0
  C  C109  1  0.01976006  0.58130798  0.37917303  1.0
  C  C110  1  0.36840450  0.08183478  0.08183593  1.0
  C  C111  1  0.40796722  0.04126594  0.04126674  1.0
  C  C112  1  0.37917325  0.01975934  0.01975937  1.0
  C  C113  1  0.46792460  0.08183594  0.08183500  1.0
  C  C114  1  0.50950025  0.04126702  0.04126583  1.0
  C  C115  1  0.58130759  0.01975956  0.01975965  1.0
  C  C116  1  0.36840448  0.08183528  0.46792481  1.0
  C  C117  1  0.40796719  0.04126597  0.50949995  1.0
  C  C118  1  0.37917323  0.01975937  0.58130788  1.0
  C  C119  1  0.46792459  0.08183596  0.36840430  1.0
  C  C120  1  0.50950023  0.04126705  0.40796715  1.0
  C  C121  1  0.58130758  0.01975958  0.37917344  1.0
  C  C122  1  0.08183567  0.46792458  0.08183516  1.0
  C  C123  1  0.04126701  0.50950011  0.04126552  1.0
  C  C124  1  0.01976007  0.58130796  0.01975883  1.0
  C  C125  1  0.08183515  0.36840409  0.08183596  1.0
  C  C126  1  0.04126598  0.40796708  0.04126640  1.0
  C  C127  1  0.01975952  0.37917329  0.01975928  1.0
  C  C128  1  0.89806293  0.89806221  0.60193741  1.0
  C  C129  1  0.85479778  0.85479710  0.64520254  1.0
  C  C130  1  0.97943352  0.97943122  0.52056761  1.0
  C  C131  1  0.60193772  0.60193747  0.89806238  1.0
  C  C132  1  0.64520237  0.64520228  0.85479765  1.0
  C  C133  1  0.52056714  0.52056799  0.97943200  1.0
  C  C134  1  0.89806284  0.60193756  0.89806238  1.0
  C  C135  1  0.85479771  0.64520243  0.85479762  1.0
  C  C136  1  0.97943237  0.52056768  0.97943235  1.0
  C  C137  1  0.60193731  0.89806276  0.60193775  1.0
  C  C138  1  0.64520244  0.85479789  0.64520251  1.0
  C  C139  1  0.52056778  0.97943217  0.52056760  1.0
  C  C140  1  0.60193729  0.89806278  0.89806256  1.0
  C  C141  1  0.64520242  0.85479790  0.85479754  1.0
  C  C142  1  0.52056776  0.97943267  0.97943178  1.0
  C  C143  1  0.89806235  0.60193771  0.60193733  1.0
  C  C144  1  0.85479671  0.64520276  0.64520252  1.0
  C  C145  1  0.97943239  0.52056765  0.52056794  1.0
  C  C146  1  0.10193736  0.10193796  0.39806227  1.0
  C  C147  1  0.14520252  0.14520260  0.35479737  1.0
  C  C148  1  0.02056829  0.02056703  0.47943227  1.0
  C  C149  1  0.39806207  0.39806240  0.10193770  1.0
  C  C150  1  0.35479693  0.35479822  0.14520236  1.0
  C  C151  1  0.47943165  0.47943268  0.02056736  1.0
  C  C152  1  0.10193745  0.39806215  0.39806275  1.0
  C  C153  1  0.14520257  0.35479728  0.35479773  1.0
  C  C154  1  0.02056791  0.47943204  0.47943238  1.0
  C  C155  1  0.39806251  0.10193756  0.10193728  1.0
  C  C156  1  0.35479737  0.14520244  0.14520230  1.0
  C  C157  1  0.47943254  0.02056750  0.02056749  1.0
  C  C158  1  0.39806249  0.10193758  0.39806250  1.0
  C  C159  1  0.35479736  0.14520245  0.35479774  1.0
  C  C160  1  0.47943252  0.02056753  0.47943231  1.0
  C  C161  1  0.10193746  0.39806214  0.10193794  1.0
  C  C162  1  0.14520259  0.35479726  0.14520229  1.0
  C  C163  1  0.02056793  0.47943202  0.02056756  1.0
  O  O164  1  0.75000158  0.74999966  0.74999936  1.0
  O  O165  1  0.24999822  0.25000068  0.25000048  1.0
  O  O166  1  0.83805489  0.83805432  0.61530246  1.0
  O  O167  1  0.83805487  0.83805433  0.70858829  1.0
  O  O168  1  0.70858837  0.61530130  0.83805514  1.0
  O  O169  1  0.61530369  0.70858783  0.83805422  1.0
  O  O170  1  0.83805481  0.61530258  0.83805483  1.0
  O  O171  1  0.83805433  0.70858811  0.83805563  1.0
  O  O172  1  0.61530322  0.83805439  0.70858803  1.0
  O  O173  1  0.70858793  0.83805605  0.61530152  1.0
  O  O174  1  0.61530322  0.83805439  0.83805432  1.0
  O  O175  1  0.70858791  0.83805559  0.83805470  1.0
  O  O176  1  0.83805234  0.70858829  0.61530237  1.0
  O  O177  1  0.83805482  0.61530257  0.70858813  1.0
  O  O178  1  0.16194593  0.16194473  0.29141169  1.0
  O  O179  1  0.16194543  0.16194490  0.38469768  1.0
  O  O180  1  0.29141144  0.38469857  0.16194493  1.0
  O  O181  1  0.38469612  0.29141203  0.16194586  1.0
  O  O182  1  0.16194548  0.38469713  0.29141219  1.0
  O  O183  1  0.16194645  0.29141144  0.38469787  1.0
  O  O184  1  0.38469659  0.16194594  0.16194552  1.0
  O  O185  1  0.29141188  0.16194428  0.16194497  1.0
  O  O186  1  0.38469658  0.16194595  0.29141181  1.0
  O  O187  1  0.29141187  0.16194429  0.38469873  1.0
  O  O188  1  0.16194647  0.29141142  0.16194411  1.0
  O  O189  1  0.16194549  0.38469712  0.16194549  1.0
