# generated using pymatgen
data_Zn6H25C56(I3O8)3
_symmetry_space_group_name_H-M   'P 1'
_cell_length_a   18.70345828
_cell_length_b   18.74065261
_cell_length_c   18.89199905
_cell_angle_alpha   108.86955762
_cell_angle_beta   109.35411339
_cell_angle_gamma   109.66177217
_symmetry_Int_Tables_number   1
_chemical_formula_structural   Zn6H25C56(I3O8)3
_chemical_formula_sum   'Zn6 H25 C56 I9 O24'
_cell_volume   5130.33789494
_cell_formula_units_Z   1
loop_
 _symmetry_equiv_pos_site_id
 _symmetry_equiv_pos_as_xyz
  1  'x, y, z'
loop_
 _atom_site_type_symbol
 _atom_site_label
 _atom_site_symmetry_multiplicity
 _atom_site_fract_x
 _atom_site_fract_y
 _atom_site_fract_z
 _atom_site_occupancy
  Zn  Zn0  1  0.56894191  0.05943484  0.00830360  1.0
  Zn  Zn1  1  0.43622046  0.93803725  0.00601057  1.0
  Zn  Zn2  1  0.55712599  0.49740625  0.55774252  1.0
  Zn  Zn3  1  0.43405279  0.49521247  0.43017610  1.0
  Zn  Zn4  1  0.00771618  0.94282228  0.44516845  1.0
  Zn  Zn5  1  0.00831817  0.06339683  0.57415019  1.0
  H  H6  1  0.37367788  0.08700059  0.18955995  1.0
  H  H7  1  0.38835571  0.20583399  0.30964316  1.0
  H  H8  1  0.72136133  0.40529116  0.39650450  1.0
  H  H9  1  0.79974080  0.05670439  0.39717379  1.0
  H  H10  1  0.46039500  0.69215804  0.66509476  1.0
  H  H11  1  0.78993799  0.96313145  0.06342549  1.0
  H  H12  1  0.70040213  0.86323466  0.03271094  1.0
  H  H13  1  0.18164512  0.26504487  0.35940364  1.0
  H  H14  1  0.43801342  0.37866044  0.67115915  1.0
  H  H15  1  0.73543605  0.89871471  0.51720928  1.0
  H  H16  1  0.37418104  0.94228184  0.70825775  1.0
  H  H17  1  0.61887668  0.71185683  0.80856478  1.0
  H  H18  1  0.25940838  0.06420801  0.91569840  1.0
  H  H19  1  0.66477827  0.43459180  0.32421823  1.0
  H  H20  1  0.64814693  0.31521262  0.20046634  1.0
  H  H21  1  0.70264571  0.28378216  0.27143783  1.0
  H  H22  1  0.89230219  0.93787167  0.16471355  1.0
  H  H23  1  0.80271129  0.83790258  0.13369793  1.0
  H  H24  1  0.08061180  0.15994782  0.38085724  1.0
  H  H25  1  0.29603176  0.35814221  0.72402403  1.0
  H  H26  1  0.33211736  0.28152521  0.69772801  1.0
  H  H27  1  0.40408117  0.45675248  0.69996458  1.0
  H  H28  1  0.60393247  0.77192824  0.48379721  1.0
  H  H29  1  0.74745243  0.56839729  0.43307452  1.0
  H  H30  1  0.79766863  0.62304251  0.54801531  1.0
  C  C31  1  0.41962476  0.01700345  0.88102721  1.0
  C  C32  1  0.35418452  0.01484727  0.80716586  1.0
  C  C33  1  0.33550811  0.97134269  0.72207048  1.0
  C  C34  1  0.26599242  0.96156181  0.65278665  1.0
  C  C35  1  0.21232292  0.99714264  0.66494039  1.0
  C  C36  1  0.23661266  0.04497557  0.75167205  1.0
  C  C37  1  0.21490046  0.09857722  0.81135317  1.0
  C  C38  1  0.28730405  0.10014579  0.88726701  1.0
  C  C39  1  0.56778454  0.24745112  0.24635558  1.0
  C  C40  1  0.49462822  0.16448880  0.19794923  1.0
  C  C41  1  0.43146434  0.15113641  0.22470042  1.0
  C  C42  1  0.48366800  0.85128165  0.90977759  1.0
  C  C43  1  0.44022348  0.21830976  0.29306834  1.0
  C  C44  1  0.51404409  0.30235684  0.34074645  1.0
  C  C45  1  0.57788931  0.31397316  0.31649593  1.0
  C  C46  1  0.66488596  0.37994795  0.33407201  1.0
  C  C47  1  0.65362976  0.30424283  0.25526358  1.0
  C  C48  1  0.75032245  0.96919692  0.16282020  1.0
  C  C49  1  0.70803128  0.01278603  0.18708284  1.0
  C  C50  1  0.72701691  0.04329368  0.27348601  1.0
  C  C51  1  0.78501252  0.03092764  0.33045289  1.0
  C  C52  1  0.82626744  0.98537979  0.30422802  1.0
  C  C53  1  0.64233036  0.01977654  0.12270775  1.0
  C  C54  1  0.80681841  0.95461483  0.21882317  1.0
  C  C55  1  0.82446530  0.90631477  0.15111000  1.0
  C  C56  1  0.76021705  0.92237938  0.08748384  1.0
  C  C57  1  0.35355982  0.39049979  0.47744806  1.0
  C  C58  1  0.51859199  0.61341019  0.63185397  1.0
  C  C59  1  0.58917964  0.61528694  0.47273574  1.0
  C  C60  1  0.51757253  0.37561443  0.40738654  1.0
  C  C61  1  0.88880101  0.90719015  0.52762787  1.0
  C  C62  1  0.13556782  0.98881145  0.59717819  1.0
  C  C63  1  0.10934349  0.14783667  0.52578892  1.0
  C  C64  1  0.48426611  0.09548450  0.12269192  1.0
  C  C65  1  0.88937904  0.97702633  0.36883277  1.0
  C  C66  1  0.30831958  0.34032094  0.57081291  1.0
  C  C67  1  0.28701649  0.33480185  0.49046559  1.0
  C  C68  1  0.20158093  0.27068127  0.42302112  1.0
  C  C69  1  0.14436291  0.21212159  0.43545444  1.0
  C  C70  1  0.16712975  0.21759197  0.51690089  1.0
  C  C71  1  0.24913202  0.28519789  0.58441330  1.0
  C  C72  1  0.31391179  0.32516373  0.67891447  1.0
  C  C73  1  0.38105426  0.38710961  0.66319075  1.0
  C  C74  1  0.73711684  0.68690482  0.48953898  1.0
  C  C75  1  0.56540948  0.72304361  0.77949854  1.0
  C  C76  1  0.66148623  0.68950177  0.48191580  1.0
  C  C77  1  0.66179486  0.76689554  0.48957314  1.0
  C  C78  1  0.73585070  0.83834967  0.50777873  1.0
  C  C79  1  0.81100082  0.83424869  0.51286185  1.0
  C  C80  1  0.80740442  0.75524039  0.50000029  1.0
  C  C81  1  0.85751873  0.70717406  0.49785089  1.0
  C  C82  1  0.77986606  0.63138676  0.49093869  1.0
  C  C83  1  0.51190724  0.67888144  0.69403343  1.0
  C  C84  1  0.55764255  0.79274084  0.83454449  1.0
  C  C85  1  0.49849901  0.78212691  0.86191151  1.0
  C  C86  1  0.30294970  0.05149499  0.81943493  1.0
  I  I87  1  0.66984592  0.11263727  0.32103412  1.0
  I  I88  1  0.65252703  0.91256646  0.85925790  1.0
  I  I89  1  0.87013799  0.66630218  0.38286721  1.0
  I  I90  1  0.98254975  0.77020316  0.61287950  1.0
  I  I91  1  0.41944726  0.65578649  0.83731323  1.0
  I  I92  1  0.25105777  0.89088249  0.53167954  1.0
  I  I93  1  0.23947409  0.22088204  0.81418618  1.0
  I  I94  1  0.08681077  0.03122153  0.79696760  1.0
  I  I95  1  0.39750604  0.21999507  0.99797691  1.0
  O  O96  1  0.50103564  0.06517208  0.90892654  1.0
  O  O97  1  0.32893903  0.41129005  0.41852379  1.0
  O  O98  1  0.57320756  0.58807662  0.65917694  1.0
  O  O99  1  0.46823332  0.58645064  0.55316862  1.0
  O  O100  1  0.61329428  0.58159454  0.51788543  1.0
  O  O101  1  0.50956953  0.58974837  0.42103340  1.0
  O  O102  1  0.57106615  0.40614866  0.48712733  1.0
  O  O103  1  0.46662382  0.40247090  0.37886408  1.0
  O  O104  1  0.92649809  0.88557294  0.48667815  1.0
  O  O105  1  0.91264266  0.98548792  0.57974014  1.0
  O  O106  1  0.10602866  0.93759707  0.51753998  1.0
  O  O107  1  0.38765680  0.97113730  0.91082202  1.0
  O  O108  1  0.10411376  0.03462442  0.62514223  1.0
  O  O109  1  0.08700338  0.07074720  0.47537699  1.0
  O  O110  1  0.08720404  0.16971459  0.58373898  1.0
  O  O111  1  0.91761113  0.92553986  0.34172807  1.0
  O  O112  1  0.91285304  0.02206426  0.44721533  1.0
  O  O113  1  0.52919510  0.92735399  0.92474268  1.0
  O  O114  1  0.42546657  0.82983984  0.93263417  1.0
  O  O115  1  0.67083048  0.06974636  0.09345694  1.0
  O  O116  1  0.56311373  0.97339948  0.09936346  1.0
  O  O117  1  0.53560184  0.11847931  0.09386074  1.0
  O  O118  1  0.42443366  0.01640917  0.09102503  1.0
  O  O119  1  0.43242965  0.41448402  0.52705308  1.0
