# generated using pymatgen
data_Zn2H16C24N8O5
_symmetry_space_group_name_H-M   'P 1'
_cell_length_a   9.89731626
_cell_length_b   18.86523453
_cell_length_c   32.85001964
_cell_angle_alpha   89.99999866
_cell_angle_beta   90.00019646
_cell_angle_gamma   89.99984078
_symmetry_Int_Tables_number   1
_chemical_formula_structural   Zn2H16C24N8O5
_chemical_formula_sum   'Zn16 H128 C192 N64 O40'
_cell_volume   6133.59773942
_cell_formula_units_Z   8
loop_
 _symmetry_equiv_pos_site_id
 _symmetry_equiv_pos_as_xyz
  1  'x, y, z'
loop_
 _atom_site_type_symbol
 _atom_site_label
 _atom_site_symmetry_multiplicity
 _atom_site_fract_x
 _atom_site_fract_y
 _atom_site_fract_z
 _atom_site_occupancy
  Zn  Zn0  1  0.72463071  0.91436285  0.94132066  1.0
  Zn  Zn1  1  0.27536855  0.58563576  0.44131981  1.0
  Zn  Zn2  1  0.77537004  0.41436534  0.05867921  1.0
  Zn  Zn3  1  0.22463456  0.08563300  0.55868076  1.0
  Zn  Zn4  1  0.27537072  0.08563457  0.05868017  1.0
  Zn  Zn5  1  0.72462883  0.41436695  0.55868071  1.0
  Zn  Zn6  1  0.22463037  0.58563685  0.94132071  1.0
  Zn  Zn7  1  0.77537091  0.91436547  0.44132037  1.0
  Zn  Zn8  1  0.97024480  0.93584770  0.78070809  1.0
  Zn  Zn9  1  0.02975667  0.56415410  0.28070548  1.0
  Zn  Zn10  1  0.52975785  0.43584471  0.21929329  1.0
  Zn  Zn11  1  0.47024555  0.06415469  0.71929509  1.0
  Zn  Zn12  1  0.02975864  0.06415343  0.21929303  1.0
  Zn  Zn13  1  0.97024577  0.43584755  0.71929383  1.0
  Zn  Zn14  1  0.47024559  0.56415483  0.78070662  1.0
  Zn  Zn15  1  0.52975891  0.93584485  0.28070634  1.0
  H  H16  1  0.66125813  0.05027716  0.92506311  1.0
  H  H17  1  0.33874256  0.44972169  0.42506324  1.0
  H  H18  1  0.83874352  0.55028038  0.07493676  1.0
  H  H19  1  0.16125762  0.94971878  0.57493702  1.0
  H  H20  1  0.33874329  0.94972025  0.07493681  1.0
  H  H21  1  0.66125583  0.55028209  0.57493637  1.0
  H  H22  1  0.16125689  0.44972287  0.92506315  1.0
  H  H23  1  0.83874380  0.05028022  0.42506289  1.0
  H  H24  1  0.52323504  0.02706419  0.94607063  1.0
  H  H25  1  0.47676589  0.47293678  0.44607030  1.0
  H  H26  1  0.97676573  0.52706562  0.05392924  1.0
  H  H27  1  0.02323619  0.97293460  0.55392875  1.0
  H  H28  1  0.47676537  0.97293481  0.05392928  1.0
  H  H29  1  0.52323452  0.52706594  0.55392870  1.0
  H  H30  1  0.02323469  0.47293604  0.94607098  1.0
  H  H31  1  0.97676524  0.02706546  0.44607117  1.0
  H  H32  1  0.92031398  0.83457151  0.00415785  1.0
  H  H33  1  0.07969141  0.66542606  0.50415803  1.0
  H  H34  1  0.57968517  0.33457477  0.99584141  1.0
  H  H35  1  0.42030724  0.16542355  0.49584315  1.0
  H  H36  1  0.07969250  0.16542643  0.99584176  1.0
  H  H37  1  0.92030496  0.33457453  0.49584279  1.0
  H  H38  1  0.42031221  0.66542900  0.00415729  1.0
  H  H39  1  0.57969217  0.83457281  0.50415768  1.0
  H  H40  1  0.98108037  0.70717045  0.02022332  1.0
  H  H41  1  0.01891914  0.79282447  0.52022283  1.0
  H  H42  1  0.51891743  0.20717540  0.97977715  1.0
  H  H43  1  0.48106975  0.29282345  0.47977835  1.0
  H  H44  1  0.01892813  0.29282590  0.97977690  1.0
  H  H45  1  0.98107218  0.20717560  0.47977891  1.0
  H  H46  1  0.48107592  0.79282944  0.02022184  1.0
  H  H47  1  0.51892460  0.70717343  0.52022157  1.0
  H  H48  1  0.85743745  0.61072274  0.98337398  1.0
  H  H49  1  0.14255724  0.88927375  0.48337360  1.0
  H  H50  1  0.64255884  0.11072701  0.01662650  1.0
  H  H51  1  0.35742811  0.38927026  0.51662727  1.0
  H  H52  1  0.14257004  0.38927308  0.01662594  1.0
  H  H53  1  0.85743610  0.11072738  0.51662997  1.0
  H  H54  1  0.35743349  0.88927623  0.98337189  1.0
  H  H55  1  0.64257130  0.61072609  0.48337295  1.0
  H  H56  1  0.68119940  0.64289952  0.93264271  1.0
  H  H57  1  0.31879875  0.85709962  0.43264282  1.0
  H  H58  1  0.81880076  0.14290247  0.06735685  1.0
  H  H59  1  0.18118373  0.35709481  0.56735683  1.0
  H  H60  1  0.31880910  0.35709684  0.06735750  1.0
  H  H61  1  0.68119156  0.14290468  0.56735952  1.0
  H  H62  1  0.18119460  0.85709918  0.93264154  1.0
  H  H63  1  0.81881466  0.64290261  0.43264278  1.0
  H  H64  1  0.54316164  0.67826096  0.88989959  1.0
  H  H65  1  0.45683905  0.82173871  0.38990106  1.0
  H  H66  1  0.95684035  0.17826212  0.11009814  1.0
  H  H67  1  0.04315877  0.32173250  0.61010194  1.0
  H  H68  1  0.45683776  0.32173645  0.11010123  1.0
  H  H69  1  0.54315530  0.17826506  0.61010128  1.0
  H  H70  1  0.04316208  0.82173900  0.88989903  1.0
  H  H71  1  0.95684164  0.67826279  0.38989980  1.0
  H  H72  1  0.37252811  0.72819633  0.84240790  1.0
  H  H73  1  0.62747103  0.77180494  0.34240864  1.0
  H  H74  1  0.12747526  0.22819479  0.15759084  1.0
  H  H75  1  0.87252239  0.27179666  0.65759244  1.0
  H  H76  1  0.62747230  0.27180268  0.15759383  1.0
  H  H77  1  0.37251726  0.22820043  0.65759188  1.0
  H  H78  1  0.87252415  0.77180475  0.84240816  1.0
  H  H79  1  0.12747398  0.72819758  0.34240747  1.0
  H  H80  1  0.35278601  0.85893789  0.83467974  1.0
  H  H81  1  0.64721709  0.64106284  0.33468019  1.0
  H  H82  1  0.14721970  0.35893791  0.16532052  1.0
  H  H83  1  0.85276995  0.14105353  0.66531815  1.0
  H  H84  1  0.64721946  0.14106005  0.16532139  1.0
  H  H85  1  0.35276615  0.35894411  0.66531789  1.0
  H  H86  1  0.85277869  0.64106268  0.83468030  1.0
  H  H87  1  0.14722137  0.85893964  0.33467993  1.0
  H  H88  1  0.50442615  0.93691349  0.87837781  1.0
  H  H89  1  0.49557845  0.56308672  0.37837841  1.0
  H  H90  1  0.99557852  0.43691406  0.12162205  1.0
  H  H91  1  0.00441467  0.06307951  0.62161881  1.0
  H  H92  1  0.49558134  0.06308393  0.12162210  1.0
  H  H93  1  0.50440984  0.43691759  0.62161937  1.0
  H  H94  1  0.00441684  0.56308601  0.87837908  1.0
  H  H95  1  0.99558271  0.93691473  0.37837867  1.0
  H  H96  1  0.02584530  0.98706588  0.97225787  1.0
  H  H97  1  0.97416037  0.51293432  0.47225714  1.0
  H  H98  1  0.47415570  0.48706436  0.02774330  1.0
  H  H99  1  0.52584653  0.01293133  0.52774425  1.0
  H  H100  1  0.97415309  0.01293419  0.02774143  1.0
  H  H101  1  0.02583903  0.48706733  0.52774277  1.0
  H  H102  1  0.52584169  0.51293517  0.97225661  1.0
  H  H103  1  0.47415388  0.98706609  0.47225779  1.0
  H  H104  1  0.36492008  0.04049219  0.89519052  1.0
  H  H105  1  0.63508128  0.45950667  0.39518913  1.0
  H  H106  1  0.13508024  0.54049199  0.10480944  1.0
  H  H107  1  0.86492630  0.95950240  0.60481104  1.0
  H  H108  1  0.63507831  0.95950629  0.10481061  1.0
  H  H109  1  0.36492418  0.54049181  0.60480926  1.0
  H  H110  1  0.86491715  0.45950861  0.89518986  1.0
  H  H111  1  0.13507917  0.04049449  0.39518918  1.0
  H  H112  1  0.24159792  0.99897281  0.83312687  1.0
  H  H113  1  0.75840213  0.50102263  0.33312530  1.0
  H  H114  1  0.25839999  0.49897373  0.16687370  1.0
  H  H115  1  0.74160686  0.00101984  0.66687548  1.0
  H  H116  1  0.75840048  0.00102514  0.16687396  1.0
  H  H117  1  0.24160637  0.49897532  0.66687370  1.0
  H  H118  1  0.74159739  0.50102793  0.83312621  1.0
  H  H119  1  0.25840063  0.99897705  0.33312535  1.0
  H  H120  1  0.88486842  0.73357675  0.73980427  1.0
  H  H121  1  0.11513359  0.76642611  0.23980387  1.0
  H  H122  1  0.61513126  0.23357469  0.26019529  1.0
  H  H123  1  0.38487261  0.26642682  0.76019548  1.0
  H  H124  1  0.11513906  0.26642437  0.26019716  1.0
  H  H125  1  0.88486884  0.23357661  0.76019543  1.0
  H  H126  1  0.38487522  0.76642431  0.73980371  1.0
  H  H127  1  0.61512780  0.73357431  0.23980169  1.0
  H  H128  1  0.85872523  0.60395262  0.72594795  1.0
  H  H129  1  0.14127965  0.89605024  0.22594849  1.0
  H  H130  1  0.64127816  0.10395052  0.27405161  1.0
  H  H131  1  0.35872789  0.39605045  0.77405238  1.0
  H  H132  1  0.14128023  0.39604904  0.27405318  1.0
  H  H133  1  0.85872480  0.10395194  0.77405234  1.0
  H  H134  1  0.35872630  0.89604848  0.72594860  1.0
  H  H135  1  0.64127455  0.60395014  0.22594509  1.0
  H  H136  1  0.28576596  0.70353463  0.78755005  1.0
  H  H137  1  0.71423660  0.79646717  0.28754844  1.0
  H  H138  1  0.21423653  0.20353243  0.21244869  1.0
  H  H139  1  0.78576882  0.29646856  0.71244929  1.0
  H  H140  1  0.71423950  0.29646120  0.21245260  1.0
  H  H141  1  0.28576483  0.20353342  0.71244934  1.0
  H  H142  1  0.78576894  0.79646764  0.78755183  1.0
  H  H143  1  0.21423564  0.70353204  0.28754940  1.0
  C  C144  1  0.87030514  0.79008122  0.98914567  1.0
  C  C145  1  0.12969870  0.70991633  0.48914589  1.0
  C  C146  1  0.62969424  0.29008446  0.01085481  1.0
  C  C147  1  0.37029971  0.20991494  0.51085559  1.0
  C  C148  1  0.12970033  0.20991619  0.01085485  1.0
  C  C149  1  0.87029666  0.29008427  0.51085524  1.0
  C  C150  1  0.37030213  0.70991826  0.98914480  1.0
  C  C151  1  0.62969969  0.79008300  0.48914462  1.0
  C  C152  1  0.90268284  0.71986368  0.99808114  1.0
  C  C153  1  0.09731707  0.78013281  0.49808103  1.0
  C  C154  1  0.59731590  0.21986749  0.00191964  1.0
  C  C155  1  0.40267593  0.28013138  0.50192045  1.0
  C  C156  1  0.09732465  0.28013215  0.00191907  1.0
  C  C157  1  0.90267426  0.21986884  0.50192010  1.0
  C  C158  1  0.40267946  0.78013523  0.99807997  1.0
  C  C159  1  0.59732246  0.71986709  0.49808037  1.0
  C  C160  1  0.83354291  0.66622644  0.97743607  1.0
  C  C161  1  0.16645373  0.83377058  0.47743632  1.0
  C  C162  1  0.66645308  0.16623068  0.02256410  1.0
  C  C163  1  0.33353393  0.33376766  0.52256515  1.0
  C  C164  1  0.16646357  0.33376938  0.02256415  1.0
  C  C165  1  0.83353961  0.16623267  0.52256572  1.0
  C  C166  1  0.33353824  0.83377309  0.97743489  1.0
  C  C167  1  0.66646244  0.66623082  0.47743537  1.0
  C  C168  1  0.73528071  0.68437683  0.94891244  1.0
  C  C169  1  0.26471763  0.81562178  0.44891280  1.0
  C  C170  1  0.76471721  0.18438040  0.05108682  1.0
  C  C171  1  0.23526811  0.31561635  0.55108777  1.0
  C  C172  1  0.26472577  0.31561952  0.05108778  1.0
  C  C173  1  0.73527066  0.18438306  0.55108863  1.0
  C  C174  1  0.23527411  0.81562232  0.94891188  1.0
  C  C175  1  0.76472726  0.68438053  0.44891215  1.0
  C  C176  1  0.70890666  0.75621799  0.94131882  1.0
  C  C177  1  0.29109462  0.74378009  0.44131891  1.0
  C  C178  1  0.79109391  0.25622205  0.05868104  1.0
  C  C179  1  0.20889654  0.24377311  0.55868166  1.0
  C  C180  1  0.29109982  0.24377730  0.05868139  1.0
  C  C181  1  0.70889468  0.25622634  0.55868161  1.0
  C  C182  1  0.20890145  0.74378014  0.94131887  1.0
  C  C183  1  0.79110084  0.75622377  0.44131886  1.0
  C  C184  1  0.60812152  0.78128110  0.91117054  1.0
  C  C185  1  0.39188244  0.71871804  0.41117134  1.0
  C  C186  1  0.89188094  0.28128501  0.08882872  1.0
  C  C187  1  0.10810784  0.21871068  0.58882953  1.0
  C  C188  1  0.39188293  0.21871472  0.08883028  1.0
  C  C189  1  0.60810888  0.28128838  0.58883010  1.0
  C  C190  1  0.10811746  0.71871824  0.91117028  1.0
  C  C191  1  0.89188348  0.78128673  0.41116946  1.0
  C  C192  1  0.53033578  0.73530346  0.88749806  1.0
  C  C193  1  0.46966590  0.76469674  0.38749924  1.0
  C  C194  1  0.96966692  0.23530513  0.11249937  1.0
  C  C195  1  0.03032617  0.26468949  0.61250163  1.0
  C  C196  1  0.46966666  0.26469395  0.11250154  1.0
  C  C197  1  0.53032542  0.23530863  0.61250158  1.0
  C  C198  1  0.03033147  0.76469652  0.88749811  1.0
  C  C199  1  0.96966819  0.73530686  0.38749859  1.0
  C  C200  1  0.43642928  0.76330053  0.86033365  1.0
  C  C201  1  0.56357208  0.73670020  0.36033432  1.0
  C  C202  1  0.06357390  0.26330068  0.13966448  1.0
  C  C203  1  0.93642051  0.23669394  0.63966585  1.0
  C  C204  1  0.56357113  0.23669847  0.13966718  1.0
  C  C205  1  0.43641722  0.26330517  0.63966499  1.0
  C  C206  1  0.93642449  0.73669992  0.86033391  1.0
  C  C207  1  0.06357485  0.76330294  0.36033375  1.0
  C  C208  1  0.42501486  0.83652624  0.85614491  1.0
  C  C209  1  0.57498848  0.66347449  0.35614589  1.0
  C  C210  1  0.07498794  0.33652743  0.14385383  1.0
  C  C211  1  0.92500349  0.16346772  0.64385215  1.0
  C  C212  1  0.57498959  0.16347223  0.14385561  1.0
  C  C213  1  0.42499880  0.33653140  0.64385219  1.0
  C  C214  1  0.92500742  0.66347475  0.85614608  1.0
  C  C215  1  0.07499187  0.83652863  0.35614563  1.0
  C  C216  1  0.50731295  0.87930328  0.88019486  1.0
  C  C217  1  0.49269167  0.62069692  0.38019546  1.0
  C  C218  1  0.99269101  0.37930492  0.11980379  1.0
  C  C219  1  0.00730115  0.12068918  0.61980146  1.0
  C  C220  1  0.49269352  0.12069413  0.11980536  1.0
  C  C221  1  0.50729864  0.37930897  0.61980202  1.0
  C  C222  1  0.00730536  0.62069674  0.88019582  1.0
  C  C223  1  0.99269522  0.87930612  0.38019541  1.0
  C  C224  1  0.00316813  0.96744727  0.90760158  1.0
  C  C225  1  0.99682973  0.53255400  0.40760027  1.0
  C  C226  1  0.49683095  0.46744519  0.09239898  1.0
  C  C227  1  0.50317505  0.03254997  0.59240082  1.0
  C  C228  1  0.99682521  0.03255651  0.09239833  1.0
  C  C229  1  0.00317169  0.46744660  0.59239904  1.0
  C  C230  1  0.50316744  0.53255594  0.90760032  1.0
  C  C231  1  0.49682840  0.96744533  0.40760122  1.0
  C  C232  1  0.07252344  0.98979891  0.94238516  1.0
  C  C233  1  0.92747988  0.51020182  0.44238377  1.0
  C  C234  1  0.42747755  0.48979800  0.05761540  1.0
  C  C235  1  0.57252502  0.01019981  0.55761731  1.0
  C  C236  1  0.92747395  0.01020327  0.05761506  1.0
  C  C237  1  0.07252256  0.48979931  0.55761523  1.0
  C  C238  1  0.57251882  0.51020419  0.94238390  1.0
  C  C239  1  0.42747640  0.98979760  0.44238442  1.0
  C  C240  1  0.20348369  0.01568742  0.93724034  1.0
  C  C241  1  0.79651916  0.48431302  0.43723911  1.0
  C  C242  1  0.29651878  0.51568645  0.06276023  1.0
  C  C243  1  0.70348425  0.98430899  0.56276166  1.0
  C  C244  1  0.79651571  0.98431371  0.06276018  1.0
  C  C245  1  0.20348226  0.51568651  0.56275958  1.0
  C  C246  1  0.70347962  0.48431573  0.93723968  1.0
  C  C247  1  0.29651819  0.01568630  0.43723977  1.0
  C  C248  1  0.27863451  0.04143737  0.97421174  1.0
  C  C249  1  0.72136674  0.45856519  0.47421074  1.0
  C  C250  1  0.22136782  0.54143546  0.02578975  1.0
  C  C251  1  0.77863478  0.95856158  0.52578973  1.0
  C  C252  1  0.72136388  0.95856163  0.02578909  1.0
  C  C253  1  0.27863165  0.54143488  0.52578948  1.0
  C  C254  1  0.77863057  0.45856461  0.97421138  1.0
  C  C255  1  0.22136664  0.04143636  0.47421170  1.0
  C  C256  1  0.26311882  0.01900989  0.89783095  1.0
  C  C257  1  0.73688258  0.48098844  0.39782967  1.0
  C  C258  1  0.23688161  0.51901007  0.10216901  1.0
  C  C259  1  0.76312388  0.98098538  0.60217050  1.0
  C  C260  1  0.73687857  0.98099018  0.10216926  1.0
  C  C261  1  0.26312087  0.51901004  0.60216842  1.0
  C  C262  1  0.76311779  0.48099212  0.89783060  1.0
  C  C263  1  0.23688057  0.01901045  0.39783063  1.0
  C  C264  1  0.19536940  0.99652071  0.86320293  1.0
  C  C265  1  0.80462897  0.50347578  0.36320111  1.0
  C  C266  1  0.30462852  0.49652156  0.13679733  1.0
  C  C267  1  0.69537697  0.00347253  0.63679906  1.0
  C  C268  1  0.80462495  0.00347935  0.13679759  1.0
  C  C269  1  0.19537650  0.49652269  0.63679728  1.0
  C  C270  1  0.69537089  0.50348062  0.86320258  1.0
  C  C271  1  0.30462748  0.99652223  0.36320206  1.0
  C  C272  1  0.06330036  0.97050364  0.86854593  1.0
  C  C273  1  0.93669807  0.52949445  0.36854425  1.0
  C  C274  1  0.43670072  0.47050324  0.13145494  1.0
  C  C275  1  0.56330875  0.02949351  0.63145562  1.0
  C  C276  1  0.93669399  0.02949961  0.13145429  1.0
  C  C277  1  0.06330437  0.47050350  0.63145536  1.0
  C  C278  1  0.56330070  0.52949948  0.86854497  1.0
  C  C279  1  0.43669672  0.97050232  0.36854520  1.0
  C  C280  1  0.09058445  0.80189029  0.77714935  1.0
  C  C281  1  0.90941698  0.69810886  0.27714885  1.0
  C  C282  1  0.40941348  0.30188887  0.22285122  1.0
  C  C283  1  0.59058693  0.19811106  0.72285040  1.0
  C  C284  1  0.90942001  0.19810553  0.22285391  1.0
  C  C285  1  0.09058344  0.30188962  0.72285075  1.0
  C  C286  1  0.59058693  0.69811120  0.77714961  1.0
  C  C287  1  0.40941652  0.80189060  0.27714829  1.0
  C  C288  1  0.08555898  0.72516451  0.76494935  1.0
  C  C289  1  0.91444231  0.77483676  0.26494795  1.0
  C  C290  1  0.41443835  0.22516307  0.23505030  1.0
  C  C291  1  0.58556321  0.27483738  0.73505009  1.0
  C  C292  1  0.91444346  0.27483397  0.23505086  1.0
  C  C293  1  0.08555911  0.22516277  0.73505014  1.0
  C  C294  1  0.58556207  0.77483646  0.76495052  1.0
  C  C295  1  0.41444225  0.72516216  0.26494860  1.0
  C  C296  1  0.96715248  0.69709848  0.74632882  1.0
  C  C297  1  0.03284961  0.80290385  0.24632833  1.0
  C  C298  1  0.53284638  0.19709654  0.25367044  1.0
  C  C299  1  0.46715640  0.30290497  0.75367041  1.0
  C  C300  1  0.03285097  0.30290105  0.25367231  1.0
  C  C301  1  0.96715283  0.19709780  0.75367037  1.0
  C  C302  1  0.46715807  0.80290299  0.74632917  1.0
  C  C303  1  0.53284503  0.69709669  0.24632676  1.0
  C  C304  1  0.95291845  0.62572912  0.73765880  1.0
  C  C305  1  0.04708657  0.87427322  0.23765832  1.0
  C  C306  1  0.54708179  0.12572716  0.26234076  1.0
  C  C307  1  0.45291907  0.37427435  0.76234011  1.0
  C  C308  1  0.04708600  0.37427148  0.26234111  1.0
  C  C309  1  0.95291789  0.12572897  0.76234067  1.0
  C  C310  1  0.45291963  0.87427185  0.73765976  1.0
  C  C311  1  0.54708135  0.62572730  0.23765737  1.0
  C  C312  1  0.06465358  0.58224502  0.74626716  1.0
  C  C313  1  0.93534851  0.91775731  0.24626669  1.0
  C  C314  1  0.43534652  0.08224196  0.25373249  1.0
  C  C315  1  0.56465323  0.41775902  0.75373195  1.0
  C  C316  1  0.93534683  0.41775505  0.25373275  1.0
  C  C317  1  0.06465191  0.08224434  0.75373292  1.0
  C  C318  1  0.56465390  0.91775704  0.74626864  1.0
  C  C319  1  0.43534718  0.58224158  0.24626674  1.0
  C  C320  1  0.18473969  0.61043541  0.76291531  1.0
  C  C321  1  0.81526360  0.88956798  0.26291563  1.0
  C  C322  1  0.31526127  0.11043200  0.23708313  1.0
  C  C323  1  0.68474031  0.38956898  0.73708362  1.0
  C  C324  1  0.81526376  0.38956360  0.23708369  1.0
  C  C325  1  0.18473884  0.11043314  0.73708367  1.0
  C  C326  1  0.68473914  0.88956701  0.76291770  1.0
  C  C327  1  0.31526111  0.61043108  0.26291598  1.0
  C  C328  1  0.19529091  0.68194206  0.77364590  1.0
  C  C329  1  0.80471048  0.81806026  0.27364469  1.0
  C  C330  1  0.30470867  0.18193920  0.22635345  1.0
  C  C331  1  0.69529381  0.31806125  0.72635274  1.0
  C  C332  1  0.80471153  0.31805588  0.22635614  1.0
  C  C333  1  0.19529094  0.18193980  0.72635339  1.0
  C  C334  1  0.69529377  0.81805980  0.77364738  1.0
  C  C335  1  0.30470964  0.68193881  0.27364504  1.0
  N  N336  1  0.59440649  0.85250472  0.90751239  1.0
  N  N337  1  0.40559744  0.64749390  0.40751320  1.0
  N  N338  1  0.90559560  0.35250860  0.09248625  1.0
  N  N339  1  0.09439828  0.14748602  0.59248462  1.0
  N  N340  1  0.40559898  0.14749111  0.09248752  1.0
  N  N341  1  0.59439691  0.35251147  0.59248579  1.0
  N  N342  1  0.09439976  0.64749464  0.90751366  1.0
  N  N343  1  0.90560012  0.85251033  0.40751285  1.0
  N  N344  1  0.77649062  0.80752714  0.96145492  1.0
  N  N345  1  0.22351493  0.69247041  0.46145493  1.0
  N  N346  1  0.72351069  0.30753129  0.03854494  1.0
  N  N347  1  0.27648458  0.19246546  0.53854594  1.0
  N  N348  1  0.22351485  0.19246922  0.03854560  1.0
  N  N349  1  0.77648245  0.30753336  0.53854559  1.0
  N  N350  1  0.27648871  0.69247142  0.96145436  1.0
  N  N351  1  0.72351280  0.80753196  0.46145428  1.0
  N  N352  1  0.87564206  0.94006133  0.90218469  1.0
  N  N353  1  0.12435675  0.55993940  0.40218277  1.0
  N  N354  1  0.62435855  0.44006139  0.09781639  1.0
  N  N355  1  0.37565054  0.05993801  0.59781780  1.0
  N  N356  1  0.12435229  0.05993979  0.09781583  1.0
  N  N357  1  0.87564366  0.44006225  0.59781714  1.0
  N  N358  1  0.37563984  0.55994080  0.90218352  1.0
  N  N359  1  0.62435493  0.94006153  0.40218394  1.0
  N  N360  1  0.85794919  0.92721815  0.86259414  1.0
  N  N361  1  0.14204917  0.57278259  0.36259194  1.0
  N  N362  1  0.64205149  0.42721923  0.13740755  1.0
  N  N363  1  0.35795906  0.07278175  0.63740863  1.0
  N  N364  1  0.14204920  0.07278192  0.13740669  1.0
  N  N365  1  0.85795327  0.42722013  0.63740797  1.0
  N  N366  1  0.35794691  0.57278348  0.86259266  1.0
  N  N367  1  0.64205044  0.92721884  0.36259311  1.0
  N  N368  1  0.96866389  0.94490934  0.84192023  1.0
  N  N369  1  0.03133524  0.55508981  0.34191823  1.0
  N  N370  1  0.53133771  0.44490900  0.15808146  1.0
  N  N371  1  0.46867409  0.05508987  0.65808265  1.0
  N  N372  1  0.03133450  0.05509126  0.15808059  1.0
  N  N373  1  0.96866820  0.44491079  0.65808230  1.0
  N  N374  1  0.46866170  0.55509319  0.84191907  1.0
  N  N375  1  0.53133441  0.94490861  0.34191879  1.0
  N  N376  1  0.27413782  0.55504934  0.76577624  1.0
  N  N377  1  0.72586348  0.94495352  0.26577586  1.0
  N  N378  1  0.22586343  0.05504606  0.23422281  1.0
  N  N379  1  0.77414014  0.44495386  0.73422309  1.0
  N  N380  1  0.72586259  0.44494914  0.23422428  1.0
  N  N381  1  0.27413795  0.05504866  0.73422375  1.0
  N  N382  1  0.77413699  0.94495348  0.76577802  1.0
  N  N383  1  0.22586229  0.55504620  0.26577621  1.0
  N  N384  1  0.21444799  0.49631807  0.75266176  1.0
  N  N385  1  0.78555378  0.00368450  0.25266144  1.0
  N  N386  1  0.28555701  0.99631605  0.24733759  1.0
  N  N387  1  0.71445015  0.50368469  0.74733812  1.0
  N  N388  1  0.78555344  0.50368041  0.24733846  1.0
  N  N389  1  0.21444664  0.99631821  0.74733847  1.0
  N  N390  1  0.71444644  0.00368508  0.75266385  1.0
  N  N391  1  0.28555431  0.49631590  0.25266179  1.0
  N  N392  1  0.08805099  0.51122919  0.74096277  1.0
  N  N393  1  0.91195003  0.98877262  0.24096227  1.0
  N  N394  1  0.41195150  0.01122669  0.25903689  1.0
  N  N395  1  0.58805235  0.48877376  0.75903729  1.0
  N  N396  1  0.91195044  0.48877035  0.25903654  1.0
  N  N397  1  0.08805140  0.01122904  0.75903734  1.0
  N  N398  1  0.58805194  0.98877337  0.74096485  1.0
  N  N399  1  0.41195110  0.51122631  0.24096262  1.0
  O  O400  1  0.00089427  0.84142021  0.75914749  1.0
  O  O401  1  0.99910695  0.65857947  0.25914526  1.0
  O  O402  1  0.49910648  0.34141759  0.24085156  1.0
  O  O403  1  0.50089717  0.15858286  0.74085370  1.0
  O  O404  1  0.99911422  0.15857826  0.24085486  1.0
  O  O405  1  0.00089650  0.34142060  0.74085374  1.0
  O  O406  1  0.50090000  0.65858088  0.75914744  1.0
  O  O407  1  0.49910729  0.84141880  0.25914652  1.0
  O  O408  1  0.60182599  0.00983085  0.92876505  1.0
  O  O409  1  0.39817172  0.49016959  0.42876403  1.0
  O  O410  1  0.89817285  0.50983239  0.07123512  1.0
  O  O411  1  0.10182926  0.99016730  0.57123532  1.0
  O  O412  1  0.39817241  0.99016762  0.07123577  1.0
  O  O413  1  0.60182870  0.50983365  0.57123558  1.0
  O  O414  1  0.10182656  0.49016980  0.92876449  1.0
  O  O415  1  0.89817216  0.00983223  0.42876459  1.0
  O  O416  1  0.17251281  0.82307788  0.80339839  1.0
  O  O417  1  0.82748790  0.67692498  0.30339781  1.0
  O  O418  1  0.32747995  0.32307605  0.19660370  1.0
  O  O419  1  0.67251511  0.17692441  0.69660145  1.0
  O  O420  1  0.82749164  0.17692059  0.19660305  1.0
  O  O421  1  0.17251049  0.32307721  0.69660211  1.0
  O  O422  1  0.67251339  0.67692349  0.80339834  1.0
  O  O423  1  0.32748733  0.82307672  0.30339724  1.0
  O  O424  1  0.40189110  0.05873471  0.97270191  1.0
  O  O425  1  0.59811014  0.44126785  0.47270170  1.0
  O  O426  1  0.09811013  0.55873298  0.02729744  1.0
  O  O427  1  0.90189451  0.94126671  0.52729725  1.0
  O  O428  1  0.59810527  0.94126642  0.02729770  1.0
  O  O429  1  0.40188927  0.55873221  0.52729669  1.0
  O  O430  1  0.90188826  0.44126656  0.97270216  1.0
  O  O431  1  0.09810893  0.05873388  0.47270266  1.0
  O  O432  1  0.20666403  0.04504196  0.00687529  1.0
  O  O433  1  0.79333696  0.45496009  0.50687468  1.0
  O  O434  1  0.29333728  0.54504255  0.99312558  1.0
  O  O435  1  0.70666358  0.95495871  0.49312579  1.0
  O  O436  1  0.79333639  0.95495545  0.99312553  1.0
  O  O437  1  0.20666144  0.54503838  0.49312492  1.0
  O  O438  1  0.70665909  0.45496123  0.00687494  1.0
  O  O439  1  0.29333987  0.04503977  0.50687504  1.0
