# generated using pymatgen
data_Zn3H16C32(NO3)4
_symmetry_space_group_name_H-M   'P 1'
_cell_length_a   23.70416758
_cell_length_b   23.70420553
_cell_length_c   25.53114629
_cell_angle_alpha   117.66294851
_cell_angle_beta   117.65678777
_cell_angle_gamma   89.99863584
_symmetry_Int_Tables_number   1
_chemical_formula_structural   Zn3H16C32(NO3)4
_chemical_formula_sum   'Zn6 H32 C64 N8 O24'
_cell_volume   10821.29059031
_cell_formula_units_Z   2
loop_
 _symmetry_equiv_pos_site_id
 _symmetry_equiv_pos_as_xyz
  1  'x, y, z'
loop_
 _atom_site_type_symbol
 _atom_site_label
 _atom_site_symmetry_multiplicity
 _atom_site_fract_x
 _atom_site_fract_y
 _atom_site_fract_z
 _atom_site_occupancy
  Zn  Zn0  1  0.94552084  0.50002110  0.00001652  1.0
  Zn  Zn1  1  0.03383731  0.03383927  0.06768155  1.0
  Zn  Zn2  1  0.96615954  0.96615594  0.93231854  1.0
  Zn  Zn3  1  0.50000680  0.94550602  0.99998628  1.0
  Zn  Zn4  1  0.05448520  0.49997291  0.99997046  1.0
  Zn  Zn5  1  0.50000131  0.05451384  0.00002666  1.0
  H  H6  1  0.87221524  0.24790744  0.65105555  1.0
  H  H7  1  0.40314148  0.87221660  0.65106251  1.0
  H  H8  1  0.77882979  0.40312108  0.65103856  1.0
  H  H9  1  0.24791425  0.77886143  0.65105313  1.0
  H  H10  1  0.22115244  0.75207397  0.34893540  1.0
  H  H11  1  0.75210184  0.12782528  0.34895740  1.0
  H  H12  1  0.12780994  0.59685898  0.34895055  1.0
  H  H13  1  0.59683031  0.22112542  0.34894478  1.0
  H  H14  1  0.94584368  0.25182421  0.75354805  1.0
  H  H15  1  0.00144756  0.33206711  0.82108325  1.0
  H  H16  1  0.93878652  0.30026853  0.82700485  1.0
  H  H17  1  0.50173645  0.94583900  0.75357110  1.0
  H  H18  1  0.48906212  0.00145878  0.82113074  1.0
  H  H19  1  0.52670639  0.93874273  0.82698942  1.0
  H  H20  1  0.80770400  0.50175994  0.75357166  1.0
  H  H21  1  0.81965079  0.48904671  0.82110459  1.0
  H  H22  1  0.88822351  0.52674164  0.82699877  1.0
  H  H23  1  0.25180498  0.80771682  0.75356146  1.0
  H  H24  1  0.33204877  0.81965389  0.82109712  1.0
  H  H25  1  0.30024720  0.88823779  0.82700886  1.0
  H  H26  1  0.19226127  0.74816359  0.24642563  1.0
  H  H27  1  0.18032383  0.66793060  0.17886739  1.0
  H  H28  1  0.11174777  0.69971364  0.17300805  1.0
  H  H29  1  0.74821378  0.05418223  0.24642035  1.0
  H  H30  1  0.66797724  0.99858280  0.17888636  1.0
  H  H31  1  0.69975570  0.06127898  0.17299626  1.0
  H  H32  1  0.05415409  0.49824503  0.24644382  1.0
  H  H33  1  0.99855732  0.51095050  0.17890532  1.0
  H  H34  1  0.06123096  0.47323845  0.17299747  1.0
  H  H35  1  0.49824500  0.19224452  0.24645130  1.0
  H  H36  1  0.51094288  0.18032983  0.17891056  1.0
  H  H37  1  0.47325703  0.11173593  0.17299879  1.0
  C  C38  1  0.99996287  0.39013491  0.99995861  1.0
  C  C39  1  0.39411154  0.89417865  0.78829704  1.0
  C  C40  1  0.29628331  0.81366642  0.68015349  1.0
  C  C41  1  0.18640710  0.70366642  0.31984697  1.0
  C  C42  1  0.70370772  0.13349022  0.31985153  1.0
  C  C43  1  0.13351291  0.61612763  0.31984875  1.0
  C  C44  1  0.61612395  0.18633351  0.31985652  1.0
  C  C45  1  0.82175654  0.32176345  0.64353884  1.0
  C  C46  1  0.32173544  0.82182219  0.64354205  1.0
  C  C47  1  0.17827985  0.67819016  0.35645919  1.0
  C  C48  1  0.67822361  0.17821587  0.35645939  1.0
  C  C49  1  0.10587936  0.60581348  0.21170374  1.0
  C  C50  1  0.94979746  0.30239177  0.79045630  1.0
  C  C51  1  0.48806385  0.94979851  0.79047354  1.0
  C  C52  1  0.84066116  0.48808513  0.79046323  1.0
  C  C53  1  0.30237141  0.84067252  0.79046751  1.0
  C  C54  1  0.15932009  0.69758922  0.20952467  1.0
  C  C55  1  0.69764516  0.05023773  0.20952904  1.0
  C  C56  1  0.05020571  0.51190404  0.20953764  1.0
  C  C57  1  0.60587708  0.10585655  0.21171740  1.0
  C  C58  1  0.51191335  0.15930594  0.20954207  1.0
  C  C59  1  0.89413665  0.39415851  0.78828097  1.0
  C  C60  1  0.71638928  0.21637629  0.43276719  1.0
  C  C61  1  0.21642369  0.71635445  0.43276889  1.0
  C  C62  1  0.28359180  0.78365308  0.56723247  1.0
  C  C63  1  0.60982838  0.00000561  0.99996572  1.0
  C  C64  1  0.78360925  0.28362188  0.56723161  1.0
  C  C65  1  0.10900955  0.99997370  0.99994040  1.0
  C  C66  1  0.00003459  0.10906981  0.00006177  1.0
  C  C67  1  0.89098703  0.00001611  0.00005477  1.0
  C  C68  1  0.99996224  0.89093190  0.99994634  1.0
  C  C69  1  0.00004109  0.60986193  0.00003379  1.0
  C  C70  1  0.93300623  0.43298998  0.86595432  1.0
  C  C71  1  0.43297082  0.93298515  0.86597210  1.0
  C  C72  1  0.06701022  0.56699859  0.13402870  1.0
  C  C73  1  0.56703379  0.06705176  0.13404406  1.0
  C  C74  1  0.39017749  0.00000317  0.00004183  1.0
  C  C75  1  0.99996983  0.32955310  0.99994680  1.0
  C  C76  1  0.67039410  0.99997367  0.99994677  1.0
  C  C77  1  0.00002657  0.67044598  0.00005122  1.0
  C  C78  1  0.32960714  0.00002248  0.00005377  1.0
  C  C79  1  0.00004392  0.27792813  0.99999661  1.0
  C  C80  1  0.72206723  0.99995413  0.99999572  1.0
  C  C81  1  0.99995716  0.72207062  0.00000208  1.0
  C  C82  1  0.27793299  0.00004794  0.00000382  1.0
  C  C83  1  0.00007280  0.22123882  0.00006934  1.0
  C  C84  1  0.77882894  0.99999961  0.00006363  1.0
  C  C85  1  0.99993633  0.77876312  0.99993614  1.0
  C  C86  1  0.22116849  0.00000366  0.99992966  1.0
  C  C87  1  0.00003267  0.16958943  0.00006970  1.0
  C  C88  1  0.83046943  0.00003249  0.00005135  1.0
  C  C89  1  0.99998119  0.83041894  0.99994956  1.0
  C  C90  1  0.16952061  0.99996293  0.99993009  1.0
  C  C91  1  0.90317939  0.33173977  0.75260619  1.0
  C  C92  1  0.42083573  0.90323520  0.75261532  1.0
  C  C93  1  0.84939688  0.42087927  0.75260212  1.0
  C  C94  1  0.33171055  0.84944113  0.75261191  1.0
  C  C95  1  0.15061693  0.66821863  0.24738431  1.0
  C  C96  1  0.66828930  0.09681531  0.24739392  1.0
  C  C97  1  0.09682756  0.57909771  0.24739003  1.0
  C  C98  1  0.57912120  0.15055478  0.24739308  1.0
  C  C99  1  0.86649693  0.29628050  0.68014342  1.0
  C  C100  1  0.38382250  0.86656102  0.68015251  1.0
  C  C101  1  0.81361956  0.38384376  0.68014472  1.0
  N  N102  1  0.73119485  0.30261169  0.53415721  1.0
  N  N103  1  0.23154153  0.73122329  0.53416022  1.0
  N  N104  1  0.80296807  0.23156458  0.53415663  1.0
  N  N105  1  0.30260662  0.80296776  0.53415566  1.0
  N  N106  1  0.19707045  0.69737757  0.46584493  1.0
  N  N107  1  0.69738373  0.26878697  0.46584216  1.0
  N  N108  1  0.26881579  0.76844247  0.46584088  1.0
  N  N109  1  0.76847734  0.19705999  0.46584179  1.0
  O  O110  1  0.95213829  0.41445057  0.00095194  1.0
  O  O111  1  0.58649446  0.95214055  0.00090675  1.0
  O  O112  1  0.04881558  0.58650314  0.00092649  1.0
  O  O113  1  0.41444539  0.04881961  0.00099454  1.0
  O  O114  1  0.95123421  0.58558691  0.99909276  1.0
  O  O115  1  0.58557665  0.04788828  0.99907312  1.0
  O  O116  1  0.04782383  0.41344925  0.99900314  1.0
  O  O117  1  0.41350165  0.95118748  0.99905162  1.0
  O  O118  1  0.90029658  0.44730795  0.89639176  1.0
  O  O119  1  0.44905954  0.90023021  0.89635379  1.0
  O  O120  1  0.99614726  0.44906250  0.89635176  1.0
  O  O121  1  0.44731922  0.99613616  0.89641601  1.0
  O  O122  1  0.00387281  0.55270718  0.10364847  1.0
  O  O123  1  0.55270580  0.09979297  0.10364410  1.0
  O  O124  1  0.09971468  0.55090076  0.10358324  1.0
  O  O125  1  0.55091871  0.00390637  0.10361127  1.0
  O  O126  1  0.05529894  0.97062728  0.94047112  1.0
  O  O127  1  0.96990376  0.05537110  0.94057394  1.0
  O  O128  1  0.88521605  0.96987061  0.94057363  1.0
  O  O129  1  0.97061899  0.88514855  0.94046773  1.0
  O  O130  1  0.11479728  0.02932945  0.05942606  1.0
  O  O131  1  0.02929451  0.94463920  0.05942395  1.0
  O  O132  1  0.94468033  0.03014925  0.05953039  1.0
  O  O133  1  0.03015546  0.11482698  0.05952898  1.0
