# generated using pymatgen
data_ZnH12C23BrN3O4
_symmetry_space_group_name_H-M   'P 1'
_cell_length_a   11.54193904
_cell_length_b   15.84572845
_cell_length_c   17.93985680
_cell_angle_alpha   90.00003934
_cell_angle_beta   92.93575043
_cell_angle_gamma   89.99997903
_symmetry_Int_Tables_number   1
_chemical_formula_structural   ZnH12C23BrN3O4
_chemical_formula_sum   'Zn2 H24 C46 Br2 N6 O8'
_cell_volume   3276.72211797
_cell_formula_units_Z   2
loop_
 _symmetry_equiv_pos_site_id
 _symmetry_equiv_pos_as_xyz
  1  'x, y, z'
loop_
 _atom_site_type_symbol
 _atom_site_label
 _atom_site_symmetry_multiplicity
 _atom_site_fract_x
 _atom_site_fract_y
 _atom_site_fract_z
 _atom_site_occupancy
  Zn  Zn0  1  0.00722195  0.99999987  0.07676900  1.0
  Zn  Zn1  1  0.99277622  0.00000007  0.92323087  1.0
  H  H2  1  0.25739300  0.79879295  0.11990496  1.0
  H  H3  1  0.23417117  0.79811168  0.88068852  1.0
  H  H4  1  0.35551363  0.66737106  0.87962273  1.0
  H  H5  1  0.37844862  0.66787500  0.11976968  1.0
  H  H6  1  0.74260612  0.79879192  0.88009482  1.0
  H  H7  1  0.76582969  0.79811068  0.11931076  1.0
  H  H8  1  0.64448729  0.66736947  0.12037815  1.0
  H  H9  1  0.62155056  0.66787274  0.88023058  1.0
  H  H10  1  0.74260626  0.20120816  0.88009465  1.0
  H  H11  1  0.76582983  0.20188943  0.11931058  1.0
  H  H12  1  0.64448736  0.33263067  0.12037805  1.0
  H  H13  1  0.62155064  0.33212674  0.88023048  1.0
  H  H14  1  0.25739314  0.20120729  0.11990478  1.0
  H  H15  1  0.23417131  0.20188853  0.88068835  1.0
  H  H16  1  0.35551371  0.33262911  0.87962207  1.0
  H  H17  1  0.37844870  0.33212521  0.11977014  1.0
  H  H18  1  0.82905596  0.00000034  0.18710074  1.0
  H  H19  1  0.18713407  0.00000043  0.20304126  1.0
  H  H20  1  0.81680151  0.99999986  0.32758978  1.0
  H  H21  1  0.19139218  0.00000048  0.34423406  1.0
  H  H22  1  0.17094613  0.00000004  0.81289922  1.0
  H  H23  1  0.81286801  0.99999995  0.79696093  1.0
  H  H24  1  0.18319775  0.99999998  0.67240983  1.0
  H  H25  1  0.80860707  0.99999999  0.65576777  1.0
  C  C26  1  0.23813463  0.80587241  0.00034174  1.0
  C  C27  1  0.15785438  0.88024515  0.00083739  1.0
  C  C28  1  0.43889466  0.57762767  0.99957646  1.0
  C  C29  1  0.37383159  0.65874039  0.99966927  1.0
  C  C30  1  0.28023271  0.76966646  0.06763396  1.0
  C  C31  1  0.26716686  0.76932286  0.93269260  1.0
  C  C32  1  0.33460109  0.69648745  0.93236904  1.0
  C  C33  1  0.34756729  0.69680581  0.06727354  1.0
  C  C34  1  0.76186449  0.80587210  0.99965805  1.0
  C  C35  1  0.84214644  0.88024292  0.99916249  1.0
  C  C36  1  0.56110544  0.57762726  0.00042378  1.0
  C  C37  1  0.62616933  0.65873933  0.00033160  1.0
  C  C38  1  0.71976729  0.76966548  0.93236584  1.0
  C  C39  1  0.73283401  0.76932246  0.06730779  1.0
  C  C40  1  0.66539981  0.69648707  0.06763074  1.0
  C  C41  1  0.65243362  0.69680484  0.93272680  1.0
  C  C42  1  0.76186376  0.19412806  0.99965784  1.0
  C  C43  1  0.84214488  0.11975532  0.99916221  1.0
  C  C44  1  0.56110547  0.42237280  0.00042373  1.0
  C  C45  1  0.62616853  0.34126071  0.00033148  1.0
  C  C46  1  0.71976655  0.23033401  0.93236565  1.0
  C  C47  1  0.73283413  0.23067761  0.06730763  1.0
  C  C48  1  0.66539990  0.30351365  0.06763118  1.0
  C  C49  1  0.65243284  0.30319530  0.93272665  1.0
  C  C50  1  0.23813477  0.19412711  0.00034156  1.0
  C  C51  1  0.15785368  0.11975503  0.00083881  1.0
  C  C52  1  0.43889556  0.42237258  0.99957645  1.0
  C  C53  1  0.37383167  0.34125988  0.99966918  1.0
  C  C54  1  0.28023284  0.23033373  0.06763380  1.0
  C  C55  1  0.26716699  0.23067675  0.93269244  1.0
  C  C56  1  0.33460118  0.30351214  0.93236893  1.0
  C  C57  1  0.34756738  0.30319437  0.06727287  1.0
  C  C58  1  0.90630878  0.99999981  0.22466016  1.0
  C  C59  1  0.10785084  0.00000045  0.23354802  1.0
  C  C60  1  0.90015923  0.00000037  0.30179790  1.0
  C  C61  1  0.00387171  0.99999998  0.34612609  1.0
  C  C62  1  0.10977061  0.00000048  0.31105899  1.0
  C  C63  1  0.00175997  0.00000001  0.42817372  1.0
  C  C64  1  0.09369221  0.00000003  0.77534006  1.0
  C  C65  1  0.89214951  0.99999992  0.76645410  1.0
  C  C66  1  0.09984112  0.00000000  0.69820255  1.0
  C  C67  1  0.99612819  0.99999996  0.65387439  1.0
  C  C68  1  0.89022864  0.99999999  0.68894340  1.0
  C  C69  1  0.99823733  0.99999993  0.57182501  1.0
  C  C70  1  0.38030961  0.49999982  0.99910122  1.0
  C  C71  1  0.61968966  0.50000003  0.00089615  1.0
  Br  Br72  1  0.21469030  0.49999984  0.99817018  1.0
  Br  Br73  1  0.78531072  0.50000000  0.00182224  1.0
  N  N74  1  0.00812795  0.00000045  0.19148270  1.0
  N  N75  1  0.89704643  0.00000043  0.45887269  1.0
  N  N76  1  0.10471337  0.00000001  0.46782373  1.0
  N  N77  1  0.99187327  0.99999993  0.80851722  1.0
  N  N78  1  0.10295109  0.00000004  0.54112797  1.0
  N  N79  1  0.89528393  0.99999993  0.53217611  1.0
  O  O80  1  0.13115420  0.90831647  0.06434274  1.0
  O  O81  1  0.11992764  0.90861847  0.93771824  1.0
  O  O82  1  0.86884488  0.90831608  0.93565710  1.0
  O  O83  1  0.88007143  0.90861802  0.06228216  1.0
  O  O84  1  0.86884506  0.09168401  0.93565686  1.0
  O  O85  1  0.88007162  0.09138201  0.06228248  1.0
  O  O86  1  0.13115438  0.09168377  0.06434306  1.0
  O  O87  1  0.11992783  0.09138182  0.93771856  1.0
