# generated using pymatgen
data_Al2H24C30O11
_symmetry_space_group_name_H-M   'P 1'
_cell_length_a   6.65170136
_cell_length_b   20.39778005
_cell_length_c   23.96534971
_cell_angle_alpha   90.21547799
_cell_angle_beta   90.73149926
_cell_angle_gamma   90.69320408
_symmetry_Int_Tables_number   1
_chemical_formula_structural   Al2H24C30O11
_chemical_formula_sum   'Al4 H48 C60 O22'
_cell_volume   3251.08935458
_cell_formula_units_Z   2
loop_
 _symmetry_equiv_pos_site_id
 _symmetry_equiv_pos_as_xyz
  1  'x, y, z'
loop_
 _atom_site_type_symbol
 _atom_site_label
 _atom_site_symmetry_multiplicity
 _atom_site_fract_x
 _atom_site_fract_y
 _atom_site_fract_z
 _atom_site_occupancy
  Al  Al0  1  0.88419525  0.49985940  0.50267751  1.0
  Al  Al1  1  0.38433371  0.50145437  0.50298405  1.0
  Al  Al2  1  0.34894608  0.99754356  0.99965402  1.0
  Al  Al3  1  0.84901118  0.99865975  0.99968767  1.0
  H  H4  1  0.12875957  0.71391098  0.85100902  1.0
  H  H5  1  0.21847643  0.64588951  0.78214611  1.0
  H  H6  1  0.33795602  0.76962818  0.67983819  1.0
  H  H7  1  0.44171874  0.70605772  0.72056893  1.0
  H  H8  1  0.40420397  0.76547641  0.80452737  1.0
  H  H9  1  0.37419900  0.83433719  0.76134693  1.0
  H  H10  1  0.80142401  0.72434034  0.70237704  1.0
  H  H11  1  0.80048408  0.81500817  0.75881512  1.0
  H  H12  1  0.38738767  0.74883765  0.18087304  1.0
  H  H13  1  0.39746063  0.67238277  0.26168371  1.0
  H  H14  1  0.84340217  0.75286797  0.32184762  1.0
  H  H15  1  0.83317921  0.82928089  0.24101941  1.0
  H  H16  1  0.33271133  0.25262155  0.81671820  1.0
  H  H17  1  0.90378660  0.24679606  0.68500884  1.0
  H  H18  1  0.35157273  0.24424743  0.32315016  1.0
  H  H19  1  0.34550598  0.16357242  0.24473955  1.0
  H  H20  1  0.87414221  0.25599760  0.17625588  1.0
  H  H21  1  0.88002137  0.33668745  0.25466907  1.0
  H  H22  1  0.76958320  0.63028141  0.75275769  1.0
  H  H23  1  0.96509562  0.57546747  0.73689534  1.0
  H  H24  1  0.89931989  0.58981194  0.80748671  1.0
  H  H25  1  0.70143911  0.72577622  0.80255758  1.0
  H  H26  1  0.78058607  0.67762855  0.85972128  1.0
  H  H27  1  0.79241398  0.76435899  0.86452708  1.0
  H  H28  1  0.89687636  0.88988948  0.68404368  1.0
  H  H29  1  0.02027857  0.91336594  0.74743485  1.0
  H  H30  1  0.15436314  0.87295129  0.69351606  1.0
  H  H31  1  0.23706097  0.36498883  0.81194172  1.0
  H  H32  1  0.07471147  0.30697539  0.77709378  1.0
  H  H33  1  0.12952912  0.45086750  0.74322147  1.0
  H  H34  1  0.97234902  0.39301495  0.70878543  1.0
  H  H35  1  0.77040298  0.37860409  0.79751933  1.0
  H  H36  1  0.76786813  0.46064319  0.77333561  1.0
  H  H37  1  0.92427113  0.43922483  0.83091522  1.0
  H  H38  1  0.89972890  0.10691861  0.76306563  1.0
  H  H39  1  0.07442250  0.16828384  0.74152893  1.0
  H  H40  1  0.00524579  0.16120113  0.81290525  1.0
  H  H41  1  0.82001063  0.81086574  0.57657839  1.0
  H  H42  1  0.66811136  0.80110928  0.63654414  1.0
  H  H43  1  0.82629892  0.68912853  0.56358587  1.0
  H  H44  1  0.67365083  0.67778904  0.62212040  1.0
  H  H45  1  0.39523309  0.74283929  0.57514963  1.0
  H  H46  1  0.46239735  0.67290007  0.53629857  1.0
  H  H47  1  0.54858997  0.75202743  0.51540256  1.0
  H  H48  1  0.64024809  0.58123012  0.48021126  1.0
  H  H49  1  0.13415754  0.42002283  0.47810576  1.0
  H  H50  1  0.59782886  0.91749973  0.97575034  1.0
  H  H51  1  0.10417633  0.08395156  0.99057040  1.0
  C  C52  1  0.62839211  0.41999506  0.57495914  1.0
  C  C53  1  0.63237369  0.42431533  0.42435995  1.0
  C  C54  1  0.13791739  0.58308269  0.42943321  1.0
  C  C55  1  0.13327226  0.57248116  0.58207835  1.0
  C  C56  1  0.07478991  0.66851686  0.77012528  1.0
  C  C57  1  0.31741222  0.74104700  0.71814059  1.0
  C  C58  1  0.31281207  0.78534220  0.77016830  1.0
  C  C59  1  0.08990094  0.87775395  0.87451997  1.0
  C  C60  1  0.11675741  0.70216072  0.71275151  1.0
  C  C61  1  0.02926114  0.72252686  0.81473945  1.0
  C  C62  1  0.09414949  0.79094431  0.79106397  1.0
  C  C63  1  0.95170223  0.80958912  0.74149399  1.0
  C  C64  1  0.94560488  0.75112815  0.69885629  1.0
  C  C65  1  0.08779689  0.83914236  0.83572727  1.0
  C  C66  1  0.12843523  0.65418016  0.66818189  1.0
  C  C67  1  0.13659830  0.61474994  0.63020548  1.0
  C  C68  1  0.27459712  0.70685963  0.25690835  1.0
  C  C69  1  0.12099232  0.70761668  0.29707331  1.0
  C  C70  1  0.96153603  0.75221725  0.29077292  1.0
  C  C71  1  0.95588187  0.79473606  0.24578673  1.0
  C  C72  1  0.10951700  0.79398304  0.20562571  1.0
  C  C73  1  0.26898910  0.74937950  0.21189681  1.0
  C  C74  1  0.12678189  0.66448668  0.34312994  1.0
  C  C75  1  0.10351936  0.83737157  0.15974342  1.0
  C  C76  1  0.09805672  0.87480433  0.12028103  1.0
  C  C77  1  0.13154922  0.62747386  0.38290720  1.0
  C  C78  1  0.45642615  0.25229828  0.78747765  1.0
  C  C79  1  0.61331129  0.20735537  0.79610300  1.0
  C  C80  1  0.77971172  0.20490550  0.75960146  1.0
  C  C81  1  0.77921063  0.24733536  0.71420572  1.0
  C  C82  1  0.62331999  0.29207772  0.70435750  1.0
  C  C83  1  0.46042547  0.29505147  0.74225350  1.0
  C  C84  1  0.60406140  0.16408408  0.84196504  1.0
  C  C85  1  0.62875114  0.33529235  0.65870493  1.0
  C  C86  1  0.63035124  0.37371385  0.61993082  1.0
  C  C87  1  0.60034864  0.12567625  0.88078579  1.0
  C  C88  1  0.46173065  0.20163653  0.24718534  1.0
  C  C89  1  0.60952838  0.20453655  0.20543252  1.0
  C  C90  1  0.76047680  0.25377595  0.20857381  1.0
  C  C91  1  0.76366592  0.29866769  0.25218058  1.0
  C  C92  1  0.61609207  0.29571027  0.29398293  1.0
  C  C93  1  0.46497868  0.24656563  0.29076898  1.0
  C  C94  1  0.60634591  0.15878360  0.16094567  1.0
  C  C95  1  0.62019449  0.34109099  0.33875387  1.0
  C  C96  1  0.62450415  0.37984207  0.37756525  1.0
  C  C97  1  0.60355191  0.11942910  0.12258792  1.0
  C  C98  1  0.59840385  0.07385965  0.07658416  1.0
  C  C99  1  0.60358032  0.07999088  0.92635103  1.0
  C  C100  1  0.09734343  0.92169461  0.92168443  1.0
  C  C101  1  0.09267688  0.91925618  0.07372425  1.0
  C  C102  1  0.91796468  0.61314083  0.76662408  1.0
  C  C103  1  0.81372154  0.72250197  0.83631527  1.0
  C  C104  1  0.01010169  0.87511647  0.71506994  1.0
  C  C105  1  0.16538684  0.35204310  0.77146495  1.0
  C  C106  1  0.03468464  0.40708265  0.74987921  1.0
  C  C107  1  0.86520109  0.42221015  0.79020668  1.0
  C  C108  1  0.94900081  0.15811426  0.76962526  1.0
  C  C109  1  0.78452796  0.77732484  0.61108270  1.0
  C  C110  1  0.70650199  0.71196437  0.58788426  1.0
  C  C111  1  0.51804520  0.72058256  0.55162312  1.0
  O  O112  1  0.46560707  0.43667916  0.44762872  1.0
  O  O113  1  0.79522872  0.43196391  0.55128531  1.0
  O  O114  1  0.96194372  0.54979008  0.56688910  1.0
  O  O115  1  0.80607086  0.44635884  0.43831269  1.0
  O  O116  1  0.97064628  0.56976110  0.45253204  1.0
  O  O117  1  0.45900332  0.44473960  0.56248252  1.0
  O  O118  1  0.63655473  0.54110994  0.50184066  1.0
  O  O119  1  0.31060059  0.56157916  0.44332568  1.0
  O  O120  1  0.29968710  0.56268971  0.55787637  1.0
  O  O121  1  0.13362437  0.46098783  0.49875069  1.0
  O  O122  1  0.77547377  0.05714122  0.93932824  1.0
  O  O123  1  0.42747855  0.04936691  0.06334333  1.0
  O  O124  1  0.25902863  0.93043119  0.04956930  1.0
  O  O125  1  0.43620057  0.06712072  0.94959254  1.0
  O  O126  1  0.27063255  0.94375908  0.93612212  1.0
  O  O127  1  0.76471050  0.06292681  0.05274745  1.0
  O  O128  1  0.59795527  0.95821755  0.99677184  1.0
  O  O129  1  0.93109031  0.93380703  0.94540322  1.0
  O  O130  1  0.92222887  0.94271103  0.06064610  1.0
  O  O131  1  0.10117949  0.03783921  0.00001337  1.0
  O  O132  1  0.31967539  0.34064952  0.73099111  1.0
  O  O133  1  0.96860365  0.77241188  0.64275130  1.0
