# generated using pymatgen
data_AlH12C24S3(NO5)3
_symmetry_space_group_name_H-M   'P 1'
_cell_length_a   4.27578808
_cell_length_b   15.65438740
_cell_length_c   15.67322304
_cell_angle_alpha   60.19512921
_cell_angle_beta   84.80985115
_cell_angle_gamma   84.51536811
_symmetry_Int_Tables_number   1
_chemical_formula_structural   AlH12C24S3(NO5)3
_chemical_formula_sum   'Al1 H12 C24 S3 N3 O15'
_cell_volume   905.02644628
_cell_formula_units_Z   1
loop_
 _symmetry_equiv_pos_site_id
 _symmetry_equiv_pos_as_xyz
  1  'x, y, z'
loop_
 _atom_site_type_symbol
 _atom_site_label
 _atom_site_symmetry_multiplicity
 _atom_site_fract_x
 _atom_site_fract_y
 _atom_site_fract_z
 _atom_site_occupancy
  Al  Al0  1  0.09796817  0.49767905  0.50039582  1.0
  H  H1  1  0.52896976  0.49256901  0.25008478  1.0
  H  H2  1  0.45649383  0.40952607  0.15306402  1.0
  H  H3  1  0.63161142  0.12646951  0.40883848  1.0
  H  H4  1  0.48242724  0.41444030  0.96093904  1.0
  H  H5  1  0.49007801  0.24825602  0.76058855  1.0
  H  H6  1  0.42285782  0.15068958  0.94355261  1.0
  H  H7  1  0.31354448  0.95754758  0.14099332  1.0
  H  H8  1  0.71567150  0.75947157  0.47598385  1.0
  H  H9  1  0.66585790  0.94332434  0.39652045  1.0
  H  H10  1  0.18424529  0.20748137  0.58854557  1.0
  H  H11  1  0.04214909  0.59306963  0.69414448  1.0
  H  H12  1  0.75497057  0.70356505  0.19858376  1.0
  C  C13  1  0.57296063  0.64434922  0.41158947  1.0
  C  C14  1  0.64105722  0.40908088  0.44135488  1.0
  C  C15  1  0.56810688  0.44081565  0.64738952  1.0
  C  C16  1  0.44236716  0.21880960  0.07234135  1.0
  C  C17  1  0.50113930  0.21249047  0.21819376  1.0
  C  C18  1  0.47586999  0.07093793  0.21282783  1.0
  C  C19  1  0.55115263  0.41232726  0.28462680  1.0
  C  C20  1  0.50866902  0.36611855  0.23055412  1.0
  C  C21  1  0.53510972  0.26284704  0.27509168  1.0
  C  C22  1  0.60450049  0.20645029  0.37451350  1.0
  C  C23  1  0.64562850  0.25301259  0.42829733  1.0
  C  C24  1  0.61964499  0.35635906  0.38426670  1.0
  C  C25  1  0.47437045  0.37855287  0.91699820  1.0
  C  C26  1  0.51005504  0.43289853  0.81489790  1.0
  C  C27  1  0.51895336  0.38650299  0.75748809  1.0
  C  C28  1  0.48254630  0.28468145  0.80472833  1.0
  C  C29  1  0.44406472  0.23014086  0.90678638  1.0
  C  C30  1  0.44400504  0.27657677  0.96376584  1.0
  C  C31  1  0.39348584  0.91404322  0.21556707  1.0
  C  C32  1  0.40498573  0.81143664  0.26192791  1.0
  C  C33  1  0.52675765  0.75450628  0.35655653  1.0
  C  C34  1  0.62049373  0.80377065  0.40337407  1.0
  C  C35  1  0.59493719  0.90599055  0.35902377  1.0
  C  C36  1  0.48586301  0.96198603  0.26376709  1.0
  S  S37  1  0.75162940  0.17385757  0.55256430  1.0
  S  S38  1  0.58002769  0.56025768  0.76497314  1.0
  S  S39  1  0.26690348  0.76607302  0.18710898  1.0
  N  N40  1  0.46470159  0.26841796  0.12101845  1.0
  N  N41  1  0.51683080  0.11325983  0.26708113  1.0
  N  N42  1  0.43474749  0.12021102  0.11543080  1.0
  O  O43  1  0.82974941  0.42173891  0.61331055  1.0
  O  O44  1  0.81338941  0.61016897  0.46364797  1.0
  O  O45  1  0.87828499  0.45939875  0.42303527  1.0
  O  O46  1  0.33944782  0.49789497  0.59936962  1.0
  O  O47  1  0.40673280  0.39989356  0.50117629  1.0
  O  O48  1  0.37101796  0.59447404  0.40377206  1.0
  O  O49  1  0.47153020  0.15618968  0.61912785  1.0
  O  O50  1  0.92536380  0.08831965  0.55819044  1.0
  O  O51  1  0.95253276  0.23968802  0.57064120  1.0
  O  O52  1  0.30077859  0.62245997  0.71841192  1.0
  O  O53  1  0.70161938  0.57171696  0.84078196  1.0
  O  O54  1  0.82260090  0.57886142  0.67896638  1.0
  O  O55  1  0.01465041  0.69938402  0.24441238  1.0
  O  O56  1  0.17845609  0.84979874  0.09523084  1.0
  O  O57  1  0.53398784  0.70088854  0.17297297  1.0
