# generated using pymatgen
data_Al4H21C25O21F
_symmetry_space_group_name_H-M   'P 1'
_cell_length_a   6.67408367
_cell_length_b   12.58768156
_cell_length_c   17.48661279
_cell_angle_alpha   90.26020782
_cell_angle_beta   90.39551470
_cell_angle_gamma   90.80693920
_symmetry_Int_Tables_number   1
_chemical_formula_structural   Al4H21C25O21F
_chemical_formula_sum   'Al4 H21 C25 O21 F1'
_cell_volume   1468.87552295
_cell_formula_units_Z   1
loop_
 _symmetry_equiv_pos_site_id
 _symmetry_equiv_pos_as_xyz
  1  'x, y, z'
loop_
 _atom_site_type_symbol
 _atom_site_label
 _atom_site_symmetry_multiplicity
 _atom_site_fract_x
 _atom_site_fract_y
 _atom_site_fract_z
 _atom_site_occupancy
  Al  Al0  1  0.11824967  0.50200029  0.50045078  1.0
  Al  Al1  1  0.61780540  0.50195601  0.50167821  1.0
  Al  Al2  1  0.62820381  0.99632967  0.99859298  1.0
  Al  Al3  1  0.12933253  0.99950066  0.00057375  1.0
  H  H4  1  0.57715079  0.20258397  0.81521636  1.0
  H  H5  1  0.03355295  0.18775571  0.79301847  1.0
  H  H6  1  0.56705029  0.29915851  0.69274196  1.0
  H  H7  1  0.02849766  0.30405879  0.70025386  1.0
  H  H8  1  0.16835258  0.31528856  0.30961550  1.0
  H  H9  1  0.70623311  0.29917820  0.29926283  1.0
  H  H10  1  0.72925321  0.19313896  0.20112489  1.0
  H  H11  1  0.50269422  0.76074812  0.81451729  1.0
  H  H12  1  0.06827446  0.68717293  0.69088479  1.0
  H  H13  1  0.52335175  0.73142728  0.69071579  1.0
  H  H14  1  0.07243077  0.81497523  0.19672873  1.0
  H  H15  1  0.52653982  0.77582861  0.18790834  1.0
  H  H16  1  0.06931861  0.68829260  0.30461561  1.0
  H  H17  1  0.52690701  0.72270593  0.31215921  1.0
  H  H18  1  0.86992654  0.82010222  0.69736863  1.0
  H  H19  1  0.97230583  0.94528781  0.72986614  1.0
  H  H20  1  0.75654396  0.88959464  0.77600320  1.0
  H  H21  1  0.36482033  0.36868713  0.52760963  1.0
  H  H22  1  0.86943015  0.63479522  0.47425189  1.0
  H  H23  1  0.38633304  0.13009224  0.02895332  1.0
  H  H24  1  0.88167221  0.86838094  0.96806480  1.0
  C  C25  1  0.37414897  0.62996450  0.60531212  1.0
  C  C26  1  0.36819111  0.62477393  0.39466700  1.0
  C  C27  1  0.86098411  0.37890840  0.39424687  1.0
  C  C28  1  0.86828755  0.38155676  0.60882017  1.0
  C  C29  1  0.71921631  0.21804526  0.78627693  1.0
  C  C30  1  0.88578824  0.17749466  0.81850526  1.0
  C  C31  1  0.71432628  0.28002723  0.71635152  1.0
  C  C32  1  0.87695629  0.31750256  0.67902700  1.0
  C  C33  1  0.02401516  0.29136574  0.28448883  1.0
  C  C34  1  0.85561763  0.31824075  0.32147652  1.0
  C  C35  1  0.03206749  0.23281806  0.21292981  1.0
  C  C36  1  0.87651056  0.18599976  0.17533652  1.0
  C  C37  1  0.20002247  0.78252086  0.78402213  1.0
  C  C38  1  0.36307172  0.79840197  0.83038973  1.0
  C  C39  1  0.20917809  0.72072576  0.71312091  1.0
  C  C40  1  0.37658925  0.69999985  0.67357818  1.0
  C  C41  1  0.21550622  0.78362395  0.21665204  1.0
  C  C42  1  0.37886171  0.80718511  0.17453372  1.0
  C  C43  1  0.21432446  0.71861260  0.28491270  1.0
  C  C44  1  0.37746860  0.69366063  0.32693284  1.0
  C  C45  1  0.37059812  0.87675512  0.10656247  1.0
  C  C46  1  0.37372972  0.86869114  0.89732471  1.0
  C  C47  1  0.88440689  0.11603483  0.89053843  1.0
  C  C48  1  0.87956484  0.12251142  0.10463340  1.0
  C  C49  1  0.89802571  0.87095873  0.74785718  1.0
  O  O50  1  0.53695712  0.60105974  0.42476061  1.0
  O  O51  1  0.20455047  0.60499686  0.57600160  1.0
  O  O52  1  0.03861066  0.41017025  0.58215176  1.0
  O  O53  1  0.19704595  0.59387506  0.41876928  1.0
  O  O54  1  0.03146510  0.39964671  0.42441499  1.0
  O  O55  1  0.54553857  0.60095734  0.58161195  1.0
  O  O56  1  0.36644112  0.43714765  0.50254267  1.0
  O  O57  1  0.69046590  0.40525639  0.42030314  1.0
  O  O58  1  0.69830481  0.40418098  0.57968540  1.0
  O  O59  1  0.86962175  0.56643454  0.49947945  1.0
  O  O60  1  0.21331479  0.89190999  0.93210261  1.0
  O  O61  1  0.53762474  0.89291522  0.07295321  1.0
  O  O62  1  0.70803001  0.08730219  0.08244065  1.0
  O  O63  1  0.54945213  0.90311619  0.91600562  1.0
  O  O64  1  0.71696603  0.09917227  0.92324392  1.0
  O  O65  1  0.20109956  0.91388679  0.08736316  1.0
  O  O66  1  0.38183925  0.06433371  0.99981785  1.0
  O  O67  1  0.05625992  0.08559778  0.91348651  1.0
  O  O68  1  0.04527676  0.10609785  0.07114118  1.0
  O  O69  1  0.87766454  0.93268417  0.99885823  1.0
  O  O70  1  0.01745595  0.81956551  0.80507694  1.0
  F  F71  1  0.22199644  0.22739737  0.18554697  1.0
