# generated using pymatgen
data_Zn4CoH27C42(N3O)6
_symmetry_space_group_name_H-M   'P 1'
_cell_length_a   17.60053028
_cell_length_b   17.60045863
_cell_length_c   19.57223894
_cell_angle_alpha   90.00051997
_cell_angle_beta   90.00027419
_cell_angle_gamma   59.99977531
_symmetry_Int_Tables_number   1
_chemical_formula_structural   Zn4CoH27C42(N3O)6
_chemical_formula_sum   'Zn8 Co2 H54 C84 N36 O12'
_cell_volume   5250.73251497
_cell_formula_units_Z   2
loop_
 _symmetry_equiv_pos_site_id
 _symmetry_equiv_pos_as_xyz
  1  'x, y, z'
loop_
 _atom_site_type_symbol
 _atom_site_label
 _atom_site_symmetry_multiplicity
 _atom_site_fract_x
 _atom_site_fract_y
 _atom_site_fract_z
 _atom_site_occupancy
  Zn  Zn0  1  0.49390255  0.63216481  0.67563542  1.0
  Zn  Zn1  1  0.87393257  0.49390554  0.67563261  1.0
  Zn  Zn2  1  0.63216361  0.87393015  0.67563518  1.0
  Zn  Zn3  1  0.50609652  0.12606440  0.32436954  1.0
  Zn  Zn4  1  0.12606293  0.36784005  0.32437175  1.0
  Zn  Zn5  1  0.36783916  0.50609481  0.32436978  1.0
  Zn  Zn6  1  0.66666667  0.66666667  0.74042975  1.0
  Zn  Zn7  1  0.33333333  0.33333333  0.25957416  1.0
  Co  Co8  1  0.66666667  0.66666667  0.91067905  1.0
  Co  Co9  1  0.33333333  0.33333333  0.08932946  1.0
  H  H10  1  0.35752351  0.51001994  0.56684433  1.0
  H  H11  1  0.28194013  0.61946383  0.54675698  1.0
  H  H12  1  0.27822955  0.57580975  0.62966964  1.0
  H  H13  1  0.47227264  0.98372334  0.55938492  1.0
  H  H14  1  0.27399178  0.92200201  0.49499968  1.0
  H  H15  1  0.33807521  0.78827680  0.56856724  1.0
  H  H16  1  0.53144125  0.61528553  0.00391310  1.0
  H  H17  1  0.37240529  0.59491310  0.79566115  1.0
  H  H18  1  0.33182683  0.57241925  0.91312888  1.0
  H  H19  1  0.13245477  0.35752464  0.56684731  1.0
  H  H20  1  0.09859800  0.28193682  0.54676082  1.0
  H  H21  1  0.14596458  0.27822977  0.62967273  1.0
  H  H22  1  0.54400427  0.47226959  0.55938502  1.0
  H  H23  1  0.80400820  0.27398946  0.49500021  1.0
  H  H24  1  0.87364827  0.33807736  0.56856553  1.0
  H  H25  1  0.85326882  0.53144092  0.00391039  1.0
  H  H26  1  0.03268036  0.37240408  0.79566001  1.0
  H  H27  1  0.09575049  0.33182442  0.91312789  1.0
  H  H28  1  0.51001902  0.13245434  0.56684516  1.0
  H  H29  1  0.61946382  0.09859206  0.54675966  1.0
  H  H30  1  0.57580915  0.14595639  0.62967210  1.0
  H  H31  1  0.98372912  0.54401045  0.55938729  1.0
  H  H32  1  0.92199519  0.80401554  0.49500264  1.0
  H  H33  1  0.78827069  0.87365262  0.56857061  1.0
  H  H34  1  0.61529656  0.85326805  0.00391171  1.0
  H  H35  1  0.59491251  0.03268250  0.79566239  1.0
  H  H36  1  0.57243020  0.09575053  0.91313102  1.0
  H  H37  1  0.64248226  0.86753888  0.43315142  1.0
  H  H38  1  0.71806549  0.90140099  0.45323885  1.0
  H  H39  1  0.72177550  0.85403408  0.37032582  1.0
  H  H40  1  0.52773783  0.45599230  0.44060752  1.0
  H  H41  1  0.72601048  0.19598904  0.50499655  1.0
  H  H42  1  0.66192837  0.12634755  0.43142559  1.0
  H  H43  1  0.46856681  0.14672785  0.99609290  1.0
  H  H44  1  0.62759641  0.96731394  0.20434149  1.0
  H  H45  1  0.66817989  0.90424590  0.08687495  1.0
  H  H46  1  0.86753768  0.48997978  0.43314832  1.0
  H  H47  1  0.90140169  0.38053395  0.45323455  1.0
  H  H48  1  0.85403008  0.42419071  0.37032383  1.0
  H  H49  1  0.45599534  0.01627272  0.44061015  1.0
  H  H50  1  0.19599271  0.07799773  0.50499543  1.0
  H  H51  1  0.12635142  0.21171967  0.43142529  1.0
  H  H52  1  0.14672650  0.38471469  0.99609471  1.0
  H  H53  1  0.96730863  0.40509242  0.20433890  1.0
  H  H54  1  0.90424419  0.42757718  0.08687094  1.0
  H  H55  1  0.48998348  0.64247431  0.43315170  1.0
  H  H56  1  0.38053792  0.71806292  0.45323634  1.0
  H  H57  1  0.42419755  0.72176661  0.37032463  1.0
  H  H58  1  0.01627116  0.52774057  0.44060977  1.0
  H  H59  1  0.07799389  0.72601844  0.50499783  1.0
  H  H60  1  0.21172132  0.66193101  0.43143295  1.0
  H  H61  1  0.38471253  0.46855747  0.99609455  1.0
  H  H62  1  0.40509079  0.62759701  0.20434064  1.0
  H  H63  1  0.42757721  0.66817660  0.08687397  1.0
  C  C64  1  0.38470323  0.60200622  0.61532568  1.0
  C  C65  1  0.32042087  0.57632321  0.58875924  1.0
  C  C66  1  0.47679732  0.86836848  0.60383210  1.0
  C  C67  1  0.43965930  0.81328146  0.60667613  1.0
  C  C68  1  0.44197969  0.94293850  0.56189692  1.0
  C  C69  1  0.33047234  0.90634384  0.52730621  1.0
  C  C70  1  0.36489551  0.83218320  0.56791605  1.0
  C  C71  1  0.36821654  0.96169459  0.52325537  1.0
  C  C72  1  0.47353623  0.61982832  0.83483173  1.0
  C  C73  1  0.51663263  0.62706823  0.89351446  1.0
  C  C74  1  0.49509580  0.61332011  0.95950425  1.0
  C  C75  1  0.42895634  0.59217985  0.96601528  1.0
  C  C76  1  0.40562838  0.59995558  0.84093862  1.0
  C  C77  1  0.38483434  0.58682896  0.90633423  1.0
  C  C78  1  0.01329255  0.38470112  0.61533063  1.0
  C  C79  1  0.10325679  0.32041910  0.58876231  1.0
  C  C80  1  0.65483385  0.47679589  0.60383292  1.0
  C  C81  1  0.74705814  0.43965998  0.60667526  1.0
  C  C82  1  0.61508336  0.44197514  0.56189626  1.0
  C  C83  1  0.76318587  0.33047020  0.52730631  1.0
  C  C84  1  0.80292101  0.36489666  0.56791610  1.0
  C  C85  1  0.67009136  0.36821362  0.52325563  1.0
  C  C86  1  0.90663268  0.47353551  0.83482951  1.0
  C  C87  1  0.85629824  0.51663138  0.89351219  1.0
  C  C88  1  0.89158063  0.49509505  0.95950258  1.0
  C  C89  1  0.97886090  0.42895523  0.96601376  1.0
  C  C90  1  0.99441358  0.40562628  0.84093756  1.0
  C  C91  1  0.02833378  0.38483179  0.90633314  1.0
  C  C92  1  0.60200385  0.01328770  0.61532527  1.0
  C  C93  1  0.57632333  0.10325299  0.58876040  1.0
  C  C94  1  0.86837199  0.65483636  0.60383463  1.0
  C  C95  1  0.81328123  0.74706263  0.60667820  1.0
  C  C96  1  0.94294235  0.61508649  0.56189717  1.0
  C  C97  1  0.90633911  0.76319147  0.52730891  1.0
  C  C98  1  0.83217756  0.80292823  0.56792051  1.0
  C  C99  1  0.96169217  0.67009856  0.52325801  1.0
  C  C100  1  0.61982856  0.90663376  0.83483118  1.0
  C  C101  1  0.62706980  0.85629820  0.89351308  1.0
  C  C102  1  0.61332730  0.89158099  0.95950412  1.0
  C  C103  1  0.59218706  0.97886117  0.96601620  1.0
  C  C104  1  0.59995844  0.99441451  0.84093913  1.0
  C  C105  1  0.58683704  0.02833466  0.90633441  1.0
  C  C106  1  0.61529990  0.98670350  0.38466736  1.0
  C  C107  1  0.67958454  0.89674014  0.41123640  1.0
  C  C108  1  0.52320926  0.34516320  0.39616145  1.0
  C  C109  1  0.56034591  0.25293827  0.39331732  1.0
  C  C110  1  0.55802752  0.38491559  0.43809659  1.0
  C  C111  1  0.66953186  0.23681186  0.47268910  1.0
  C  C112  1  0.63510969  0.19707521  0.43207726  1.0
  C  C113  1  0.63178767  0.32990869  0.47674054  1.0
  C  C114  1  0.52646355  0.09336340  0.16517509  1.0
  C  C115  1  0.48337029  0.14369835  0.10649209  1.0
  C  C116  1  0.50490972  0.10841554  0.04050005  1.0
  C  C117  1  0.57105122  0.02113467  0.03399113  1.0
  C  C118  1  0.59437673  0.00557999  0.15906674  1.0
  C  C119  1  0.61517249  0.97166180  0.09367096  1.0
  C  C120  1  0.98669905  0.39799795  0.38466217  1.0
  C  C121  1  0.89673918  0.42367585  0.41123237  1.0
  C  C122  1  0.34516464  0.13162898  0.39616376  1.0
  C  C123  1  0.25293888  0.18671612  0.39331945  1.0
  C  C124  1  0.38491654  0.05705830  0.43809947  1.0
  C  C125  1  0.23681414  0.09365516  0.47268911  1.0
  C  C126  1  0.19707733  0.16781384  0.43207823  1.0
  C  C127  1  0.32991070  0.03830364  0.47674125  1.0
  C  C128  1  0.09335819  0.38017527  0.16517584  1.0
  C  C129  1  0.14369482  0.37293527  0.10649178  1.0
  C  C130  1  0.10841338  0.38668017  0.04050136  1.0
  C  C131  1  0.02113305  0.40781925  0.03398948  1.0
  C  C132  1  0.00557643  0.40004684  0.15906453  1.0
  C  C133  1  0.97165939  0.41316933  0.09366892  1.0
  C  C134  1  0.39799987  0.61529540  0.38466639  1.0
  C  C135  1  0.42368008  0.67957927  0.41123598  1.0
  C  C136  1  0.13162798  0.52321078  0.39616542  1.0
  C  C137  1  0.18671571  0.56034787  0.39332340  1.0
  C  C138  1  0.05705671  0.55802968  0.43809928  1.0
  C  C139  1  0.09365171  0.66953641  0.47269167  1.0
  C  C140  1  0.16781415  0.63511247  0.43208162  1.0
  C  C141  1  0.03830120  0.63179312  0.47674203  1.0
  C  C142  1  0.38017416  0.52646349  0.16517553  1.0
  C  C143  1  0.37293506  0.48336703  0.10649222  1.0
  C  C144  1  0.38667988  0.50490395  0.04050040  1.0
  C  C145  1  0.40782025  0.57104368  0.03399048  1.0
  C  C146  1  0.40004680  0.59437393  0.15906669  1.0
  C  C147  1  0.41316973  0.61516799  0.09366957  1.0
  N  N148  1  0.49037196  0.74656452  0.65063312  1.0
  N  N149  1  0.55431723  0.75975278  0.67338340  1.0
  N  N150  1  0.54751720  0.83261445  0.64672756  1.0
  N  N151  1  0.51176224  0.63418007  0.77949278  1.0
  N  N152  1  0.57461341  0.64910427  0.80258078  1.0
  N  N153  1  0.57934460  0.64553299  0.87091174  1.0
  N  N154  1  0.76306250  0.49037393  0.65063215  1.0
  N  N155  1  0.68592908  0.55431739  0.67338539  1.0
  N  N156  1  0.61986741  0.54751524  0.64673063  1.0
  N  N157  1  0.85405655  0.51176217  0.77949097  1.0
  N  N158  1  0.77627907  0.57461656  0.80257784  1.0
  N  N159  1  0.77511994  0.57934646  0.87090985  1.0
  N  N160  1  0.74656466  0.76306429  0.65063477  1.0
  N  N161  1  0.75975323  0.68593096  0.67338558  1.0
  N  N162  1  0.83261728  0.61986972  0.64672935  1.0
  N  N163  1  0.63417611  0.85405848  0.77949139  1.0
  N  N164  1  0.64910097  0.77628089  0.80257839  1.0
  N  N165  1  0.64553244  0.77512196  0.87091037  1.0
  N  N166  1  0.50963002  0.23693474  0.34936408  1.0
  N  N167  1  0.44568330  0.31406812  0.32661571  1.0
  N  N168  1  0.45248587  0.38012995  0.35326956  1.0
  N  N169  1  0.48823635  0.14593805  0.22051381  1.0
  N  N170  1  0.42538223  0.22371569  0.19742721  1.0
  N  N171  1  0.42065752  0.22487068  0.12909573  1.0
  N  N172  1  0.23693591  0.25343433  0.34936560  1.0
  N  N173  1  0.31406898  0.24024793  0.32661563  1.0
  N  N174  1  0.38013098  0.16738488  0.35327058  1.0
  N  N175  1  0.14593442  0.36582607  0.22051448  1.0
  N  N176  1  0.22371000  0.35090239  0.19742832  1.0
  N  N177  1  0.22486793  0.35447235  0.12909737  1.0
  N  N178  1  0.25343586  0.50962991  0.34936924  1.0
  N  N179  1  0.24024836  0.44568260  0.32661938  1.0
  N  N180  1  0.16738249  0.45248684  0.35327384  1.0
  N  N181  1  0.36582345  0.48823887  0.22051342  1.0
  N  N182  1  0.35089848  0.42538588  0.19742686  1.0
  N  N183  1  0.35447019  0.42065794  0.12909588  1.0
  O  O184  1  0.42164032  0.63051701  0.57571108  1.0
  O  O185  1  0.40356656  0.59253361  0.67990133  1.0
  O  O186  1  0.94783811  0.42161789  0.57572004  1.0
  O  O187  1  0.00390923  0.40358625  0.67990224  1.0
  O  O188  1  0.63051713  0.94783854  0.57570977  1.0
  O  O189  1  0.59252758  0.00389712  0.67990034  1.0
  O  O190  1  0.57837985  0.05215988  0.42427876  1.0
  O  O191  1  0.59641764  0.99608557  0.32009631  1.0
  O  O192  1  0.05215400  0.36947421  0.42427228  1.0
  O  O193  1  0.99608374  0.40748759  0.32008965  1.0
  O  O194  1  0.36945344  0.57838372  0.42427536  1.0
  O  O195  1  0.40751113  0.59640437  0.32009682  1.0
