# generated using pymatgen
data_TbH27C28(SO4)2
_symmetry_space_group_name_H-M   'P 1'
_cell_length_a   16.60406859
_cell_length_b   16.60370983
_cell_length_c   27.81336130
_cell_angle_alpha   80.51353869
_cell_angle_beta   80.51352365
_cell_angle_gamma   62.33307962
_symmetry_Int_Tables_number   1
_chemical_formula_structural   TbH27C28(SO4)2
_chemical_formula_sum   'Tb4 H108 C112 S8 O32'
_cell_volume   6663.94643219
_cell_formula_units_Z   4
loop_
 _symmetry_equiv_pos_site_id
 _symmetry_equiv_pos_as_xyz
  1  'x, y, z'
loop_
 _atom_site_type_symbol
 _atom_site_label
 _atom_site_symmetry_multiplicity
 _atom_site_fract_x
 _atom_site_fract_y
 _atom_site_fract_z
 _atom_site_occupancy
  Tb  Tb0  1  0.02890621  0.56270853  0.04567386  1.0
  Tb  Tb1  1  0.43730122  0.97109149  0.45432867  1.0
  Tb  Tb2  1  0.97109712  0.43728627  0.95433066  1.0
  Tb  Tb3  1  0.56271284  0.02890528  0.54566813  1.0
  H  H4  1  0.11946275  0.53902282  0.20793735  1.0
  H  H5  1  0.19371400  0.56862888  0.26977349  1.0
  H  H6  1  0.33613038  0.67286123  0.15253378  1.0
  H  H7  1  0.26126155  0.64254567  0.09197798  1.0
  H  H8  1  0.28160995  0.62906205  0.29124799  1.0
  H  H9  1  0.16003315  0.24048938  0.97918240  1.0
  H  H10  1  0.28813833  0.08438213  0.97008329  1.0
  H  H11  1  0.45835720  0.15367915  0.03960524  1.0
  H  H12  1  0.32891281  0.30781645  0.04967161  1.0
  H  H13  1  0.43595151  0.97379364  0.97928598  1.0
  H  H14  1  0.81358564  0.34766265  0.07926686  1.0
  H  H15  1  0.74282005  0.28592226  0.15210692  1.0
  H  H16  1  0.87631884  0.35866733  0.24600235  1.0
  H  H17  1  0.94637857  0.42047843  0.17175028  1.0
  H  H18  1  0.78225513  0.29274756  0.28316799  1.0
  H  H19  1  0.09493738  0.79037623  0.06834821  1.0
  H  H20  1  0.98848103  0.88437590  0.05103049  1.0
  H  H21  1  0.09586879  0.87079991  0.01654361  1.0
  H  H22  1  0.92332090  0.90305934  0.97252077  1.0
  H  H23  1  0.96332290  0.81565910  0.93156599  1.0
  H  H24  1  0.02732822  0.87789808  0.93152865  1.0
  H  H25  1  0.94954515  0.57454345  0.19555941  1.0
  H  H26  1  0.82642512  0.62789592  0.19669335  1.0
  H  H27  1  0.88117437  0.67662418  0.22613696  1.0
  H  H28  1  0.78318670  0.84641988  0.10976928  1.0
  H  H29  1  0.78209831  0.83595313  0.17525927  1.0
  H  H30  1  0.73436327  0.77817006  0.14751998  1.0
  H  H31  1  0.46098515  0.88054896  0.29206168  1.0
  H  H32  1  0.43138669  0.80629625  0.23021985  1.0
  H  H33  1  0.32713518  0.66388593  0.34745326  1.0
  H  H34  1  0.35744148  0.73875758  0.40801083  1.0
  H  H35  1  0.37096347  0.71839433  0.20874169  1.0
  H  H36  1  0.75951464  0.83996913  0.52080834  1.0
  H  H37  1  0.91562599  0.71186409  0.52990347  1.0
  H  H38  1  0.84632473  0.54162204  0.46039623  1.0
  H  H39  1  0.69218673  0.67107602  0.45033110  1.0
  H  H40  1  0.02620271  0.56404825  0.52071527  1.0
  H  H41  1  0.65233865  0.18641581  0.42073608  1.0
  H  H42  1  0.71407789  0.25717777  0.34789866  1.0
  H  H43  1  0.64133163  0.12367716  0.25399915  1.0
  H  H44  1  0.57951715  0.05362323  0.32825528  1.0
  H  H45  1  0.70725041  0.21774078  0.21683688  1.0
  H  H46  1  0.20964717  0.90505253  0.43165788  1.0
  H  H47  1  0.11563235  0.01151004  0.44896853  1.0
  H  H48  1  0.12922524  0.90411702  0.48345992  1.0
  H  H49  1  0.09693097  0.07668179  0.52747692  1.0
  H  H50  1  0.18431348  0.03670268  0.56844112  1.0
  H  H51  1  0.12209034  0.97268204  0.56847306  1.0
  H  H52  1  0.42544517  0.05046052  0.30444627  1.0
  H  H53  1  0.37208536  0.17358269  0.30330622  1.0
  H  H54  1  0.32336830  0.11881951  0.27386754  1.0
  H  H55  1  0.15357650  0.21679102  0.39024212  1.0
  H  H56  1  0.16403946  0.21787131  0.32475259  1.0
  H  H57  1  0.22179787  0.26563591  0.35248778  1.0
  H  H58  1  0.88054578  0.46096990  0.79206326  1.0
  H  H59  1  0.80628848  0.43138433  0.73022318  1.0
  H  H60  1  0.66388422  0.32712190  0.84745352  1.0
  H  H61  1  0.73876003  0.35742174  0.90801234  1.0
  H  H62  1  0.71839500  0.37095658  0.70874322  1.0
  H  H63  1  0.83996557  0.75950069  0.02082880  1.0
  H  H64  1  0.71184725  0.91561008  0.02993619  1.0
  H  H65  1  0.54164370  0.84632383  0.96038936  1.0
  H  H66  1  0.67109425  0.69219331  0.95032099  1.0
  H  H67  1  0.56403955  0.02619580  0.02072100  1.0
  H  H68  1  0.18639481  0.65235208  0.92073795  1.0
  H  H69  1  0.25715308  0.71409933  0.84790261  1.0
  H  H70  1  0.12365975  0.64134331  0.75400125  1.0
  H  H71  1  0.05360860  0.57953352  0.82825558  1.0
  H  H72  1  0.21773020  0.70726304  0.71683675  1.0
  H  H73  1  0.90508210  0.20960278  0.93164657  1.0
  H  H74  1  0.01154001  0.11560788  0.94896834  1.0
  H  H75  1  0.90414853  0.12917435  0.98345365  1.0
  H  H76  1  0.07668086  0.09692661  0.02748226  1.0
  H  H77  1  0.03667245  0.18433167  0.06843541  1.0
  H  H78  1  0.97267049  0.12209062  0.06847370  1.0
  H  H79  1  0.05045755  0.42544863  0.80444472  1.0
  H  H80  1  0.17357881  0.37209479  0.80331008  1.0
  H  H81  1  0.11882989  0.32337266  0.77386224  1.0
  H  H82  1  0.21680437  0.15357092  0.89023792  1.0
  H  H83  1  0.21788389  0.16404249  0.82474475  1.0
  H  H84  1  0.26563359  0.22181593  0.85248461  1.0
  H  H85  1  0.53900880  0.11947520  0.70792864  1.0
  H  H86  1  0.56860390  0.19373406  0.76976516  1.0
  H  H87  1  0.67286455  0.33613205  0.65252883  1.0
  H  H88  1  0.64254267  0.26126937  0.59197659  1.0
  H  H89  1  0.62905424  0.28160240  0.79124360  1.0
  H  H90  1  0.24051135  0.16002959  0.47917450  1.0
  H  H91  1  0.08439111  0.28813265  0.47007864  1.0
  H  H92  1  0.15367333  0.45835441  0.53961782  1.0
  H  H93  1  0.30781871  0.32890855  0.54967782  1.0
  H  H94  1  0.97380945  0.43593355  0.47929038  1.0
  H  H95  1  0.34764612  0.81360570  0.57927231  1.0
  H  H96  1  0.28589586  0.74284790  0.65210322  1.0
  H  H97  1  0.35864180  0.87634375  0.74600719  1.0
  H  H98  1  0.42046605  0.94638807  0.67175535  1.0
  H  H99  1  0.29271963  0.78227538  0.78316631  1.0
  H  H100  1  0.79039532  0.09493247  0.56834338  1.0
  H  H101  1  0.88439419  0.98847097  0.55102787  1.0
  H  H102  1  0.87081601  0.09586526  0.51653705  1.0
  H  H103  1  0.90307509  0.92330957  0.47251652  1.0
  H  H104  1  0.81567523  0.96330994  0.43156237  1.0
  H  H105  1  0.87791330  0.02731616  0.43152282  1.0
  H  H106  1  0.57455880  0.94954245  0.69555127  1.0
  H  H107  1  0.62789963  0.82642313  0.69669004  1.0
  H  H108  1  0.67662552  0.88117059  0.72613623  1.0
  H  H109  1  0.84642673  0.78318197  0.60975881  1.0
  H  H110  1  0.83596010  0.78210171  0.67525159  1.0
  H  H111  1  0.77817515  0.73436250  0.64751363  1.0
  C  C112  1  0.13402944  0.58017751  0.11014879  1.0
  C  C113  1  0.18425412  0.59116479  0.14646726  1.0
  C  C114  1  0.16683651  0.56868820  0.19657344  1.0
  C  C115  1  0.20852503  0.58508281  0.23070077  1.0
  C  C116  1  0.26851444  0.62503921  0.21599272  1.0
  C  C117  1  0.28826401  0.64408311  0.16526015  1.0
  C  C118  1  0.24674320  0.62749662  0.13119490  1.0
  C  C119  1  0.30268856  0.64884802  0.25364016  1.0
  C  C120  1  0.16174617  0.37736429  0.02031780  1.0
  C  C121  1  0.23723346  0.28362971  0.01466986  1.0
  C  C122  1  0.22551177  0.22060941  0.99238026  1.0
  C  C123  1  0.29726171  0.13385740  0.98731668  1.0
  C  C124  1  0.38309140  0.10765999  0.00331365  1.0
  C  C125  1  0.39336871  0.17180884  0.02616205  1.0
  C  C126  1  0.32156634  0.25800309  0.03196155  1.0
  C  C127  1  0.45610977  0.01702317  0.99515948  1.0
  C  C128  1  0.92736132  0.42397849  0.07749498  1.0
  C  C129  1  0.88514438  0.38626739  0.12138668  1.0
  C  C130  1  0.82755017  0.34824553  0.11613919  1.0
  C  C131  1  0.78847019  0.31386294  0.15702604  1.0
  C  C132  1  0.80572158  0.31622205  0.20471053  1.0
  C  C133  1  0.86288485  0.35562967  0.20936096  1.0
  C  C134  1  0.90202930  0.39005136  0.16846639  1.0
  C  C135  1  0.76792664  0.28007524  0.24888350  1.0
  C  C136  1  0.05754974  0.83542628  0.03773929  1.0
  C  C137  1  0.98381782  0.84975364  0.95426862  1.0
  C  C138  1  0.88676800  0.63926477  0.19565160  1.0
  C  C139  1  0.78758509  0.80105573  0.14371692  1.0
  C  C140  1  0.41981829  0.86598552  0.38984972  1.0
  C  C141  1  0.40883639  0.81575944  0.35352793  1.0
  C  C142  1  0.43131205  0.83318083  0.30342434  1.0
  C  C143  1  0.41492594  0.79149103  0.26929663  1.0
  C  C144  1  0.37495668  0.73150672  0.28400398  1.0
  C  C145  1  0.35590124  0.71176167  0.33473293  1.0
  C  C146  1  0.37250123  0.75327347  0.36879633  1.0
  C  C147  1  0.35115697  0.69732884  0.24634953  1.0
  C  C148  1  0.62264510  0.83826143  0.47967875  1.0
  C  C149  1  0.71637348  0.76276331  0.48532459  1.0
  C  C150  1  0.77939340  0.77448659  0.50761125  1.0
  C  C151  1  0.86614996  0.70274113  0.51267448  1.0
  C  C152  1  0.89233880  0.61689855  0.49669053  1.0
  C  C153  1  0.82818716  0.60661685  0.47384362  1.0
  C  C154  1  0.74199457  0.67842391  0.46804367  1.0
  C  C155  1  0.98297302  0.54388870  0.50484656  1.0
  C  C156  1  0.57602028  0.07263959  0.42250031  1.0
  C  C157  1  0.61373246  0.11485700  0.37861314  1.0
  C  C158  1  0.65175454  0.17245056  0.38386500  1.0
  C  C159  1  0.68614095  0.21152812  0.34297695  1.0
  C  C160  1  0.68378829  0.19427580  0.29529117  1.0
  C  C161  1  0.64437571  0.13711602  0.29064015  1.0
  C  C162  1  0.60994585  0.09797400  0.33153529  1.0
  C  C163  1  0.71993045  0.23207406  0.25111726  1.0
  C  C164  1  0.16458919  0.94244704  0.46226339  1.0
  C  C165  1  0.15023592  0.01619291  0.54573469  1.0
  C  C166  1  0.36072346  0.11323450  0.30435206  1.0
  C  C167  1  0.19893498  0.21239780  0.35629268  1.0
  C  C168  1  0.86597810  0.41979682  0.88985590  1.0
  C  C169  1  0.81574859  0.40882865  0.85353386  1.0
  C  C170  1  0.83316652  0.43130865  0.80342624  1.0
  C  C171  1  0.79148355  0.41492218  0.76929899  1.0
  C  C172  1  0.73149292  0.37496714  0.78400450  1.0
  C  C173  1  0.71174421  0.35591029  0.83473539  1.0
  C  C174  1  0.75326468  0.37249201  0.86879792  1.0
  C  C175  1  0.69730997  0.35117407  0.74635171  1.0
  C  C176  1  0.83826055  0.62263526  0.97968412  1.0
  C  C177  1  0.76276710  0.71636170  0.98533312  1.0
  C  C178  1  0.77448447  0.77937250  0.00762876  1.0
  C  C179  1  0.70273457  0.86613269  0.01269620  1.0
  C  C180  1  0.61689905  0.89232810  0.99670072  1.0
  C  C181  1  0.60662788  0.82818601  0.97384134  1.0
  C  C182  1  0.67843791  0.74199238  0.96804102  1.0
  C  C183  1  0.54388280  0.98295877  0.00485529  1.0
  C  C184  1  0.07263896  0.57601770  0.92250826  1.0
  C  C185  1  0.11483757  0.61374255  0.87861630  1.0
  C  C186  1  0.17242903  0.65176375  0.88386628  1.0
  C  C187  1  0.21150997  0.68615656  0.84297797  1.0
  C  C188  1  0.19425005  0.68380841  0.79529252  1.0
  C  C189  1  0.13709806  0.64438776  0.79064119  1.0
  C  C190  1  0.09795787  0.60995923  0.83153745  1.0
  C  C191  1  0.23205261  0.71994494  0.75111946  1.0
  C  C192  1  0.94246546  0.16455276  0.96225734  1.0
  C  C193  1  0.01618180  0.15023301  0.04573240  1.0
  C  C194  1  0.11323532  0.36072730  0.80435032  1.0
  C  C195  1  0.21240995  0.19893163  0.85628880  1.0
  C  C196  1  0.58018788  0.13403038  0.61014165  1.0
  C  C197  1  0.59115147  0.18427430  0.64646133  1.0
  C  C198  1  0.56867181  0.16684816  0.69656686  1.0
  C  C199  1  0.58506800  0.20853177  0.73069455  1.0
  C  C200  1  0.62503235  0.26851338  0.71598723  1.0
  C  C201  1  0.64407530  0.28827419  0.66525508  1.0
  C  C202  1  0.62749303  0.24675273  0.63118980  1.0
  C  C203  1  0.64884002  0.30268984  0.75363779  1.0
  C  C204  1  0.37736013  0.16174971  0.52031821  1.0
  C  C205  1  0.28362954  0.23723217  0.51467486  1.0
  C  C206  1  0.22062154  0.22550267  0.49238188  1.0
  C  C207  1  0.13386773  0.29724744  0.48731666  1.0
  C  C208  1  0.10767245  0.38308802  0.50330719  1.0
  C  C209  1  0.17181185  0.39336981  0.52616357  1.0
  C  C210  1  0.25800384  0.32156547  0.53196295  1.0
  C  C211  1  0.01703737  0.45611082  0.49515032  1.0
  C  C212  1  0.42398458  0.92735724  0.57750062  1.0
  C  C213  1  0.38626145  0.88515355  0.62139292  1.0
  C  C214  1  0.34823724  0.82756477  0.61614007  1.0
  C  C215  1  0.31383891  0.78849341  0.65702581  1.0
  C  C216  1  0.31619862  0.80574638  0.70470939  1.0
  C  C217  1  0.35561637  0.86289726  0.70936617  1.0
  C  C218  1  0.39003125  0.90204551  0.66847046  1.0
  C  C219  1  0.28005092  0.76794406  0.74888102  1.0
  C  C220  1  0.83544504  0.05754278  0.53773425  1.0
  C  C221  1  0.84976957  0.98380665  0.45426483  1.0
  C  C222  1  0.63927559  0.88676169  0.69564736  1.0
  C  C223  1  0.80106828  0.78758064  0.64370843  1.0
  S  S224  1  0.04976910  0.76191940  0.99937954  1.0
  S  S225  1  0.89888799  0.70364608  0.13830582  1.0
  S  S226  1  0.23808029  0.95024196  0.50062765  1.0
  S  S227  1  0.29635264  0.10110180  0.36169775  1.0
  S  S228  1  0.95023847  0.23806582  0.00061724  1.0
  S  S229  1  0.10111076  0.29635216  0.86169809  1.0
  S  S230  1  0.76193623  0.04975753  0.49937618  1.0
  S  S231  1  0.70365585  0.89888274  0.63829900  1.0
  O  O232  1  0.07505376  0.54984897  0.12593932  1.0
  O  O233  1  0.14798927  0.60377451  0.06480219  1.0
  O  O234  1  0.17023700  0.42764595  0.04684068  1.0
  O  O235  1  0.08983117  0.40525896  0.99848423  1.0
  O  O236  1  0.97371814  0.46216699  0.08592165  1.0
  O  O237  1  0.91381107  0.41437010  0.03540708  1.0
  O  O238  1  0.98191410  0.73049319  0.02874300  1.0
  O  O239  1  0.89279665  0.65399374  0.09905374  1.0
  O  O240  1  0.45016350  0.92494776  0.37406214  1.0
  O  O241  1  0.39620992  0.85203034  0.43519555  1.0
  O  O242  1  0.57235862  0.82975861  0.45316154  1.0
  O  O243  1  0.59475930  0.91017711  0.50150370  1.0
  O  O244  1  0.53782820  0.02629195  0.41407093  1.0
  O  O245  1  0.58563791  0.08617526  0.46459054  1.0
  O  O246  1  0.26950948  0.01810063  0.47127311  1.0
  O  O247  1  0.34600396  0.10719227  0.40094961  1.0
  O  O248  1  0.92495625  0.45012808  0.87407241  1.0
  O  O249  1  0.85200851  0.39621079  0.93519914  1.0
  O  O250  1  0.82976941  0.57235156  0.95316255  1.0
  O  O251  1  0.91017282  0.59474674  0.00151304  1.0
  O  O252  1  0.02628336  0.53782783  0.91408198  1.0
  O  O253  1  0.08617976  0.58563637  0.96459644  1.0
  O  O254  1  0.01809714  0.26948929  0.97125620  1.0
  O  O255  1  0.10720546  0.34600380  0.90094991  1.0
  O  O256  1  0.54987317  0.07504068  0.62592965  1.0
  O  O257  1  0.60378220  0.14799384  0.56479890  1.0
  O  O258  1  0.42764322  0.17024506  0.54684010  1.0
  O  O259  1  0.40525723  0.08982782  0.49848989  1.0
  O  O260  1  0.46218218  0.97370485  0.58592731  1.0
  O  O261  1  0.41436909  0.91381952  0.53541074  1.0
  O  O262  1  0.73051074  0.98190157  0.52873943  1.0
  O  O263  1  0.65401491  0.89278402  0.59904370  1.0
