# generated using pymatgen
data_AlH10C13N3O5
_symmetry_space_group_name_H-M   'P 1'
_cell_length_a   6.65539019
_cell_length_b   11.06996471
_cell_length_c   16.94900239
_cell_angle_alpha   83.42332972
_cell_angle_beta   82.84074181
_cell_angle_gamma   73.58998530
_symmetry_Int_Tables_number   1
_chemical_formula_structural   AlH10C13N3O5
_chemical_formula_sum   'Al2 H20 C26 N6 O10'
_cell_volume   1184.37586103
_cell_formula_units_Z   2
loop_
 _symmetry_equiv_pos_site_id
 _symmetry_equiv_pos_as_xyz
  1  'x, y, z'
loop_
 _atom_site_type_symbol
 _atom_site_label
 _atom_site_symmetry_multiplicity
 _atom_site_fract_x
 _atom_site_fract_y
 _atom_site_fract_z
 _atom_site_occupancy
  Al  Al0  1  0.49695293  0.50151091  0.49548137  1.0
  Al  Al1  1  0.99637749  0.50359436  0.49657705  1.0
  H  H2  1  0.18014696  0.65840091  0.46079763  1.0
  H  H3  1  0.80913933  0.34802983  0.54017059  1.0
  H  H4  1  0.84313248  0.57350221  0.73009079  1.0
  H  H5  1  0.77681226  0.57446259  0.87936298  1.0
  H  H6  1  0.44502395  0.45395610  0.89498445  1.0
  H  H7  1  0.60842899  0.45193595  0.10069545  1.0
  H  H8  1  0.17300346  0.56515925  0.10671076  1.0
  H  H9  1  0.09995962  0.56750656  0.25611059  1.0
  H  H10  1  0.84941006  0.76431593  0.61237057  1.0
  H  H11  1  0.99060982  0.87797435  0.69844817  1.0
  H  H12  1  0.60351164  0.23235579  0.60435131  1.0
  H  H13  1  0.86469597  0.11453703  0.69465201  1.0
  H  H14  1  0.58850667  0.44845456  0.68098448  1.0
  H  H15  1  0.67623347  0.42467802  0.77626296  1.0
  H  H16  1  0.45554867  0.45859707  0.31421149  1.0
  H  H17  1  0.39881742  0.42388873  0.22286380  1.0
  H  H18  1  0.10253135  0.22146767  0.41490677  1.0
  H  H19  1  0.06764469  0.07975335  0.40234475  1.0
  H  H20  1  0.38296217  0.78508136  0.40021597  1.0
  H  H21  1  0.28880053  0.92871082  0.35157984  1.0
  C  C22  1  0.63400801  0.72932245  0.50374804  1.0
  C  C23  1  0.79458423  0.50810319  0.35046581  1.0
  C  C24  1  0.35937323  0.27468969  0.49158210  1.0
  C  C25  1  0.19992659  0.49998889  0.64122482  1.0
  C  C26  1  0.17808983  0.50643281  0.72816284  1.0
  C  C27  1  0.97307220  0.54400095  0.76754937  1.0
  C  C28  1  0.93514147  0.54518460  0.84937933  1.0
  C  C29  1  0.11032997  0.50927235  0.89481450  1.0
  C  C30  1  0.31450790  0.47788614  0.85772590  1.0
  C  C31  1  0.35533904  0.47407756  0.77391097  1.0
  C  C32  1  0.71682438  0.47483045  0.13613562  1.0
  C  C33  1  0.89510025  0.50450957  0.09662083  1.0
  C  C34  1  0.03840219  0.53811748  0.13913142  1.0
  C  C35  1  0.99732339  0.53900019  0.22096500  1.0
  C  C36  1  0.82072030  0.50655191  0.26300389  1.0
  C  C37  1  0.67449275  0.47416744  0.22004527  1.0
  C  C38  1  0.56123520  0.86861826  0.50464462  1.0
  C  C39  1  0.65050391  0.93280583  0.55410466  1.0
  C  C40  1  0.40537054  0.93471976  0.45570509  1.0
  C  C41  1  0.79809253  0.86705452  0.60864453  1.0
  C  C42  1  0.87733506  0.93093629  0.65719375  1.0
  C  C43  1  0.42461727  0.13464265  0.49855845  1.0
  C  C44  1  0.32902015  0.07004545  0.45528438  1.0
  C  C45  1  0.58292823  0.06808603  0.55021354  1.0
  C  C46  1  0.66302196  0.13039240  0.60275957  1.0
  C  C47  1  0.80791574  0.06377119  0.65463690  1.0
  N  N48  1  0.09423215  0.50561806  0.97897744  1.0
  N  N49  1  0.91446569  0.50281064  0.01263966  1.0
  N  N50  1  0.55816475  0.43733645  0.74126106  1.0
  N  N51  1  0.50277229  0.43961006  0.25652919  1.0
  N  N52  1  0.17347138  0.12935892  0.40551375  1.0
  N  N53  1  0.31528184  0.87866529  0.40528230  1.0
  O  O54  1  0.49151339  0.67120691  0.50758217  1.0
  O  O55  1  0.95672358  0.50064055  0.38587923  1.0
  O  O56  1  0.16204722  0.33106293  0.49553132  1.0
  O  O57  1  0.38589041  0.48190010  0.60438503  1.0
  O  O58  1  0.50280530  0.33212264  0.48139671  1.0
  O  O59  1  0.03477612  0.51003325  0.60681328  1.0
  O  O60  1  0.83058145  0.67520786  0.49721158  1.0
  O  O61  1  0.60890851  0.51810525  0.38612876  1.0
  O  O62  1  0.22722499  0.56669178  0.46183050  1.0
  O  O63  1  0.76564307  0.43955026  0.53065035  1.0
