# generated using pymatgen
data_Zn4H32C54O13
_symmetry_space_group_name_H-M   'P 1'
_cell_length_a   21.65222301
_cell_length_b   21.65221919
_cell_length_c   34.71769646
_cell_angle_alpha   90.00013664
_cell_angle_beta   89.99996137
_cell_angle_gamma   89.99991768
_symmetry_Int_Tables_number   1
_chemical_formula_structural   Zn4H32C54O13
_chemical_formula_sum   'Zn8 H64 C108 O26'
_cell_volume   16276.30457707
_cell_formula_units_Z   2
loop_
 _symmetry_equiv_pos_site_id
 _symmetry_equiv_pos_as_xyz
  1  'x, y, z'
loop_
 _atom_site_type_symbol
 _atom_site_label
 _atom_site_symmetry_multiplicity
 _atom_site_fract_x
 _atom_site_fract_y
 _atom_site_fract_z
 _atom_site_occupancy
  Zn  Zn0  1  0.44747849  0.55252165  0.03240331  1.0
  Zn  Zn1  1  0.44747991  0.44747601  0.96759546  1.0
  Zn  Zn2  1  0.55252090  0.44747553  0.03240206  1.0
  Zn  Zn3  1  0.55251939  0.55252152  0.96759696  1.0
  Zn  Zn4  1  0.55252251  0.44747867  0.46759683  1.0
  Zn  Zn5  1  0.44747829  0.44747887  0.53240357  1.0
  Zn  Zn6  1  0.44747687  0.55252064  0.46759635  1.0
  Zn  Zn7  1  0.55252425  0.55252115  0.53240420  1.0
  H  H8  1  0.56962504  0.25669417  0.04401328  1.0
  H  H9  1  0.56990408  0.14148427  0.04412985  1.0
  H  H10  1  0.43037603  0.25669417  0.95598626  1.0
  H  H11  1  0.43009624  0.14148473  0.95587038  1.0
  H  H12  1  0.49989330  0.05717504  0.93797857  1.0
  H  H13  1  0.50010714  0.05717476  0.06202183  1.0
  H  H14  1  0.43037479  0.74330352  0.04401310  1.0
  H  H15  1  0.43009621  0.85851434  0.04413013  1.0
  H  H16  1  0.56962651  0.74330377  0.95598630  1.0
  H  H17  1  0.56990539  0.85851460  0.95587031  1.0
  H  H18  1  0.49989313  0.94282347  0.06202134  1.0
  H  H19  1  0.50010742  0.94282329  0.93797807  1.0
  H  H20  1  0.57003683  0.42997223  0.15145977  1.0
  H  H21  1  0.57062426  0.42938074  0.22229050  1.0
  H  H22  1  0.42997248  0.57003549  0.34853951  1.0
  H  H23  1  0.42938182  0.57062236  0.27770906  1.0
  H  H24  1  0.57002841  0.42996245  0.34853995  1.0
  H  H25  1  0.57061915  0.42937623  0.27770922  1.0
  H  H26  1  0.42996428  0.57002726  0.15145961  1.0
  H  H27  1  0.42937723  0.57061810  0.22229064  1.0
  H  H28  1  0.57003681  0.57002757  0.84853982  1.0
  H  H29  1  0.57062432  0.57061721  0.77770879  1.0
  H  H30  1  0.42997288  0.42996312  0.65145927  1.0
  H  H31  1  0.42938260  0.42937579  0.72229087  1.0
  H  H32  1  0.57002815  0.57003596  0.65145992  1.0
  H  H33  1  0.57061927  0.57062218  0.72229037  1.0
  H  H34  1  0.42996446  0.42997228  0.84853974  1.0
  H  H35  1  0.42937796  0.42938005  0.77770872  1.0
  H  H36  1  0.74329762  0.42965877  0.04356605  1.0
  H  H37  1  0.85850842  0.42944439  0.04372646  1.0
  H  H38  1  0.74329749  0.57034124  0.95643375  1.0
  H  H39  1  0.85850875  0.57055592  0.95627300  1.0
  H  H40  1  0.94280860  0.59944628  0.99993085  1.0
  H  H41  1  0.94280882  0.40055344  0.00006886  1.0
  H  H42  1  0.25670275  0.42965809  0.95643346  1.0
  H  H43  1  0.14149056  0.42944434  0.95627276  1.0
  H  H44  1  0.25670175  0.57034216  0.04356684  1.0
  H  H45  1  0.14149003  0.57055469  0.04372672  1.0
  H  H46  1  0.05719067  0.40055322  0.99993147  1.0
  H  H47  1  0.05719060  0.59944639  0.00006833  1.0
  H  H48  1  0.25669691  0.56962477  0.45598619  1.0
  H  H49  1  0.14148611  0.56990473  0.45587014  1.0
  H  H50  1  0.25669558  0.43037455  0.54401324  1.0
  H  H51  1  0.14148570  0.43009521  0.54413021  1.0
  H  H52  1  0.05717652  0.49989231  0.56202115  1.0
  H  H53  1  0.05717658  0.50010730  0.43797836  1.0
  H  H54  1  0.74330525  0.43037449  0.45598627  1.0
  H  H55  1  0.85851559  0.43009453  0.45586988  1.0
  H  H56  1  0.74330510  0.56962459  0.54401382  1.0
  H  H57  1  0.85851590  0.56990439  0.54413016  1.0
  H  H58  1  0.94282560  0.49989282  0.43797846  1.0
  H  H59  1  0.94282507  0.50010643  0.56202126  1.0
  H  H60  1  0.42965917  0.74329692  0.45643361  1.0
  H  H61  1  0.42944479  0.85850866  0.45627297  1.0
  H  H62  1  0.57034214  0.74329791  0.54356637  1.0
  H  H63  1  0.57055635  0.85850919  0.54372718  1.0
  H  H64  1  0.59944757  0.94280899  0.50006824  1.0
  H  H65  1  0.40055298  0.94280913  0.49993117  1.0
  H  H66  1  0.42965855  0.25670262  0.54356633  1.0
  H  H67  1  0.42944387  0.14149133  0.54372697  1.0
  H  H68  1  0.57034161  0.25670235  0.45643408  1.0
  H  H69  1  0.57055553  0.14149107  0.45627356  1.0
  H  H70  1  0.40055270  0.05719137  0.50006877  1.0
  H  H71  1  0.59944728  0.05719169  0.49993134  1.0
  C  C72  1  0.33250274  0.49999964  0.99999975  1.0
  C  C73  1  0.50000168  0.33249468  0.00000064  1.0
  C  C74  1  0.50000335  0.49999734  0.10399960  1.0
  C  C75  1  0.66749698  0.49999801  0.99999997  1.0
  C  C76  1  0.50000090  0.66750383  0.99999955  1.0
  C  C77  1  0.49999923  0.49999978  0.89599858  1.0
  C  C78  1  0.50000095  0.33250257  0.49999954  1.0
  C  C79  1  0.33249609  0.49999822  0.50000028  1.0
  C  C80  1  0.50000181  0.49999605  0.39599996  1.0
  C  C81  1  0.50000209  0.66749779  0.50000008  1.0
  C  C82  1  0.66750510  0.49999890  0.49999992  1.0
  C  C83  1  0.49999892  0.49999830  0.60400052  1.0
  C  C84  1  0.50000034  0.26361860  0.00000001  1.0
  C  C85  1  0.53901852  0.23092082  0.02499185  1.0
  C  C86  1  0.53874515  0.16670754  0.02508541  1.0
  C  C87  1  0.46098121  0.23091992  0.97500852  1.0
  C  C88  1  0.46125375  0.16670756  0.97491429  1.0
  C  C89  1  0.49999951  0.13352478  0.99999992  1.0
  C  C90  1  0.50000087  0.06539926  0.99999997  1.0
  C  C91  1  0.49962589  0.03212131  0.96525081  1.0
  C  C92  1  0.50037505  0.03212138  0.03474927  1.0
  C  C93  1  0.50000046  0.73637938  0.00000008  1.0
  C  C94  1  0.46098088  0.76908003  0.02499111  1.0
  C  C95  1  0.46125471  0.83328869  0.02508506  1.0
  C  C96  1  0.53902177  0.76907948  0.97500862  1.0
  C  C97  1  0.53874739  0.83328907  0.97491505  1.0
  C  C98  1  0.50000129  0.86647413  0.00000017  1.0
  C  C99  1  0.50000078  0.93459925  0.00000022  1.0
  C  C100  1  0.49962526  0.96787720  0.03474881  1.0
  C  C101  1  0.50037572  0.96787713  0.96525150  1.0
  C  C102  1  0.49999963  0.50000066  0.14692555  1.0
  C  C103  1  0.49999952  0.49999828  0.35307402  1.0
  C  C104  1  0.53941084  0.46059270  0.16743926  1.0
  C  C105  1  0.53930183  0.46070085  0.20744652  1.0
  C  C106  1  0.46059477  0.53940763  0.33255916  1.0
  C  C107  1  0.46070056  0.53930086  0.29255449  1.0
  C  C108  1  0.53940614  0.46059117  0.33255851  1.0
  C  C109  1  0.53930086  0.46069685  0.29255470  1.0
  C  C110  1  0.46059394  0.53940269  0.16744135  1.0
  C  C111  1  0.46069876  0.53929747  0.20744515  1.0
  C  C112  1  0.50000097  0.49999897  0.22863834  1.0
  C  C113  1  0.50000049  0.49999905  0.27136065  1.0
  C  C114  1  0.50000110  0.50000016  0.85307493  1.0
  C  C115  1  0.50000121  0.49999977  0.64692502  1.0
  C  C116  1  0.53940858  0.53940437  0.83255804  1.0
  C  C117  1  0.53930192  0.53929853  0.79255539  1.0
  C  C118  1  0.46059650  0.46059094  0.66744134  1.0
  C  C119  1  0.46070131  0.46069724  0.70744543  1.0
  C  C120  1  0.53940682  0.53940636  0.66744081  1.0
  C  C121  1  0.53930058  0.53930114  0.70744519  1.0
  C  C122  1  0.46059317  0.46059403  0.83255771  1.0
  C  C123  1  0.46070034  0.46070018  0.79255506  1.0
  C  C124  1  0.50000022  0.49999908  0.77136127  1.0
  C  C125  1  0.50000024  0.49999946  0.72863811  1.0
  C  C126  1  0.73637167  0.50000073  0.99999909  1.0
  C  C127  1  0.76906817  0.46004728  0.02440840  1.0
  C  C128  1  0.83328236  0.45989067  0.02423758  1.0
  C  C129  1  0.76906806  0.53995223  0.97559196  1.0
  C  C130  1  0.83328272  0.54011059  0.97576103  1.0
  C  C131  1  0.86647286  0.50000064  0.99999993  1.0
  C  C132  1  0.93461321  0.50000013  0.99999962  1.0
  C  C133  1  0.96787672  0.55572834  0.99976808  1.0
  C  C134  1  0.96787688  0.44427181  0.00023019  1.0
  C  C135  1  0.26362760  0.50000015  0.00000005  1.0
  C  C136  1  0.23093123  0.46004672  0.97559144  1.0
  C  C137  1  0.16671704  0.45988973  0.97576053  1.0
  C  C138  1  0.23093122  0.53995357  0.02440829  1.0
  C  C139  1  0.16671611  0.54010972  0.02423750  1.0
  C  C140  1  0.13352687  0.50000070  0.99999922  1.0
  C  C141  1  0.06538791  0.49999937  0.99999923  1.0
  C  C142  1  0.03212300  0.44427162  0.99976934  1.0
  C  C143  1  0.03212254  0.55572803  0.00023076  1.0
  C  C144  1  0.26362048  0.50000012  0.49999943  1.0
  C  C145  1  0.23092082  0.53902057  0.47500904  1.0
  C  C146  1  0.16671125  0.53874767  0.47491457  1.0
  C  C147  1  0.23091992  0.46098063  0.52499242  1.0
  C  C148  1  0.16671127  0.46125548  0.52508547  1.0
  C  C149  1  0.13352575  0.50000113  0.50000032  1.0
  C  C150  1  0.06540065  0.50000026  0.49999976  1.0
  C  C151  1  0.03212321  0.49962487  0.53474948  1.0
  C  C152  1  0.03212371  0.50037524  0.46525063  1.0
  C  C153  1  0.73638164  0.49999978  0.49999990  1.0
  C  C154  1  0.76908040  0.46098015  0.47500858  1.0
  C  C155  1  0.83329136  0.46125352  0.47491495  1.0
  C  C156  1  0.76908032  0.53901890  0.52499121  1.0
  C  C157  1  0.83329127  0.53874498  0.52508539  1.0
  C  C158  1  0.86647544  0.49999922  0.49999988  1.0
  C  C159  1  0.93460101  0.49999871  0.50000015  1.0
  C  C160  1  0.96787798  0.49962545  0.46525072  1.0
  C  C161  1  0.96787794  0.50037377  0.53474870  1.0
  C  C162  1  0.50000066  0.73637156  0.49999926  1.0
  C  C163  1  0.46004863  0.76906750  0.47559215  1.0
  C  C164  1  0.45988971  0.83328263  0.47576243  1.0
  C  C165  1  0.53995448  0.76906800  0.52440845  1.0
  C  C166  1  0.54011147  0.83328312  0.52423797  1.0
  C  C167  1  0.50000056  0.86647370  0.50000080  1.0
  C  C168  1  0.50000098  0.93461314  0.49999999  1.0
  C  C169  1  0.55572779  0.96787851  0.50023043  1.0
  C  C170  1  0.44427180  0.96787951  0.49976931  1.0
  C  C171  1  0.49999961  0.26362741  0.50000064  1.0
  C  C172  1  0.46004622  0.23093153  0.52440777  1.0
  C  C173  1  0.45988831  0.16671779  0.52423894  1.0
  C  C174  1  0.53995351  0.23093092  0.47559144  1.0
  C  C175  1  0.54011012  0.16671718  0.47576278  1.0
  C  C176  1  0.50000063  0.13352666  0.50000141  1.0
  C  C177  1  0.49999975  0.06538815  0.50000136  1.0
  C  C178  1  0.44427201  0.03212185  0.50023149  1.0
  C  C179  1  0.55572800  0.03212269  0.49976974  1.0
  O  O180  1  0.50000056  0.49999998  1.00000000  1.0
  O  O181  1  0.35927786  0.53714637  0.02324200  1.0
  O  O182  1  0.46292734  0.35927074  0.97671207  1.0
  O  O183  1  0.53721573  0.46276461  0.08736165  1.0
  O  O184  1  0.35927786  0.46285558  0.97675854  1.0
  O  O185  1  0.46278406  0.53723555  0.08735913  1.0
  O  O186  1  0.53706990  0.35926932  0.02328734  1.0
  O  O187  1  0.64072061  0.46285263  0.02323900  1.0
  O  O188  1  0.53707380  0.64072775  0.97671111  1.0
  O  O189  1  0.64072281  0.53714753  0.97675825  1.0
  O  O190  1  0.46292811  0.64072736  0.02328727  1.0
  O  O191  1  0.46278505  0.46276624  0.91263877  1.0
  O  O192  1  0.53721754  0.53723384  0.91263939  1.0
  O  O193  1  0.49999852  0.49999995  0.50000053  1.0
  O  O194  1  0.53714401  0.35927712  0.47675838  1.0
  O  O195  1  0.35927026  0.46292999  0.52328779  1.0
  O  O196  1  0.46276079  0.53721678  0.41264108  1.0
  O  O197  1  0.46285415  0.35927818  0.52324074  1.0
  O  O198  1  0.53723218  0.46278602  0.41263871  1.0
  O  O199  1  0.35926977  0.53707103  0.47671102  1.0
  O  O200  1  0.46285628  0.64072176  0.47675889  1.0
  O  O201  1  0.64072860  0.53707138  0.52328779  1.0
  O  O202  1  0.53714655  0.64072180  0.52324151  1.0
  O  O203  1  0.64072960  0.46292970  0.47671235  1.0
  O  O204  1  0.46276814  0.46278179  0.58736028  1.0
  O  O205  1  0.53723527  0.53721752  0.58736032  1.0
