# generated using pymatgen
data_Al2H13C24NO14
_symmetry_space_group_name_H-M   'P 1'
_cell_length_a   6.77938202
_cell_length_b   11.08873995
_cell_length_c   17.64761176
_cell_angle_alpha   82.27309749
_cell_angle_beta   80.44560159
_cell_angle_gamma   72.83675328
_symmetry_Int_Tables_number   1
_chemical_formula_structural   Al2H13C24NO14
_chemical_formula_sum   'Al2 H13 C24 N1 O14'
_cell_volume   1244.84013034
_cell_formula_units_Z   1
loop_
 _symmetry_equiv_pos_site_id
 _symmetry_equiv_pos_as_xyz
  1  'x, y, z'
loop_
 _atom_site_type_symbol
 _atom_site_label
 _atom_site_symmetry_multiplicity
 _atom_site_fract_x
 _atom_site_fract_y
 _atom_site_fract_z
 _atom_site_occupancy
  Al  Al0  1  0.49871905  0.50305067  0.50215240  1.0
  Al  Al1  1  0.99832307  0.50562676  0.50323149  1.0
  H  H2  1  0.29700736  0.35648582  0.55842955  1.0
  H  H3  1  0.74138695  0.59819638  0.41407572  1.0
  H  H4  1  0.77598742  0.88182100  0.47101364  1.0
  H  H5  1  0.36823180  0.88927172  0.52400693  1.0
  H  H6  1  0.65536862  0.12103089  0.46436242  1.0
  H  H7  1  0.33113009  0.49483908  0.72377693  1.0
  H  H8  1  0.23910192  0.49234760  0.86697234  1.0
  H  H9  1  0.94367779  0.51900528  0.74181320  1.0
  H  H10  1  0.04955887  0.48926081  0.26292453  1.0
  H  H11  1  0.67254517  0.49733522  0.27864961  1.0
  H  H12  1  0.76263483  0.49378488  0.13611108  1.0
  H  H13  1  0.82328243  0.51327654  0.94721138  1.0
  H  H14  1  0.16827691  0.48626946  0.05800130  1.0
  C  C15  1  0.69339761  0.50508422  0.63961053  1.0
  C  C16  1  0.85564440  0.27857912  0.49638434  1.0
  C  C17  1  0.30383272  0.50316677  0.36391436  1.0
  C  C18  1  0.14643205  0.72986709  0.50464779  1.0
  C  C19  1  0.93757303  0.13806823  0.49248026  1.0
  C  C20  1  0.07541997  0.87146947  0.50073387  1.0
  C  C21  1  0.14027010  0.07069842  0.50630569  1.0
  C  C22  1  0.87612234  0.93644379  0.48225275  1.0
  C  C23  1  0.21069136  0.93947136  0.51212561  1.0
  C  C24  1  0.80879240  0.06794257  0.47871117  1.0
  C  C25  1  0.64191561  0.50643250  0.72505803  1.0
  C  C26  1  0.44327011  0.49928035  0.76013987  1.0
  C  C27  1  0.39315607  0.49727533  0.83956515  1.0
  C  C28  1  0.54163002  0.50172080  0.88562120  1.0
  C  C29  1  0.74137819  0.51012101  0.84951566  1.0
  C  C30  1  0.79062931  0.51271327  0.76961673  1.0
  C  C31  1  0.50278220  0.49768929  0.96685835  1.0
  C  C32  1  0.49324459  0.49408361  0.03718626  1.0
  C  C33  1  0.45529860  0.49204544  0.11837137  1.0
  C  C34  1  0.25334985  0.48954075  0.15509688  1.0
  C  C35  1  0.20453416  0.49097198  0.23483208  1.0
  C  C36  1  0.35566788  0.49546912  0.27883118  1.0
  C  C37  1  0.55692767  0.49560904  0.24307980  1.0
  C  C38  1  0.60671680  0.49367706  0.16381896  1.0
  N  N39  1  0.29284012  0.14061785  0.50717834  1.0
  O  O40  1  0.55680491  0.48583604  0.60460952  1.0
  O  O41  1  0.98300571  0.33426354  0.51089772  1.0
  O  O42  1  0.12490957  0.49428595  0.39591119  1.0
  O  O43  1  0.33480508  0.67570472  0.51447470  1.0
  O  O44  1  0.44396234  0.52116633  0.39783598  1.0
  O  O45  1  0.01116021  0.67573096  0.49618008  1.0
  O  O46  1  0.86816955  0.52098315  0.60798223  1.0
  O  O47  1  0.66595958  0.32967201  0.48789014  1.0
  O  O48  1  0.26289823  0.44423287  0.53624984  1.0
  O  O49  1  0.73582370  0.56198194  0.46724080  1.0
  O  O50  1  0.36355548  0.18118185  0.44280849  1.0
  O  O51  1  0.34571183  0.15020674  0.56950552  1.0
  O  O52  1  0.88687257  0.51553630  0.89303551  1.0
  O  O53  1  0.10495673  0.48662974  0.11223588  1.0
