# generated using pymatgen
data_AlH12C25O5F
_symmetry_space_group_name_H-M   'P 1'
_cell_length_a   6.69253086
_cell_length_b   19.21088091
_cell_length_c   21.64749739
_cell_angle_alpha   93.08946038
_cell_angle_beta   89.99939737
_cell_angle_gamma   90.00001475
_symmetry_Int_Tables_number   1
_chemical_formula_structural   AlH12C25O5F
_chemical_formula_sum   'Al4 H48 C100 O20 F4'
_cell_volume   2779.16093144
_cell_formula_units_Z   4
loop_
 _symmetry_equiv_pos_site_id
 _symmetry_equiv_pos_as_xyz
  1  'x, y, z'
loop_
 _atom_site_type_symbol
 _atom_site_label
 _atom_site_symmetry_multiplicity
 _atom_site_fract_x
 _atom_site_fract_y
 _atom_site_fract_z
 _atom_site_occupancy
  Al  Al0  1  0.21195397  0.75003182  0.74922128  1.0
  Al  Al1  1  0.78803960  0.24996692  0.25077265  1.0
  Al  Al2  1  0.71195013  0.74997669  0.75078610  1.0
  Al  Al3  1  0.28804792  0.25003919  0.24922643  1.0
  H  H4  1  0.36203308  0.56153178  0.11419480  1.0
  H  H5  1  0.63798290  0.43846862  0.88580099  1.0
  H  H6  1  0.86203751  0.93846348  0.38580033  1.0
  H  H7  1  0.13799640  0.06153811  0.61419824  1.0
  H  H8  1  0.55727418  0.42984620  0.12563175  1.0
  H  H9  1  0.77934950  0.44636368  0.21632511  1.0
  H  H10  1  0.63987670  0.48125265  0.32028570  1.0
  H  H11  1  0.27329790  0.50285794  0.33144165  1.0
  H  H12  1  0.05167995  0.48793080  0.24016792  1.0
  H  H13  1  0.94833454  0.51207134  0.75983112  1.0
  H  H14  1  0.72671210  0.49713180  0.66855917  1.0
  H  H15  1  0.36012733  0.51873503  0.67971557  1.0
  H  H16  1  0.22066499  0.55363122  0.78367481  1.0
  H  H17  1  0.44274629  0.57015539  0.87436682  1.0
  H  H18  1  0.05728988  0.07015036  0.37435784  1.0
  H  H19  1  0.27934400  0.05363278  0.28365590  1.0
  H  H20  1  0.13984909  0.01873489  0.17970173  1.0
  H  H21  1  0.77327033  0.99712980  0.16855558  1.0
  H  H22  1  0.55167011  0.01206354  0.25983648  1.0
  H  H23  1  0.44834288  0.98793443  0.74017225  1.0
  H  H24  1  0.22669933  0.00286805  0.83144113  1.0
  H  H25  1  0.86012356  0.98126283  0.82028295  1.0
  H  H26  1  0.72067796  0.94636985  0.71632325  1.0
  H  H27  1  0.94277542  0.92984977  0.62563286  1.0
  H  H28  1  0.15537810  0.72731114  0.07645885  1.0
  H  H29  1  0.36964028  0.83305461  0.08348170  1.0
  H  H30  1  0.72179287  0.82684533  0.04559608  1.0
  H  H31  1  0.85934395  0.71380069  0.00338608  1.0
  H  H32  1  0.64463598  0.60804504  0.99650897  1.0
  H  H33  1  0.35540840  0.39195796  0.00349655  1.0
  H  H34  1  0.14068399  0.28620599  0.99661992  1.0
  H  H35  1  0.27822162  0.17316139  0.95440114  1.0
  H  H36  1  0.63036674  0.16694686  0.91651456  1.0
  H  H37  1  0.84464087  0.27268616  0.92353739  1.0
  H  H38  1  0.65541237  0.77268164  0.42354110  1.0
  H  H39  1  0.86968015  0.66693753  0.41652587  1.0
  H  H40  1  0.22181581  0.67315319  0.45441849  1.0
  H  H41  1  0.35934303  0.78619820  0.49662712  1.0
  H  H42  1  0.14464044  0.89195658  0.50350091  1.0
  H  H43  1  0.85542486  0.10803271  0.49651101  1.0
  H  H44  1  0.64068640  0.21378135  0.50338752  1.0
  H  H45  1  0.77821660  0.32682914  0.54558969  1.0
  H  H46  1  0.13036870  0.33305595  0.58346710  1.0
  H  H47  1  0.34465890  0.22731517  0.57644588  1.0
  H  H48  1  0.46074770  0.65937039  0.75770665  1.0
  H  H49  1  0.53926828  0.34063410  0.24229749  1.0
  H  H50  1  0.96074096  0.84063400  0.74228511  1.0
  H  H51  1  0.03926904  0.15937045  0.25770839  1.0
  C  C52  1  0.46110685  0.83484002  0.83700149  1.0
  C  C53  1  0.53883891  0.16516742  0.16299943  1.0
  C  C54  1  0.96114834  0.66515816  0.66301058  1.0
  C  C55  1  0.03881086  0.33485132  0.33699914  1.0
  C  C56  1  0.46210985  0.83254952  0.67054116  1.0
  C  C57  1  0.53793303  0.16745321  0.32945927  1.0
  C  C58  1  0.96209228  0.66745928  0.82946542  1.0
  C  C59  1  0.03791474  0.33254237  0.17053408  1.0
  C  C60  1  0.89957012  0.37132177  0.07123752  1.0
  C  C61  1  0.10045184  0.62867454  0.92875964  1.0
  C  C62  1  0.39957054  0.12867463  0.42875698  1.0
  C  C63  1  0.60046487  0.87132589  0.57124113  1.0
  C  C64  1  0.03081501  0.38380422  0.12080662  1.0
  C  C65  1  0.96920396  0.61619467  0.87919009  1.0
  C  C66  1  0.53080495  0.11619355  0.37918631  1.0
  C  C67  1  0.46921851  0.88380383  0.62081131  1.0
  C  C68  1  0.15286779  0.44341587  0.12295133  1.0
  C  C69  1  0.84714371  0.55658463  0.87704631  1.0
  C  C70  1  0.65287208  0.05658590  0.37704400  1.0
  C  C71  1  0.34717379  0.94341822  0.62295321  1.0
  C  C72  1  0.14045127  0.48989816  0.07456259  1.0
  C  C73  1  0.85956919  0.51010335  0.92543460  1.0
  C  C74  1  0.64046689  0.01010236  0.42543416  1.0
  C  C75  1  0.35958346  0.98989709  0.57456347  1.0
  C  C76  1  0.00508541  0.47616434  0.02410439  1.0
  C  C77  1  0.99494402  0.52383363  0.97589462  1.0
  C  C78  1  0.50509661  0.02383203  0.47589185  1.0
  C  C79  1  0.49494478  0.97616783  0.52410348  1.0
  C  C80  1  0.88067904  0.41518090  0.02172106  1.0
  C  C81  1  0.11935040  0.58481489  0.97827609  1.0
  C  C82  1  0.38069115  0.08481609  0.47827766  1.0
  C  C83  1  0.61935023  0.91518518  0.52172461  1.0
  C  C84  1  0.26086509  0.55141342  0.07530085  1.0
  C  C85  1  0.73915089  0.44858555  0.92469725  1.0
  C  C86  1  0.76087098  0.94858133  0.42469646  1.0
  C  C87  1  0.23916144  0.05141604  0.57530117  1.0
  C  C88  1  0.25404283  0.59808976  0.02971206  1.0
  C  C89  1  0.74598361  0.40190700  0.97028372  1.0
  C  C90  1  0.75404818  0.90190408  0.47028527  1.0
  C  C91  1  0.24599918  0.09809552  0.52971514  1.0
  C  C92  1  0.03681752  0.38468139  0.38931989  1.0
  C  C93  1  0.96306399  0.61532027  0.61068978  1.0
  C  C94  1  0.53684124  0.11533067  0.11066986  1.0
  C  C95  1  0.46298050  0.88467326  0.88933335  1.0
  C  C96  1  0.02363681  0.42872712  0.43228513  1.0
  C  C97  1  0.97617298  0.57126795  0.56772775  1.0
  C  C98  1  0.52360743  0.07127818  0.06771942  1.0
  C  C99  1  0.47606041  0.92871885  0.93229115  1.0
  C  C100  1  0.00796854  0.47737511  0.47880873  1.0
  C  C101  1  0.99181285  0.52261780  0.52120275  1.0
  C  C102  1  0.50792283  0.02262785  0.02120465  1.0
  C  C103  1  0.49171064  0.97736981  0.97880777  1.0
  C  C104  1  0.28886267  0.45759392  0.17665069  1.0
  C  C105  1  0.49535337  0.44736488  0.17040250  1.0
  C  C106  1  0.62037896  0.45661746  0.22181167  1.0
  C  C107  1  0.54197398  0.47620025  0.28003520  1.0
  C  C108  1  0.33695519  0.48787317  0.28632007  1.0
  C  C109  1  0.21172939  0.47878541  0.23494603  1.0
  C  C110  1  0.71114435  0.54240762  0.82334696  1.0
  C  C111  1  0.78828510  0.52121524  0.76505439  1.0
  C  C112  1  0.66305482  0.51212225  0.71367986  1.0
  C  C113  1  0.45803453  0.52378991  0.71996378  1.0
  C  C114  1  0.37963254  0.54338043  0.77818596  1.0
  C  C115  1  0.50465365  0.55263349  0.82959421  1.0
  C  C116  1  0.78886548  0.04240366  0.32334510  1.0
  C  C117  1  0.99536354  0.05263512  0.32958709  1.0
  C  C118  1  0.12037801  0.04337674  0.27817632  1.0
  C  C119  1  0.04195592  0.02379038  0.21995488  1.0
  C  C120  1  0.83693688  0.01211891  0.21367785  1.0
  C  C121  1  0.71172529  0.02121119  0.26505185  1.0
  C  C122  1  0.21116395  0.95759634  0.67665300  1.0
  C  C123  1  0.28829518  0.97878584  0.73494901  1.0
  C  C124  1  0.16305370  0.98787852  0.78632070  1.0
  C  C125  1  0.95803167  0.97621186  0.78003630  1.0
  C  C126  1  0.87964245  0.95662381  0.72181253  1.0
  C  C127  1  0.00467187  0.94736992  0.67040780  1.0
  C  C128  1  0.38515814  0.66098745  0.03532503  1.0
  C  C129  1  0.31004765  0.72448399  0.06052230  1.0
  C  C130  1  0.43070328  0.78378684  0.06441900  1.0
  C  C131  1  0.62821468  0.78026445  0.04345422  1.0
  C  C132  1  0.70519439  0.71683248  0.01959524  1.0
  C  C133  1  0.58456863  0.65737974  0.01566996  1.0
  C  C134  1  0.61486083  0.33901099  0.96467306  1.0
  C  C135  1  0.41545781  0.34262205  0.98433232  1.0
  C  C136  1  0.29483205  0.28317246  0.98040751  1.0
  C  C137  1  0.37179832  0.21974131  0.95654438  1.0
  C  C138  1  0.56931121  0.21621369  0.93557910  1.0
  C  C139  1  0.68996833  0.27551435  0.93947395  1.0
  C  C140  1  0.88518344  0.83900811  0.46467419  1.0
  C  C141  1  0.81007871  0.77551106  0.43947902  1.0
  C  C142  1  0.93073836  0.71620733  0.43559024  1.0
  C  C143  1  0.12824806  0.71973355  0.45655556  1.0
  C  C144  1  0.20521310  0.78316349  0.48041428  1.0
  C  C145  1  0.08459529  0.84261887  0.48433534  1.0
  C  C146  1  0.11486840  0.16098863  0.53532112  1.0
  C  C147  1  0.91545506  0.15737124  0.51567242  1.0
  C  C148  1  0.79483576  0.21682288  0.51959161  1.0
  C  C149  1  0.87179482  0.28025423  0.54344756  1.0
  C  C150  1  0.06931946  0.28378732  0.56440506  1.0
  C  C151  1  0.18998061  0.22448550  0.56051305  1.0
  O  O152  1  0.62964845  0.81474607  0.69218252  1.0
  O  O153  1  0.37034661  0.18526589  0.30782490  1.0
  O  O154  1  0.12964229  0.68525320  0.80781676  1.0
  O  O155  1  0.87034979  0.31473915  0.19217437  1.0
  O  O156  1  0.29115813  0.81626761  0.81580676  1.0
  O  O157  1  0.70879210  0.18372860  0.18417883  1.0
  O  O158  1  0.79120172  0.68372394  0.68420443  1.0
  O  O159  1  0.20877243  0.31629007  0.31581225  1.0
  O  O160  1  0.29145491  0.81209610  0.68744236  1.0
  O  O161  1  0.70854165  0.18789677  0.31254877  1.0
  O  O162  1  0.79145183  0.68791663  0.81256572  1.0
  O  O163  1  0.20855071  0.31209913  0.18744450  1.0
  O  O164  1  0.13283497  0.68377545  0.68293121  1.0
  O  O165  1  0.86715711  0.31622532  0.31706181  1.0
  O  O166  1  0.63278074  0.81623880  0.81707692  1.0
  O  O167  1  0.36716950  0.18378045  0.18294025  1.0
  O  O168  1  0.46217285  0.70860945  0.74923300  1.0
  O  O169  1  0.53783267  0.29139552  0.25077022  1.0
  O  O170  1  0.96216077  0.79139771  0.75077218  1.0
  O  O171  1  0.03783877  0.20860941  0.24923244  1.0
  F  F172  1  0.79066481  0.31174392  0.07054837  1.0
  F  F173  1  0.20935715  0.68825013  0.92944554  1.0
  F  F174  1  0.29066886  0.18825623  0.42944743  1.0
  F  F175  1  0.70934862  0.81174546  0.57055300  1.0
