# generated using pymatgen
data_CdH20C38(NO2)4
_symmetry_space_group_name_H-M   'P 1'
_cell_length_a   11.86548964
_cell_length_b   13.83518574
_cell_length_c   29.54028961
_cell_angle_alpha   89.99874815
_cell_angle_beta   89.99727082
_cell_angle_gamma   76.80680443
_symmetry_Int_Tables_number   1
_chemical_formula_structural   CdH20C38(NO2)4
_chemical_formula_sum   'Cd4 H80 C152 N16 O32'
_cell_volume   4721.37672777
_cell_formula_units_Z   4
loop_
 _symmetry_equiv_pos_site_id
 _symmetry_equiv_pos_as_xyz
  1  'x, y, z'
loop_
 _atom_site_type_symbol
 _atom_site_label
 _atom_site_symmetry_multiplicity
 _atom_site_fract_x
 _atom_site_fract_y
 _atom_site_fract_z
 _atom_site_occupancy
  Cd  Cd0  1  0.39490187  0.08484432  0.04303544  1.0
  Cd  Cd1  1  0.10508000  0.41517160  0.54304408  1.0
  Cd  Cd2  1  0.60509522  0.91517006  0.95695827  1.0
  Cd  Cd3  1  0.89491928  0.58483386  0.45695810  1.0
  H  H4  1  0.41402552  0.08462237  0.20288063  1.0
  H  H5  1  0.18626943  0.34794328  0.15223322  1.0
  H  H6  1  0.37102169  0.14396017  0.28214404  1.0
  H  H7  1  0.14535399  0.41110667  0.23125148  1.0
  H  H8  1  0.40413676  0.25042463  0.33347453  1.0
  H  H9  1  0.05318674  0.39269533  0.29739324  1.0
  H  H10  1  0.35739985  0.29477039  0.41427497  1.0
  H  H11  1  0.01258836  0.44417310  0.37657000  1.0
  H  H12  1  0.12858131  0.07237898  0.03889153  1.0
  H  H13  1  0.42448047  0.85400525  0.06369304  1.0
  H  H14  1  0.00300385  0.94986423  0.04195128  1.0
  H  H15  1  0.31160630  0.72064769  0.06630967  1.0
  H  H16  1  0.88344204  0.70929909  0.94433856  1.0
  H  H17  1  0.07068521  0.55567300  0.15374747  1.0
  H  H18  1  0.76698017  0.58213612  0.94166649  1.0
  H  H19  1  0.94610153  0.42980459  0.15201395  1.0
  H  H20  1  0.50960052  0.43494086  0.02701128  1.0
  H  H21  1  0.80166302  0.19959524  0.06488535  1.0
  H  H22  1  0.39158852  0.30721179  0.02270383  1.0
  H  H23  1  0.66798237  0.08315476  0.06225234  1.0
  H  H24  1  0.08596519  0.41536967  0.70288499  1.0
  H  H25  1  0.31374938  0.15206554  0.65223178  1.0
  H  H26  1  0.12898915  0.35602487  0.78214745  1.0
  H  H27  1  0.35466405  0.08889105  0.73124818  1.0
  H  H28  1  0.09585327  0.24956864  0.83347675  1.0
  H  H29  1  0.44680505  0.10730007  0.79739119  1.0
  H  H30  1  0.14258232  0.20521259  0.91427697  1.0
  H  H31  1  0.48740578  0.05582594  0.87657171  1.0
  H  H32  1  0.37142251  0.42761079  0.53890541  1.0
  H  H33  1  0.07552583  0.64600015  0.56369405  1.0
  H  H34  1  0.49700373  0.55012307  0.54195993  1.0
  H  H35  1  0.18840802  0.77935161  0.56630215  1.0
  H  H36  1  0.61654419  0.79069739  0.44434210  1.0
  H  H37  1  0.42933902  0.94430304  0.65375702  1.0
  H  H38  1  0.73301451  0.91785436  0.44165912  1.0
  H  H39  1  0.55389226  0.07019228  0.65201174  1.0
  H  H40  1  0.99041860  0.06504172  0.52701956  1.0
  H  H41  1  0.69834407  0.30040233  0.56487156  1.0
  H  H42  1  0.10842735  0.19277588  0.52269701  1.0
  H  H43  1  0.83201992  0.41683924  0.56221925  1.0
  H  H44  1  0.58599318  0.91536578  0.79712188  1.0
  H  H45  1  0.81375537  0.65205438  0.84777234  1.0
  H  H46  1  0.62898168  0.85601492  0.71786152  1.0
  H  H47  1  0.85465679  0.58887939  0.76875780  1.0
  H  H48  1  0.59586872  0.74960366  0.66652900  1.0
  H  H49  1  0.94681558  0.60729086  0.70259642  1.0
  H  H50  1  0.64257428  0.70524139  0.58573094  1.0
  H  H51  1  0.98738725  0.55581204  0.62341830  1.0
  H  H52  1  0.87141047  0.92762956  0.96110455  1.0
  H  H53  1  0.57551921  0.14601574  0.93631185  1.0
  H  H54  1  0.99699319  0.05014349  0.95803973  1.0
  H  H55  1  0.68839732  0.27937101  0.93370030  1.0
  H  H56  1  0.11658035  0.29069122  0.05565854  1.0
  H  H57  1  0.92935012  0.44431267  0.84625065  1.0
  H  H58  1  0.23305122  0.41785183  0.05833501  1.0
  H  H59  1  0.05392086  0.57018572  0.84798552  1.0
  H  H60  1  0.49042323  0.56503021  0.97296246  1.0
  H  H61  1  0.19833979  0.80039242  0.93512901  1.0
  H  H62  1  0.60842796  0.69276826  0.97728717  1.0
  H  H63  1  0.33200743  0.91684124  0.93777962  1.0
  H  H64  1  0.91400496  0.58462738  0.29711854  1.0
  H  H65  1  0.68624947  0.84794511  0.34776634  1.0
  H  H66  1  0.87101624  0.64397976  0.21785574  1.0
  H  H67  1  0.64534580  0.91111942  0.26875095  1.0
  H  H68  1  0.90413275  0.75040155  0.16651730  1.0
  H  H69  1  0.55319483  0.89270982  0.20259982  1.0
  H  H70  1  0.85742613  0.79476242  0.08572013  1.0
  H  H71  1  0.51260480  0.94418157  0.12342099  1.0
  H  H72  1  0.62857962  0.57238649  0.46110625  1.0
  H  H73  1  0.92447914  0.35399931  0.43630745  1.0
  H  H74  1  0.50300743  0.44986150  0.45805646  1.0
  H  H75  1  0.81160173  0.22064556  0.43369021  1.0
  H  H76  1  0.38341628  0.20931165  0.55566177  1.0
  H  H77  1  0.57067785  0.05570288  0.34625261  1.0
  H  H78  1  0.26696792  0.08213733  0.55834137  1.0
  H  H79  1  0.44609805  0.92983255  0.34798841  1.0
  H  H80  1  0.00957372  0.93497495  0.47298668  1.0
  H  H81  1  0.30164267  0.69962330  0.43512791  1.0
  H  H82  1  0.89155166  0.80724692  0.47729569  1.0
  H  H83  1  0.16796888  0.58318488  0.43777413  1.0
  C  C84  1  0.32814153  0.17380846  0.12593398  1.0
  C  C85  1  0.30219498  0.21243184  0.17301516  1.0
  C  C86  1  0.35505351  0.15582945  0.20979754  1.0
  C  C87  1  0.22601286  0.30418823  0.18117553  1.0
  C  C88  1  0.33164228  0.18996747  0.25377246  1.0
  C  C89  1  0.20291081  0.33860156  0.22526892  1.0
  C  C90  1  0.25519723  0.28195354  0.26243079  1.0
  C  C91  1  0.23090471  0.31577356  0.30953297  1.0
  C  C92  1  0.31703437  0.28991104  0.34304971  1.0
  C  C93  1  0.12158949  0.37206032  0.32263332  1.0
  C  C94  1  0.29234321  0.31541359  0.38795868  1.0
  C  C95  1  0.09732507  0.39908954  0.36762081  1.0
  C  C96  1  0.18211127  0.36885652  0.40099000  1.0
  C  C97  1  0.15720480  0.38823233  0.45009024  1.0
  C  C98  1  0.16585717  0.99388990  0.04513315  1.0
  C  C99  1  0.33084461  0.87143524  0.05920019  1.0
  C  C100  1  0.09613399  0.92555134  0.04675155  1.0
  C  C101  1  0.26824834  0.79791648  0.06084596  1.0
  C  C102  1  0.14910660  0.82585469  0.05374337  1.0
  C  C103  1  0.08552517  0.68968074  0.09089835  1.0
  C  C104  1  0.02004331  0.74435702  0.01197403  1.0
  C  C105  1  0.95041559  0.66858207  0.01119449  1.0
  C  C106  1  0.01720417  0.61279721  0.08798637  1.0
  C  C107  1  0.94977515  0.60621491  0.04912378  1.0
  C  C108  1  0.88538744  0.65956372  0.97302071  1.0
  C  C109  1  0.01686806  0.54928364  0.12446713  1.0
  C  C110  1  0.81768683  0.58866660  0.97178571  1.0
  C  C111  1  0.94756554  0.47964029  0.12354131  1.0
  C  C112  1  0.81361540  0.52770322  0.00890697  1.0
  C  C113  1  0.87860275  0.47324924  0.08604255  1.0
  C  C114  1  0.87960116  0.53544583  0.04813627  1.0
  C  C115  1  0.74162997  0.45366979  0.00686738  1.0
  C  C116  1  0.80355506  0.40131251  0.08647385  1.0
  C  C117  1  0.66587856  0.32603603  0.04550281  1.0
  C  C118  1  0.54919643  0.35747307  0.03398619  1.0
  C  C119  1  0.71105453  0.22641966  0.05601094  1.0
  C  C120  1  0.48281695  0.28677751  0.03201083  1.0
  C  C121  1  0.63717712  0.16153643  0.05403563  1.0
  C  C122  1  0.17185486  0.32619456  0.62593742  1.0
  C  C123  1  0.19780273  0.28756287  0.67301577  1.0
  C  C124  1  0.14493549  0.34416027  0.70980004  1.0
  C  C125  1  0.27398587  0.19580631  0.68117448  1.0
  C  C126  1  0.16835331  0.31001761  0.75377315  1.0
  C  C127  1  0.29710048  0.16139491  0.72526810  1.0
  C  C128  1  0.24479595  0.21803141  0.76243015  1.0
  C  C129  1  0.26908072  0.18420914  0.80953151  1.0
  C  C130  1  0.18295180  0.21007397  0.84305000  1.0
  C  C131  1  0.37839896  0.12792948  0.82262995  1.0
  C  C132  1  0.20764366  0.18456981  0.88796006  1.0
  C  C133  1  0.40266457  0.10090013  0.86761687  1.0
  C  C134  1  0.31787151  0.13112523  0.90098941  1.0
  C  C135  1  0.34278923  0.11174461  0.95008659  1.0
  C  C136  1  0.33414651  0.50610183  0.54514598  1.0
  C  C137  1  0.16915844  0.62856437  0.55920391  1.0
  C  C138  1  0.40387457  0.57443364  0.54676417  1.0
  C  C139  1  0.23176401  0.70207556  0.56085059  1.0
  C  C140  1  0.35090931  0.67413225  0.55375868  1.0
  C  C141  1  0.41446886  0.81031693  0.59091204  1.0
  C  C142  1  0.47994872  0.75563553  0.51198279  1.0
  C  C143  1  0.54958579  0.83140983  0.51120082  1.0
  C  C144  1  0.48280420  0.88718773  0.58799503  1.0
  C  C145  1  0.55022847  0.89377845  0.54912726  1.0
  C  C146  1  0.61459987  0.84043885  0.47302229  1.0
  C  C147  1  0.48314148  0.95069393  0.62447394  1.0
  C  C148  1  0.68230778  0.91133070  0.47178405  1.0
  C  C149  1  0.55242493  0.02035274  0.62354249  1.0
  C  C150  1  0.68637799  0.97230141  0.50890511  1.0
  C  C151  1  0.62139184  0.02674369  0.58604435  1.0
  C  C152  1  0.62039486  0.96455137  0.54813645  1.0
  C  C153  1  0.75836291  0.04634094  0.50686020  1.0
  C  C154  1  0.69644191  0.09867742  0.58646680  1.0
  C  C155  1  0.83413008  0.17395523  0.54549517  1.0
  C  C156  1  0.95082186  0.14251382  0.53398629  1.0
  C  C157  1  0.78895324  0.27357142  0.55599530  1.0
  C  C158  1  0.01719808  0.21321369  0.53200324  1.0
  C  C159  1  0.86283250  0.33845465  0.55401804  1.0
  C  C160  1  0.67186681  0.82620130  0.87406684  1.0
  C  C161  1  0.69781593  0.78755717  0.82698837  1.0
  C  C162  1  0.64495069  0.84415597  0.79020328  1.0
  C  C163  1  0.77399630  0.69579416  0.81883037  1.0
  C  C164  1  0.66835830  0.81001210  0.74623074  1.0
  C  C165  1  0.79709835  0.66138083  0.77473562  1.0
  C  C166  1  0.74480444  0.71802158  0.73757342  1.0
  C  C167  1  0.76909713  0.68421116  0.69046819  1.0
  C  C168  1  0.68296727  0.71009512  0.65695551  1.0
  C  C169  1  0.87840806  0.62792817  0.67735937  1.0
  C  C170  1  0.70763926  0.68459510  0.61204384  1.0
  C  C171  1  0.90264764  0.60089713  0.63237053  1.0
  C  C172  1  0.81785340  0.63113545  0.59900473  1.0
  C  C173  1  0.84275177  0.61175829  0.54990517  1.0
  C  C174  1  0.83413642  0.00612157  0.95486226  1.0
  C  C175  1  0.66915061  0.12857990  0.94080198  1.0
  C  C176  1  0.90386437  0.07445784  0.95324657  1.0
  C  C177  1  0.73174772  0.20209865  0.93915994  1.0
  C  C178  1  0.85089395  0.17415593  0.94625780  1.0
  C  C179  1  0.91449509  0.31031478  0.90909977  1.0
  C  C180  1  0.97997623  0.25564147  0.98802442  1.0
  C  C181  1  0.04962059  0.33140359  0.98880125  1.0
  C  C182  1  0.98282409  0.38718636  0.91201412  1.0
  C  C183  1  0.05025122  0.39377977  0.95087602  1.0
  C  C184  1  0.11464499  0.34042347  0.02697504  1.0
  C  C185  1  0.98315150  0.45069415  0.87553301  1.0
  C  C186  1  0.18233616  0.41132814  0.02821342  1.0
  C  C187  1  0.05244205  0.52034508  0.87645376  1.0
  C  C188  1  0.18640475  0.47228934  0.99108776  1.0
  C  C189  1  0.12140724  0.52674349  0.91395015  1.0
  C  C190  1  0.12042546  0.46454442  0.95185744  1.0
  C  C191  1  0.25839387  0.54632493  0.99312768  1.0
  C  C192  1  0.19648010  0.59866355  0.91352021  1.0
  C  C193  1  0.33414124  0.67394767  0.95448786  1.0
  C  C194  1  0.45083020  0.64250682  0.96599635  1.0
  C  C195  1  0.28895349  0.77356053  0.94399903  1.0
  C  C196  1  0.51719965  0.71320550  0.96798255  1.0
  C  C197  1  0.36282381  0.83845200  0.94598246  1.0
  C  C198  1  0.82814192  0.67382795  0.37406645  1.0
  C  C199  1  0.80217944  0.71244361  0.32698336  1.0
  C  C200  1  0.85504440  0.65584181  0.29020010  1.0
  C  C201  1  0.72600271  0.80420154  0.31882296  1.0
  C  C202  1  0.83163522  0.68998359  0.24622666  1.0
  C  C203  1  0.70289874  0.83861426  0.27472900  1.0
  C  C204  1  0.75519571  0.78197417  0.23756762  1.0
  C  C205  1  0.73091205  0.81578164  0.19046322  1.0
  C  C206  1  0.81704039  0.78990204  0.15694541  1.0
  C  C207  1  0.62159869  0.87207232  0.17736071  1.0
  C  C208  1  0.79235849  0.81540677  0.11203535  1.0
  C  C209  1  0.59734331  0.89909781  0.13237244  1.0
  C  C210  1  0.68213420  0.86886091  0.09900227  1.0
  C  C211  1  0.65722058  0.88824886  0.04990679  1.0
  C  C212  1  0.66585599  0.49389397  0.45486365  1.0
  C  C213  1  0.83084254  0.37143071  0.44079861  1.0
  C  C214  1  0.59613500  0.42555392  0.45325019  1.0
  C  C215  1  0.76824436  0.29791350  0.43915362  1.0
  C  C216  1  0.64910226  0.32585749  0.44625230  1.0
  C  C217  1  0.58552014  0.18969609  0.40909826  1.0
  C  C218  1  0.52001791  0.24437933  0.48802074  1.0
  C  C219  1  0.45038489  0.16860570  0.48880135  1.0
  C  C220  1  0.51719338  0.11281777  0.41201324  1.0
  C  C221  1  0.44975394  0.10623394  0.45087695  1.0
  C  C222  1  0.38536622  0.15957823  0.52697989  1.0
  C  C223  1  0.51686566  0.04930697  0.37553399  1.0
  C  C224  1  0.31767815  0.08867424  0.52822049  1.0
  C  C225  1  0.44756298  0.97966474  0.37645969  1.0
  C  C226  1  0.31361046  0.02771384  0.49109707  1.0
  C  C227  1  0.37859988  0.97326854  0.41395952  1.0
  C  C228  1  0.37959280  0.03546020  0.45186573  1.0
  C  C229  1  0.24162693  0.95367207  0.49314164  1.0
  C  C230  1  0.30354896  0.90133484  0.41353301  1.0
  C  C231  1  0.16584754  0.82606980  0.45449482  1.0
  C  C232  1  0.04916151  0.85750151  0.46601690  1.0
  C  C233  1  0.21103350  0.72645421  0.44400518  1.0
  C  C234  1  0.98278335  0.78680610  0.46799318  1.0
  C  C235  1  0.13715920  0.66156794  0.44598177  1.0
  N  N236  1  0.28125607  0.96703450  0.05062172  1.0
  N  N237  1  0.08170757  0.75177274  0.05235233  1.0
  N  N238  1  0.73865304  0.39605990  0.04622388  1.0
  N  N239  1  0.52570623  0.19059342  0.04169635  1.0
  N  N240  1  0.21874648  0.53296677  0.55063394  1.0
  N  N241  1  0.41830779  0.74821349  0.55236944  1.0
  N  N242  1  0.76134936  0.10393588  0.54621654  1.0
  N  N243  1  0.97430603  0.30940155  0.54167983  1.0
  N  N244  1  0.71873625  0.03298217  0.94938012  1.0
  N  N245  1  0.91830301  0.24823476  0.94764816  1.0
  N  N246  1  0.26137049  0.60393261  0.95377085  1.0
  N  N247  1  0.47429923  0.80939716  0.95831225  1.0
  N  N248  1  0.78125528  0.46703200  0.44937331  1.0
  N  N249  1  0.58170051  0.25177926  0.44764323  1.0
  N  N250  1  0.23864254  0.89607561  0.45378530  1.0
  N  N251  1  0.02568192  0.69062258  0.45831083  1.0
  O  O252  1  0.27790298  0.22318693  0.09233236  1.0
  O  O253  1  0.40169424  0.09081323  0.12156367  1.0
  O  O254  1  0.05984270  0.44425960  0.46227644  1.0
  O  O255  1  0.23146096  0.34684475  0.47931580  1.0
  O  O256  1  0.02652083  0.79833573  0.97938524  1.0
  O  O257  1  0.14044109  0.70223965  0.12469653  1.0
  O  O258  1  0.79488323  0.34944052  0.11929083  1.0
  O  O259  1  0.68691678  0.44147821  0.97264877  1.0
  O  O260  1  0.22209120  0.27683007  0.59233218  1.0
  O  O261  1  0.09828372  0.40918056  0.62156848  1.0
  O  O262  1  0.44016848  0.05574271  0.96226406  1.0
  O  O263  1  0.26853316  0.15311462  0.97931848  1.0
  O  O264  1  0.47344922  0.70167713  0.47938909  1.0
  O  O265  1  0.35952270  0.79776970  0.62470528  1.0
  O  O266  1  0.70510413  0.15055634  0.61928086  1.0
  O  O267  1  0.81308083  0.05852360  0.47264009  1.0
  O  O268  1  0.72208920  0.77683713  0.90767557  1.0
  O  O269  1  0.59831815  0.90919720  0.87843174  1.0
  O  O270  1  0.94011574  0.55573025  0.53771863  1.0
  O  O271  1  0.76849451  0.65315032  0.52068266  1.0
  O  O272  1  0.97347855  0.20168305  0.02062032  1.0
  O  O273  1  0.85955759  0.29776139  0.87530565  1.0
  O  O274  1  0.20516923  0.65052344  0.88070119  1.0
  O  O275  1  0.31312927  0.55849472  0.02734325  1.0
  O  O276  1  0.77789416  0.72318745  0.40767101  1.0
  O  O277  1  0.90170237  0.59083399  0.37843471  1.0
  O  O278  1  0.55985949  0.94427635  0.03772627  1.0
  O  O279  1  0.73146591  0.84686423  0.02067693  1.0
  O  O280  1  0.52649466  0.29835140  0.52061106  1.0
  O  O281  1  0.64046115  0.20224710  0.37530401  1.0
  O  O282  1  0.29488807  0.84945738  0.38071895  1.0
  O  O283  1  0.18691132  0.94148346  0.52736209  1.0
