# generated using pymatgen
data_Zn6H29C42ClO25
_symmetry_space_group_name_H-M   'P 1'
_cell_length_a   18.74714166
_cell_length_b   18.75607524
_cell_length_c   18.94190784
_cell_angle_alpha   108.95377674
_cell_angle_beta   109.37787514
_cell_angle_gamma   109.51797742
_symmetry_Int_Tables_number   1
_chemical_formula_structural   Zn6H29C42ClO25
_chemical_formula_sum   'Zn6 H29 C42 Cl1 O25'
_cell_volume   5162.46297742
_cell_formula_units_Z   1
loop_
 _symmetry_equiv_pos_site_id
 _symmetry_equiv_pos_as_xyz
  1  'x, y, z'
loop_
 _atom_site_type_symbol
 _atom_site_label
 _atom_site_symmetry_multiplicity
 _atom_site_fract_x
 _atom_site_fract_y
 _atom_site_fract_z
 _atom_site_occupancy
  Zn  Zn0  1  0.99685406  0.93765187  0.44143362  1.0
  Zn  Zn1  1  0.01081254  0.07238527  0.56513130  1.0
  Zn  Zn2  1  0.43896839  0.49632417  0.43906559  1.0
  Zn  Zn3  1  0.56141005  0.49939565  0.56650230  1.0
  Zn  Zn4  1  0.55614930  0.05543494  0.00527470  1.0
  Zn  Zn5  1  0.43667919  0.92535169  0.00377256  1.0
  H  H6  1  0.24711321  0.40210351  0.55394426  1.0
  H  H7  1  0.48167216  0.70171852  0.88593224  1.0
  H  H8  1  0.28331172  0.30496735  0.63555803  1.0
  H  H9  1  0.51508432  0.81035524  0.79673612  1.0
  H  H10  1  0.54900030  0.63270806  0.80659453  1.0
  H  H11  1  0.44613215  0.67190972  0.67396545  1.0
  H  H12  1  0.51347809  0.23599137  0.16267399  1.0
  H  H13  1  0.44370926  0.11439451  0.22926262  1.0
  H  H14  1  0.47367672  0.32927005  0.25379999  1.0
  H  H15  1  0.56211184  0.27933875  0.38337871  1.0
  H  H16  1  0.36811093  0.26253946  0.54102551  1.0
  H  H17  1  0.20728249  0.92707431  0.62962153  1.0
  H  H18  1  0.20568354  0.11055308  0.40760283  1.0
  H  H19  1  0.16841498  0.20868829  0.32743876  1.0
  H  H20  1  0.39890290  0.12262602  0.83030286  1.0
  H  H21  1  0.26400567  0.94182752  0.78298581  1.0
  H  H22  1  0.25952821  0.11699931  0.74020930  1.0
  H  H23  1  0.62013321  0.80421465  0.18571104  1.0
  H  H24  1  0.61381527  0.73523121  0.09026904  1.0
  H  H25  1  0.46251102  0.70845645  0.00345081  1.0
  H  H26  1  0.46868108  0.67696956  0.08362845  1.0
  H  H27  1  0.46992058  0.77653459  0.09920446  1.0
  H  H28  1  0.76187740  0.67603838  0.54871706  1.0
  H  H29  1  0.63662485  0.73387674  0.46656186  1.0
  H  H30  1  0.85262327  0.76737019  0.50462258  1.0
  H  H31  1  0.79722848  0.89506329  0.58517387  1.0
  H  H32  1  0.77749588  0.05190701  0.19094286  1.0
  H  H33  1  0.76998663  0.85867152  0.19303223  1.0
  H  H34  1  0.80317441  0.03229550  0.32378284  1.0
  C  C35  1  0.12900470  0.98533622  0.58865046  1.0
  C  C36  1  0.66068314  0.69948829  0.49592182  1.0
  C  C37  1  0.81146878  0.78563271  0.52738181  1.0
  C  C38  1  0.10984858  0.13701137  0.50545218  1.0
  C  C39  1  0.82943845  0.86866056  0.55466504  1.0
  C  C40  1  0.69547964  0.92261507  0.15556978  1.0
  C  C41  1  0.71077106  0.99871991  0.15466944  1.0
  C  C42  1  0.76295803  0.91613731  0.21571672  1.0
  C  C43  1  0.81285622  0.97716394  0.29903913  1.0
  C  C44  1  0.50553122  0.59542514  0.63997919  1.0
  C  C45  1  0.35260525  0.37668716  0.46584751  1.0
  C  C46  1  0.19507818  0.22928612  0.39585439  1.0
  C  C47  1  0.53077803  0.38405976  0.41823650  1.0
  C  C48  1  0.59512097  0.62500802  0.49199563  1.0
  C  C49  1  0.47042622  0.07544897  0.12193323  1.0
  C  C50  1  0.87958798  0.97364320  0.36426365  1.0
  C  C51  1  0.39762480  0.00627698  0.88558592  1.0
  C  C52  1  0.48020954  0.85052241  0.89494480  1.0
  C  C53  1  0.64296751  0.01225207  0.10505686  1.0
  C  C54  1  0.49384487  0.71747750  0.83889274  1.0
  C  C55  1  0.49460753  0.78902994  0.83730281  1.0
  C  C56  1  0.51327241  0.66288578  0.78248709  1.0
  C  C57  1  0.15066561  0.25424367  0.44925612  1.0
  C  C58  1  0.48713000  0.64747831  0.70102017  1.0
  C  C59  1  0.49551217  0.22046016  0.20736667  1.0
  C  C60  1  0.46970595  0.13846831  0.19300975  1.0
  C  C61  1  0.49744147  0.28898971  0.27310058  1.0
  C  C62  1  0.89777206  0.92879652  0.54723011  1.0
  C  C63  1  0.53073476  0.31117096  0.35678897  1.0
  C  C64  1  0.25951451  0.28392154  0.56728403  1.0
  C  C65  1  0.23860275  0.33722504  0.52297289  1.0
  C  C66  1  0.28457926  0.31187861  0.46993620  1.0
  C  C67  1  0.30477230  0.25886100  0.51472205  1.0
  C  C68  1  0.17143497  0.19956943  0.49366350  1.0
  C  C69  1  0.21618204  0.17598981  0.44052139  1.0
  C  C70  1  0.59045413  0.77876245  0.11587132  1.0
  C  C71  1  0.49204221  0.73240885  0.07287378  1.0
  C  C72  1  0.33603906  0.06272070  0.79274392  1.0
  C  C73  1  0.32719502  0.99967823  0.81419483  1.0
  C  C74  1  0.26408407  0.05781407  0.72682172  1.0
  C  C75  1  0.20300620  0.98626583  0.65037694  1.0
  C  C76  1  0.74443424  0.71839811  0.52725362  1.0
  Cl  Cl77  1  0.05032621  0.25031106  0.40799549  1.0
  O  O78  1  0.08986404  0.92477289  0.50965221  1.0
  O  O79  1  0.42317222  0.99407740  0.09567540  1.0
  O  O80  1  0.47678111  0.06443343  0.91610292  1.0
  O  O81  1  0.10815227  0.04235001  0.61585634  1.0
  O  O82  1  0.37357593  0.95302814  0.91198833  1.0
  O  O83  1  0.51981698  0.92870466  0.91170858  1.0
  O  O84  1  0.43021183  0.82274945  0.92437760  1.0
  O  O85  1  0.66566175  0.07043289  0.08180515  1.0
  O  O86  1  0.56537802  0.96856961  0.08855373  1.0
  O  O87  1  0.08040306  0.05690554  0.45773101  1.0
  O  O88  1  0.09096883  0.16864662  0.56361946  1.0
  O  O89  1  0.56101523  0.57081961  0.66682618  1.0
  O  O90  1  0.90143770  0.91539933  0.33967637  1.0
  O  O91  1  0.91070252  0.02932008  0.44177461  1.0
  O  O92  1  0.92154327  0.89644773  0.49534301  1.0
  O  O93  1  0.92868558  0.01106575  0.59386009  1.0
  O  O94  1  0.46427079  0.57812153  0.56260438  1.0
  O  O95  1  0.61722616  0.84988690  0.09808955  1.0
  O  O96  1  0.32994441  0.40456234  0.41281350  1.0
  O  O97  1  0.43076110  0.40261007  0.51805579  1.0
  O  O98  1  0.48465781  0.41524385  0.38947991  1.0
  O  O99  1  0.57890868  0.41123266  0.49881337  1.0
  O  O100  1  0.51494500  0.59491643  0.43722877  1.0
  O  O101  1  0.62101658  0.59521642  0.54068866  1.0
  O  O102  1  0.51647563  0.10502082  0.09119034  1.0
