# generated using pymatgen
data_ZnH16C25N2O5
_symmetry_space_group_name_H-M   'P 1'
_cell_length_a   17.00253490
_cell_length_b   17.00274029
_cell_length_c   32.95812305
_cell_angle_alpha   88.06123137
_cell_angle_beta   88.06119952
_cell_angle_gamma   69.97892327
_symmetry_Int_Tables_number   1
_chemical_formula_structural   ZnH16C25N2O5
_chemical_formula_sum   'Zn8 H128 C200 N16 O40'
_cell_volume   8944.41785671
_cell_formula_units_Z   8
loop_
 _symmetry_equiv_pos_site_id
 _symmetry_equiv_pos_as_xyz
  1  'x, y, z'
loop_
 _atom_site_type_symbol
 _atom_site_label
 _atom_site_symmetry_multiplicity
 _atom_site_fract_x
 _atom_site_fract_y
 _atom_site_fract_z
 _atom_site_occupancy
  Zn  Zn0  1  0.31458223  0.85447139  0.44279798  1.0
  Zn  Zn1  1  0.85446334  0.31458275  0.94280097  1.0
  Zn  Zn2  1  0.68541665  0.14553787  0.55719970  1.0
  Zn  Zn3  1  0.14553878  0.68541525  0.05719959  1.0
  Zn  Zn4  1  0.86454591  0.79483090  0.18764556  1.0
  Zn  Zn5  1  0.79483258  0.86453691  0.68765008  1.0
  Zn  Zn6  1  0.13546411  0.20516455  0.81235095  1.0
  Zn  Zn7  1  0.20516301  0.13546299  0.31235026  1.0
  H  H8  1  0.28762204  0.77950665  0.29013103  1.0
  H  H9  1  0.77950474  0.28761847  0.79013125  1.0
  H  H10  1  0.71238264  0.22049072  0.70986919  1.0
  H  H11  1  0.22049422  0.71238016  0.20986875  1.0
  H  H12  1  0.44453666  0.78059864  0.29449902  1.0
  H  H13  1  0.78059690  0.44453241  0.79450077  1.0
  H  H14  1  0.55546779  0.21939247  0.70550132  1.0
  H  H15  1  0.21939987  0.55546749  0.20550016  1.0
  H  H16  1  0.63411361  0.81866432  0.41437432  1.0
  H  H17  1  0.81866937  0.63410060  0.91437429  1.0
  H  H18  1  0.36589193  0.18133055  0.58562654  1.0
  H  H19  1  0.18133851  0.36589424  0.08562470  1.0
  H  H20  1  0.60984958  0.84822143  0.49368135  1.0
  H  H21  1  0.84822265  0.60984425  0.99368156  1.0
  H  H22  1  0.39015072  0.15177845  0.50631860  1.0
  H  H23  1  0.15178641  0.39015059  0.00631651  1.0
  H  H24  1  0.35397189  0.88811140  0.59967726  1.0
  H  H25  1  0.88809597  0.35397764  0.09968094  1.0
  H  H26  1  0.64602051  0.11191352  0.40031964  1.0
  H  H27  1  0.11190101  0.64602163  0.90032000  1.0
  H  H28  1  0.19672773  0.88645296  0.59475995  1.0
  H  H29  1  0.88644537  0.19673007  0.09476263  1.0
  H  H30  1  0.80326828  0.11356131  0.40523890  1.0
  H  H31  1  0.11355561  0.80326605  0.90523768  1.0
  H  H32  1  0.01361053  0.83563219  0.47722473  1.0
  H  H33  1  0.83562684  0.01361574  0.97722818  1.0
  H  H34  1  0.98638790  0.16437144  0.52277367  1.0
  H  H35  1  0.16437229  0.98638415  0.02277301  1.0
  H  H36  1  0.03650364  0.80914924  0.39689438  1.0
  H  H37  1  0.80914780  0.03650509  0.89689783  1.0
  H  H38  1  0.96350104  0.19084812  0.60310493  1.0
  H  H39  1  0.19084994  0.96349543  0.10310337  1.0
  H  H40  1  0.07316557  0.92148145  0.32513990  1.0
  H  H41  1  0.92148199  0.07316573  0.82514060  1.0
  H  H42  1  0.92683137  0.07851969  0.67486070  1.0
  H  H43  1  0.07851820  0.92683103  0.17486032  1.0
  H  H44  1  0.98927889  0.88971871  0.27097839  1.0
  H  H45  1  0.88972063  0.98927024  0.77098290  1.0
  H  H46  1  0.01072722  0.11027614  0.72901973  1.0
  H  H47  1  0.11027688  0.01072403  0.22901964  1.0
  H  H48  1  0.13207870  0.62744622  0.28379279  1.0
  H  H49  1  0.62744465  0.13207016  0.78379553  1.0
  H  H50  1  0.86793193  0.37254925  0.71620705  1.0
  H  H51  1  0.37255362  0.86793223  0.21620532  1.0
  H  H52  1  0.21568244  0.65917410  0.33796107  1.0
  H  H53  1  0.65917317  0.21568050  0.83796003  1.0
  H  H54  1  0.78432135  0.34082765  0.66203999  1.0
  H  H55  1  0.34082821  0.78432313  0.16203892  1.0
  H  H56  1  0.99348867  0.65003267  0.20694266  1.0
  H  H57  1  0.65002980  0.99347557  0.70694857  1.0
  H  H58  1  0.00651976  0.34996405  0.79305720  1.0
  H  H59  1  0.34996098  0.00651438  0.29306177  1.0
  H  H60  1  0.49311181  0.91379680  0.31315888  1.0
  H  H61  1  0.91381166  0.49309700  0.81316477  1.0
  H  H62  1  0.50689726  0.08618927  0.68683753  1.0
  H  H63  1  0.08619227  0.50689912  0.18683458  1.0
  H  H64  1  0.60721770  0.89711852  0.26342912  1.0
  H  H65  1  0.89713864  0.60720524  0.76343638  1.0
  H  H66  1  0.39279088  0.10286380  0.73656616  1.0
  H  H67  1  0.10286537  0.39279588  0.23656560  1.0
  H  H68  1  0.75276524  0.66493840  0.32344730  1.0
  H  H69  1  0.66495261  0.75276101  0.82344876  1.0
  H  H70  1  0.24723464  0.33504709  0.67655294  1.0
  H  H71  1  0.33505457  0.24723949  0.17655560  1.0
  H  H72  1  0.63462203  0.68287450  0.37360165  1.0
  H  H73  1  0.68287944  0.63462035  0.87360203  1.0
  H  H74  1  0.36537648  0.31711851  0.62639998  1.0
  H  H75  1  0.31712541  0.36537827  0.12639908  1.0
  H  H76  1  0.70788287  0.87510960  0.23476624  1.0
  H  H77  1  0.87511814  0.70787810  0.73477024  1.0
  H  H78  1  0.29212511  0.12488149  0.76523192  1.0
  H  H79  1  0.12487475  0.29212807  0.26523216  1.0
  H  H80  1  0.42687819  0.00479108  0.56062019  1.0
  H  H81  1  0.00478764  0.42687468  0.06062171  1.0
  H  H82  1  0.57312572  0.99521379  0.43938052  1.0
  H  H83  1  0.99521481  0.57312582  0.93937849  1.0
  H  H84  1  0.51045943  0.02105201  0.61826429  1.0
  H  H85  1  0.02105087  0.51045639  0.11826516  1.0
  H  H86  1  0.48953736  0.97894790  0.38174089  1.0
  H  H87  1  0.97894682  0.48954601  0.88173601  1.0
  H  H88  1  0.65561836  0.75888513  0.61554569  1.0
  H  H89  1  0.75888168  0.65561482  0.11554842  1.0
  H  H90  1  0.34437212  0.24110728  0.38445489  1.0
  H  H91  1  0.24111437  0.34438194  0.88444955  1.0
  H  H92  1  0.57140402  0.74199896  0.55774049  1.0
  H  H93  1  0.74199158  0.57140159  0.05774266  1.0
  H  H94  1  0.42858596  0.25800533  0.44225776  1.0
  H  H95  1  0.25800703  0.42859453  0.94225436  1.0
  H  H96  1  0.02510632  0.99756101  0.53423824  1.0
  H  H97  1  0.99755898  0.02510848  0.03423717  1.0
  H  H98  1  0.97489082  0.00244827  0.46576433  1.0
  H  H99  1  0.00244452  0.97488888  0.96576277  1.0
  H  H100  1  0.91043919  0.00500739  0.58449481  1.0
  H  H101  1  0.00500612  0.91043936  0.08449321  1.0
  H  H102  1  0.08956030  0.99500188  0.41550802  1.0
  H  H103  1  0.99499802  0.08955613  0.91550585  1.0
  H  H104  1  0.02506098  0.74189306  0.61213884  1.0
  H  H105  1  0.74188840  0.02506137  0.11214028  1.0
  H  H106  1  0.97493769  0.25811683  0.38786035  1.0
  H  H107  1  0.25811376  0.97493474  0.88785759  1.0
  H  H108  1  0.13801337  0.73349970  0.55977260  1.0
  H  H109  1  0.73349574  0.13801498  0.05977432  1.0
  H  H110  1  0.86198535  0.26650831  0.44022723  1.0
  H  H111  1  0.26650767  0.86198613  0.94022495  1.0
  H  H112  1  0.23130591  0.01383330  0.40803331  1.0
  H  H113  1  0.01382772  0.23131478  0.90803460  1.0
  H  H114  1  0.76868628  0.98617661  0.59196509  1.0
  H  H115  1  0.98617496  0.76869197  0.09196487  1.0
  H  H116  1  0.28544264  0.10346871  0.43587357  1.0
  H  H117  1  0.10346542  0.28545106  0.93587361  1.0
  H  H118  1  0.71454957  0.89654122  0.56412908  1.0
  H  H119  1  0.89653658  0.71455944  0.06412672  1.0
  H  H120  1  0.34240309  0.02256321  0.47009626  1.0
  H  H121  1  0.02255931  0.34241024  0.97009816  1.0
  H  H122  1  0.65758941  0.97744232  0.52990313  1.0
  H  H123  1  0.97743899  0.65759903  0.02990165  1.0
  H  H124  1  0.15046599  0.10573326  0.47301918  1.0
  H  H125  1  0.10573067  0.15047223  0.97301591  1.0
  H  H126  1  0.84952864  0.89426602  0.52698301  1.0
  H  H127  1  0.89426316  0.84953454  0.02698009  1.0
  H  H128  1  0.21206053  0.03142362  0.50887109  1.0
  H  H129  1  0.03141994  0.21206330  0.00886885  1.0
  H  H130  1  0.78793581  0.96857753  0.49113043  1.0
  H  H131  1  0.96857545  0.78794409  0.99112893  1.0
  H  H132  1  0.21717548  0.19521141  0.49420157  1.0
  H  H133  1  0.19520695  0.21717922  0.99420172  1.0
  H  H134  1  0.78281787  0.80479162  0.50579906  1.0
  H  H135  1  0.80478951  0.78282505  0.00579671  1.0
  C  C136  1  0.16181258  0.82323190  0.40682323  1.0
  C  C137  1  0.82322727  0.16181490  0.90682521  1.0
  C  C138  1  0.83818378  0.17677612  0.59317604  1.0
  C  C139  1  0.17677485  0.83818310  0.09317536  1.0
  C  C140  1  0.19920696  0.80950549  0.36773135  1.0
  C  C141  1  0.80950722  0.19920661  0.86773144  1.0
  C  C142  1  0.80079255  0.19049502  0.63226921  1.0
  C  C143  1  0.19049485  0.80079327  0.13226817  1.0
  C  C144  1  0.28080835  0.80679366  0.35704245  1.0
  C  C145  1  0.80678951  0.28080582  0.85704360  1.0
  C  C146  1  0.71919224  0.19321059  0.64295712  1.0
  C  C147  1  0.19321084  0.71919218  0.14295639  1.0
  C  C148  1  0.31819566  0.79036416  0.31668838  1.0
  C  C149  1  0.79036182  0.31819165  0.81668893  1.0
  C  C150  1  0.68180721  0.20963509  0.68331244  1.0
  C  C151  1  0.20963596  0.68180699  0.18331201  1.0
  C  C152  1  0.39792013  0.79125137  0.31891053  1.0
  C  C153  1  0.79124869  0.39791641  0.81891260  1.0
  C  C154  1  0.60208064  0.20874539  0.68109008  1.0
  C  C155  1  0.20875166  0.60208160  0.18108861  1.0
  C  C156  1  0.40957157  0.80867273  0.36064432  1.0
  C  C157  1  0.80866728  0.40956811  0.86064613  1.0
  C  C158  1  0.59042966  0.19132965  0.63935587  1.0
  C  C159  1  0.19133345  0.59043052  0.13935475  1.0
  C  C160  1  0.48521995  0.81045072  0.37617056  1.0
  C  C161  1  0.81044875  0.48521408  0.87617265  1.0
  C  C162  1  0.51478334  0.18954727  0.62382816  1.0
  C  C163  1  0.18955277  0.51478391  0.12382732  1.0
  C  C164  1  0.49978497  0.82147857  0.41716638  1.0
  C  C165  1  0.82147468  0.49978005  0.91716940  1.0
  C  C166  1  0.50021603  0.17852443  0.58283169  1.0
  C  C167  1  0.17852765  0.50021732  0.08283087  1.0
  C  C168  1  0.57764875  0.82496776  0.43230135  1.0
  C  C169  1  0.82497039  0.57764051  0.93230310  1.0
  C  C170  1  0.42235374  0.17503085  0.56769798  1.0
  C  C171  1  0.17503531  0.42235559  0.06769652  1.0
  C  C172  1  0.56525547  0.83998817  0.47289735  1.0
  C  C173  1  0.83998860  0.56525027  0.97289847  1.0
  C  C174  1  0.43474483  0.16001171  0.52710230  1.0
  C  C175  1  0.16001887  0.43474583  0.02710081  1.0
  C  C176  1  0.47992838  0.84561169  0.48285061  1.0
  C  C177  1  0.84560918  0.47992459  0.98285419  1.0
  C  C178  1  0.52007106  0.15439069  0.51714688  1.0
  C  C179  1  0.15439234  0.52007341  0.01714577  1.0
  C  C180  1  0.44195185  0.86211128  0.52172892  1.0
  C  C181  1  0.86210855  0.44194955  0.02173099  1.0
  C  C182  1  0.55804520  0.13789298  0.47826950  1.0
  C  C183  1  0.13789260  0.55804783  0.97826899  1.0
  C  C184  1  0.35886360  0.86858119  0.53201918  1.0
  C  C185  1  0.86857228  0.35886343  0.03202284  1.0
  C  C186  1  0.64113283  0.13143182  0.46797848  1.0
  C  C187  1  0.13142684  0.64113645  0.96797653  1.0
  C  C188  1  0.32244562  0.88072943  0.57273746  1.0
  C  C189  1  0.88071616  0.32245077  0.07274111  1.0
  C  C190  1  0.67754692  0.11928986  0.42725954  1.0
  C  C191  1  0.11928120  0.67754912  0.92725951  1.0
  C  C192  1  0.24275894  0.87962981  0.57028648  1.0
  C  C193  1  0.87962068  0.24276336  0.07028885  1.0
  C  C194  1  0.75723467  0.12038635  0.42971208  1.0
  C  C195  1  0.12038219  0.75723588  0.92971107  1.0
  C  C196  1  0.23029794  0.86656278  0.52813252  1.0
  C  C197  1  0.86655551  0.23029878  0.02813491  1.0
  C  C198  1  0.76969677  0.13344838  0.47186612  1.0
  C  C199  1  0.13345062  0.76969608  0.97186533  1.0
  C  C200  1  0.15668787  0.85954538  0.51310070  1.0
  C  C201  1  0.85953951  0.15668730  0.01310431  1.0
  C  C202  1  0.84330983  0.14046388  0.48689791  1.0
  C  C203  1  0.14046303  0.84330944  0.98689626  1.0
  C  C204  1  0.14297880  0.84521480  0.47261515  1.0
  C  C205  1  0.84520710  0.14298149  0.97261597  1.0
  C  C206  1  0.85701785  0.15479759  0.52738403  1.0
  C  C207  1  0.15479522  0.85701588  0.02738369  1.0
  C  C208  1  0.06785111  0.83402387  0.45844958  1.0
  C  C209  1  0.83401702  0.06785726  0.95845183  1.0
  C  C210  1  0.93214584  0.16598415  0.54154968  1.0
  C  C211  1  0.16598387  0.93214261  0.04154781  1.0
  C  C212  1  0.07943906  0.82054654  0.41765765  1.0
  C  C213  1  0.82054335  0.07944604  0.91765860  1.0
  C  C214  1  0.92055703  0.17945711  0.58234231  1.0
  C  C215  1  0.17945573  0.92055572  0.08234073  1.0
  C  C216  1  0.14929491  0.79215562  0.33508137  1.0
  C  C217  1  0.79215716  0.14929144  0.83508274  1.0
  C  C218  1  0.85070796  0.20784362  0.66491824  1.0
  C  C219  1  0.20784298  0.85070720  0.16491816  1.0
  C  C220  1  0.08541195  0.85714620  0.31611396  1.0
  C  C221  1  0.85714486  0.08540824  0.81611660  1.0
  C  C222  1  0.91458755  0.14285430  0.68388539  1.0
  C  C223  1  0.14285377  0.91458790  0.18388467  1.0
  C  C224  1  0.03880427  0.83969624  0.28598455  1.0
  C  C225  1  0.83969795  0.03879678  0.78598932  1.0
  C  C226  1  0.96119923  0.16030112  0.71401296  1.0
  C  C227  1  0.16030132  0.96119748  0.21401349  1.0
  C  C228  1  0.05541930  0.75676594  0.27441030  1.0
  C  C229  1  0.75676626  0.05540622  0.77441641  1.0
  C  C230  1  0.94459068  0.24323140  0.72558710  1.0
  C  C231  1  0.24323302  0.94458805  0.22558761  1.0
  C  C232  1  0.11965591  0.69157892  0.29301975  1.0
  C  C233  1  0.69157611  0.11964897  0.79302156  1.0
  C  C234  1  0.88035168  0.30842031  0.70698039  1.0
  C  C235  1  0.30842221  0.88035155  0.20697963  1.0
  C  C236  1  0.16605130  0.70941149  0.32308072  1.0
  C  C237  1  0.70940986  0.16604685  0.82308126  1.0
  C  C238  1  0.83395607  0.29058837  0.67691971  1.0
  C  C239  1  0.29058846  0.83395366  0.17691903  1.0
  C  C240  1  0.00502551  0.73873765  0.24270362  1.0
  C  C241  1  0.73873928  0.00500841  0.74270948  1.0
  C  C242  1  0.99498809  0.26125592  0.75729317  1.0
  C  C243  1  0.26125710  0.99498399  0.25729402  1.0
  C  C244  1  0.55590929  0.79939268  0.34661619  1.0
  C  C245  1  0.79939989  0.55589911  0.84661789  1.0
  C  C246  1  0.44409607  0.20060092  0.65338226  1.0
  C  C247  1  0.20060758  0.44409699  0.15338230  1.0
  C  C248  1  0.54967238  0.85882629  0.31505627  1.0
  C  C249  1  0.85883565  0.54965926  0.81506162  1.0
  C  C250  1  0.45033399  0.14116605  0.68494008  1.0
  C  C251  1  0.14116727  0.45033811  0.18493894  1.0
  C  C252  1  0.61561279  0.84883859  0.28731547  1.0
  C  C253  1  0.84885323  0.61560165  0.78732069  1.0
  C  C254  1  0.38439157  0.15114750  0.71268194  1.0
  C  C255  1  0.15114724  0.38439949  0.21268137  1.0
  C  C256  1  0.68946495  0.77899627  0.29027509  1.0
  C  C257  1  0.77900648  0.68945579  0.79028036  1.0
  C  C258  1  0.31053932  0.22099358  0.70972255  1.0
  C  C259  1  0.22099514  0.31054723  0.20972467  1.0
  C  C260  1  0.69558829  0.71923838  0.32165969  1.0
  C  C261  1  0.71924847  0.69558097  0.82166372  1.0
  C  C262  1  0.30441481  0.28075148  0.67833918  1.0
  C  C263  1  0.28075576  0.30441954  0.17834100  1.0
  C  C264  1  0.62984820  0.72957211  0.34945089  1.0
  C  C265  1  0.72957884  0.62983713  0.84945384  1.0
  C  C266  1  0.37015642  0.27042025  0.65054942  1.0
  C  C267  1  0.27042617  0.37015586  0.15054980  1.0
  C  C268  1  0.76223141  0.76384897  0.26220164  1.0
  C  C269  1  0.76386284  0.76222224  0.76220685  1.0
  C  C270  1  0.23777392  0.23613775  0.73779452  1.0
  C  C271  1  0.23613692  0.23778455  0.23779906  1.0
  C  C272  1  0.49354882  0.87220421  0.55544346  1.0
  C  C273  1  0.87220120  0.49354471  0.05544587  1.0
  C  C274  1  0.50644978  0.12780068  0.44455583  1.0
  C  C275  1  0.12780032  0.50645329  0.94455349  1.0
  C  C276  1  0.47636246  0.95065123  0.57290414  1.0
  C  C277  1  0.95064718  0.47635976  0.07290655  1.0
  C  C278  1  0.52363775  0.04935240  0.42709635  1.0
  C  C279  1  0.04935290  0.52364074  0.92709279  1.0
  C  C280  1  0.52267202  0.95989272  0.60526990  1.0
  C  C281  1  0.95989148  0.52266984  0.10527073  1.0
  C  C282  1  0.47732380  0.04010656  0.39473348  1.0
  C  C283  1  0.04010721  0.47733129  0.89472862  1.0
  C  C284  1  0.58724663  0.89074730  0.62079680  1.0
  C  C285  1  0.89074524  0.58724476  0.12079794  1.0
  C  C286  1  0.41274423  0.10924574  0.37920619  1.0
  C  C287  1  0.10925072  0.41275576  0.87920178  1.0
  C  C288  1  0.60514150  0.81223594  0.60331671  1.0
  C  C289  1  0.81223045  0.60513852  0.10331885  1.0
  C  C290  1  0.39484905  0.18776148  0.39668529  1.0
  C  C291  1  0.18776357  0.39486075  0.89668002  1.0
  C  C292  1  0.55858196  0.80315998  0.57100381  1.0
  C  C293  1  0.80315584  0.55857664  0.07100749  1.0
  C  C294  1  0.44141245  0.19683992  0.42899564  1.0
  C  C295  1  0.19684460  0.44141760  0.92899196  1.0
  C  C296  1  0.63908696  0.90183882  0.65415846  1.0
  C  C297  1  0.90184037  0.63908605  0.15415709  1.0
  C  C298  1  0.36090321  0.09815111  0.34584673  1.0
  C  C299  1  0.09815510  0.36091072  0.84584271  1.0
  C  C300  1  0.08806391  0.86475066  0.54339688  1.0
  C  C301  1  0.86474665  0.08806599  0.04339767  1.0
  C  C302  1  0.91192925  0.13525987  0.45660210  1.0
  C  C303  1  0.13525605  0.91193200  0.95660136  1.0
  C  C304  1  0.02420517  0.94118659  0.55067100  1.0
  C  C305  1  0.94118564  0.02420737  0.05066961  1.0
  C  C306  1  0.97578906  0.05882082  0.44933135  1.0
  C  C307  1  0.05881930  0.97578749  0.94933066  1.0
  C  C308  1  0.96033419  0.94561925  0.57904041  1.0
  C  C309  1  0.94561565  0.96033662  0.07903878  1.0
  C  C310  1  0.03966133  0.05439128  0.42096095  1.0
  C  C311  1  0.05438537  0.03965762  0.92095884  1.0
  C  C312  1  0.96088027  0.87352564  0.60115195  1.0
  C  C313  1  0.87352285  0.96088102  0.10115095  1.0
  C  C314  1  0.03911825  0.12648300  0.39884878  1.0
  C  C315  1  0.12647969  0.03911572  0.89884720  1.0
  C  C316  1  0.02535514  0.79711377  0.59443876  1.0
  C  C317  1  0.79711005  0.02535722  0.09443863  1.0
  C  C318  1  0.97464316  0.20289550  0.40556136  1.0
  C  C319  1  0.20289223  0.97464202  0.90555947  1.0
  C  C320  1  0.08794774  0.79273468  0.56544205  1.0
  C  C321  1  0.79273093  0.08795063  0.06544435  1.0
  C  C322  1  0.91204643  0.20727460  0.43455571  1.0
  C  C323  1  0.20727439  0.91204485  0.93455438  1.0
  C  C324  1  0.89388576  0.87781941  0.63182360  1.0
  C  C325  1  0.87781385  0.89388665  0.13182173  1.0
  C  C326  1  0.10610965  0.12218799  0.36817661  1.0
  C  C327  1  0.12218477  0.10610947  0.86817529  1.0
  C  C328  1  0.28174345  0.05070606  0.45535553  1.0
  C  C329  1  0.05070133  0.28174948  0.95535656  1.0
  C  C330  1  0.71825078  0.94930134  0.54464470  1.0
  C  C331  1  0.94929786  0.71825541  0.04464393  1.0
  C  C332  1  0.21205570  0.08243329  0.48755146  1.0
  C  C333  1  0.08243134  0.21205937  0.98755065  1.0
  C  C334  1  0.78793926  0.91756849  0.51245008  1.0
  C  C335  1  0.91756806  0.78794489  0.01244893  1.0
  N  N336  1  0.33746460  0.81815908  0.38297201  1.0
  N  N337  1  0.81815438  0.33746072  0.88297351  1.0
  N  N338  1  0.66253636  0.18184580  0.61702723  1.0
  N  N339  1  0.18184838  0.66253539  0.11702647  1.0
  N  N340  1  0.44162778  0.83442003  0.44844506  1.0
  N  N341  1  0.83441605  0.44162227  0.94844869  1.0
  N  N342  1  0.55837435  0.16558483  0.55155204  1.0
  N  N343  1  0.16558296  0.55837449  0.05155165  1.0
  N  N344  1  0.30150456  0.86066938  0.50558303  1.0
  N  N345  1  0.86066322  0.30150587  0.00558631  1.0
  N  N346  1  0.69849096  0.13934115  0.49441530  1.0
  N  N347  1  0.13933975  0.69848962  0.99441398  1.0
  N  N348  1  0.19880703  0.83845373  0.44066324  1.0
  N  N349  1  0.83844940  0.19880886  0.94066522  1.0
  N  N350  1  0.80118924  0.16155804  0.55933596  1.0
  N  N351  1  0.16155566  0.80118913  0.05933559  1.0
  O  O352  1  0.02539186  0.66107076  0.23259546  1.0
  O  O353  1  0.66107037  0.02537387  0.73260350  1.0
  O  O354  1  0.97462485  0.33892405  0.76740034  1.0
  O  O355  1  0.33892725  0.97461667  0.26740366  1.0
  O  O356  1  0.94588992  0.79870386  0.22739717  1.0
  O  O357  1  0.79870610  0.94587436  0.72740545  1.0
  O  O358  1  0.05412170  0.20129034  0.77259813  1.0
  O  O359  1  0.20129023  0.05411991  0.27259833  1.0
  O  O360  1  0.82540421  0.70228658  0.26213220  1.0
  O  O361  1  0.70230043  0.82539183  0.76213564  1.0
  O  O362  1  0.17460304  0.29769451  0.73786737  1.0
  O  O363  1  0.29769874  0.17461495  0.23786966  1.0
  O  O364  1  0.75870615  0.82598701  0.23295894  1.0
  O  O365  1  0.82599864  0.75869498  0.73296453  1.0
  O  O366  1  0.24130470  0.17399907  0.76703864  1.0
  O  O367  1  0.17399645  0.24130994  0.26704028  1.0
  O  O368  1  0.70612469  0.83946471  0.66202720  1.0
  O  O369  1  0.83946695  0.70612354  0.16202644  1.0
  O  O370  1  0.29387452  0.16053141  0.33797224  1.0
  O  O371  1  0.16053217  0.29387633  0.83797141  1.0
  O  O372  1  0.61649718  0.97116794  0.67205805  1.0
  O  O373  1  0.97117179  0.61650264  0.17205440  1.0
  O  O374  1  0.38348190  0.02881829  0.32795166  1.0
  O  O375  1  0.02882133  0.38349414  0.82794605  1.0
  O  O376  1  0.90641472  0.81806001  0.65872456  1.0
  O  O377  1  0.81805656  0.90641381  0.15872239  1.0
  O  O378  1  0.09358330  0.18194489  0.34127655  1.0
  O  O379  1  0.18194324  0.09358231  0.84127491  1.0
  O  O380  1  0.82499227  0.93945111  0.63198027  1.0
  O  O381  1  0.93944920  0.82499410  0.13197771  1.0
  O  O382  1  0.17500049  0.06055191  0.36801795  1.0
  O  O383  1  0.06054899  0.17500327  0.86801899  1.0
  O  O384  1  0.27011551  0.98802683  0.43073292  1.0
  O  O385  1  0.98802166  0.27012675  0.93073262  1.0
  O  O386  1  0.72987865  0.01198244  0.56926484  1.0
  O  O387  1  0.01198075  0.72988249  0.06926408  1.0
  O  O388  1  0.22523865  0.14571469  0.51153655  1.0
  O  O389  1  0.14570951  0.22524204  0.01153615  1.0
  O  O390  1  0.77475567  0.85428897  0.48846435  1.0
  O  O391  1  0.85428864  0.77475722  0.98846264  1.0
