# generated using pymatgen
data_ZnH20C28(NO2)2
_symmetry_space_group_name_H-M   'P 1'
_cell_length_a   5.79468201
_cell_length_b   14.01364693
_cell_length_c   20.74138182
_cell_angle_alpha   93.69622618
_cell_angle_beta   90.02373342
_cell_angle_gamma   101.83599934
_symmetry_Int_Tables_number   1
_chemical_formula_structural   ZnH20C28(NO2)2
_chemical_formula_sum   'Zn2 H40 C56 N4 O8'
_cell_volume   1644.89645156
_cell_formula_units_Z   2
loop_
 _symmetry_equiv_pos_site_id
 _symmetry_equiv_pos_as_xyz
  1  'x, y, z'
loop_
 _atom_site_type_symbol
 _atom_site_label
 _atom_site_symmetry_multiplicity
 _atom_site_fract_x
 _atom_site_fract_y
 _atom_site_fract_z
 _atom_site_occupancy
  Zn  Zn0  1  0.22336726  0.99943201  0.24997947  1.0
  Zn  Zn1  1  0.77662816  0.00054736  0.75003098  1.0
  H  H2  1  0.15615314  0.86570346  0.13116612  1.0
  H  H3  1  0.83733747  0.74521805  0.07519067  1.0
  H  H4  1  0.39453313  0.78570950  0.23924500  1.0
  H  H5  1  0.73667959  0.90349922  0.28902365  1.0
  H  H6  1  0.22703652  0.66932766  0.15331099  1.0
  H  H7  1  0.53512900  0.65670096  0.03313020  1.0
  H  H8  1  0.92992624  0.57115273  0.10949165  1.0
  H  H9  1  0.38498951  0.54966464  0.94664529  1.0
  H  H10  1  0.74285712  0.03270527  0.40199908  1.0
  H  H11  1  0.07589756  0.92109284  0.48714919  1.0
  H  H12  1  0.28952337  0.13359539  0.36856592  1.0
  H  H13  1  0.09097445  0.25447206  0.42437353  1.0
  H  H14  1  0.60578709  0.21302843  0.26069274  1.0
  H  H15  1  0.83032018  0.09488032  0.21107068  1.0
  H  H16  1  0.55532609  0.33019923  0.34652241  1.0
  H  H17  1  0.87719575  0.34246893  0.46649417  1.0
  H  H18  1  0.35518467  0.42806318  0.39092152  1.0
  H  H19  1  0.83700094  0.45031023  0.55269998  1.0
  H  H20  1  0.70863656  0.96619745  0.09806732  1.0
  H  H21  1  0.15503358  0.07946727  0.01277022  1.0
  H  H22  1  0.84383239  0.13428381  0.86884029  1.0
  H  H23  1  0.16264731  0.25477118  0.92481205  1.0
  H  H24  1  0.60543705  0.21426772  0.76075363  1.0
  H  H25  1  0.26328343  0.09647749  0.71098460  1.0
  H  H26  1  0.77296144  0.33063255  0.84671062  1.0
  H  H27  1  0.46484959  0.34328970  0.96687847  1.0
  H  H28  1  0.07006205  0.42883313  0.89051993  1.0
  H  H29  1  0.61499821  0.45031660  0.05336777  1.0
  H  H30  1  0.25708553  0.96727210  0.59801552  1.0
  H  H31  1  0.92404409  0.07887906  0.51286777  1.0
  H  H32  1  0.71054184  0.86643062  0.63142596  1.0
  H  H33  1  0.90914387  0.74558784  0.57560723  1.0
  H  H34  1  0.39423891  0.78695346  0.73930393  1.0
  H  H35  1  0.16964394  0.90507781  0.78893862  1.0
  H  H36  1  0.44472403  0.66982076  0.65345339  1.0
  H  H37  1  0.12288832  0.65759153  0.53348229  1.0
  H  H38  1  0.64487631  0.57197519  0.60903772  1.0
  H  H39  1  0.16306412  0.54972940  0.44726085  1.0
  H  H40  1  0.29130724  0.03381345  0.90193902  1.0
  H  H41  1  0.84489920  0.92054576  0.98723682  1.0
  C  C42  1  0.98442931  0.84500424  0.15348110  1.0
  C  C43  1  0.80448016  0.77752615  0.12259125  1.0
  C  C44  1  0.58309837  0.75329896  0.15237539  1.0
  C  C45  1  0.56107918  0.79989581  0.21355113  1.0
  C  C46  1  0.75059455  0.86656817  0.24178509  1.0
  C  C47  1  0.38306257  0.68433258  0.12306547  1.0
  C  C48  1  0.37821708  0.63995536  0.06292324  1.0
  C  C49  1  0.18334966  0.56993003  0.03232687  1.0
  C  C50  1  0.96261651  0.54025013  0.06158873  1.0
  C  C51  1  0.21525350  0.52791636  0.97000783  1.0
  C  C52  1  0.28235072  0.95241054  0.37284479  1.0
  C  C53  1  0.39852330  0.97416454  0.43833685  1.0
  C  C54  1  0.63755473  0.01944971  0.44513748  1.0
  C  C55  1  0.26206192  0.95477866  0.49362543  1.0
  C  C56  1  0.13810840  0.15421284  0.34628167  1.0
  C  C57  1  0.02551266  0.22191153  0.37706042  1.0
  C  C58  1  0.82767304  0.24596049  0.34736958  1.0
  C  C59  1  0.75864910  0.19901472  0.28632542  1.0
  C  C60  1  0.88159088  0.13211664  0.25819473  1.0
  C  C61  1  0.69656952  0.31506318  0.37672424  1.0
  C  C62  1  0.73675970  0.35945820  0.43684410  1.0
  C  C63  1  0.61253347  0.42977605  0.46754858  1.0
  C  C64  1  0.42044931  0.45933268  0.43860610  1.0
  C  C65  1  0.68834152  0.47215516  0.52965153  1.0
  C  C66  1  0.32867981  0.04695161  0.12711411  1.0
  C  C67  1  0.42358798  0.02548370  0.06165465  1.0
  C  C68  1  0.61738017  0.98001282  0.05490240  1.0
  C  C69  1  0.30725581  0.04542503  0.00633664  1.0
  C  C70  1  0.01554463  0.15497708  0.84652568  1.0
  C  C71  1  0.19549679  0.22245773  0.87741287  1.0
  C  C72  1  0.41688863  0.24667739  0.84762993  1.0
  C  C73  1  0.43891942  0.20007956  0.78645602  1.0
  C  C74  1  0.24938142  0.13341376  0.75822271  1.0
  C  C75  1  0.61691435  0.31564430  0.87694715  1.0
  C  C76  1  0.62176660  0.36003859  0.93708286  1.0
  C  C77  1  0.81664431  0.43005686  0.96768240  1.0
  C  C78  1  0.03739201  0.45971744  0.93842732  1.0
  C  C79  1  0.78472314  0.47207383  0.02999886  1.0
  C  C80  1  0.71757651  0.04757745  0.62717329  1.0
  C  C81  1  0.60143211  0.02579685  0.56168148  1.0
  C  C82  1  0.36239456  0.98051673  0.55487603  1.0
  C  C83  1  0.73788535  0.04518026  0.50638927  1.0
  C  C84  1  0.86193847  0.84580059  0.65371621  1.0
  C  C85  1  0.97455152  0.77811588  0.62293208  1.0
  C  C86  1  0.17239228  0.75405535  0.65261548  1.0
  C  C87  1  0.24136920  0.80096904  0.71367386  1.0
  C  C88  1  0.11840276  0.86785224  0.74181129  1.0
  C  C89  1  0.30353145  0.68497575  0.62324764  1.0
  C  C90  1  0.26336893  0.64060513  0.56312151  1.0
  C  C91  1  0.38757979  0.57028763  0.53240304  1.0
  C  C92  1  0.57965989  0.54072281  0.56134615  1.0
  C  C93  1  0.31173785  0.52788896  0.47030878  1.0
  C  C94  1  0.67127034  0.95305818  0.87289502  1.0
  C  C95  1  0.57638122  0.97453660  0.93835311  1.0
  C  C96  1  0.38258723  0.02000389  0.94510452  1.0
  C  C97  1  0.69270960  0.95459806  0.99367237  1.0
  N  N98  1  0.95954452  0.88935704  0.21213285  1.0
  N  N99  1  0.06833855  0.10948073  0.28777710  1.0
  N  N100  1  0.04043059  0.11062660  0.78787319  1.0
  N  N101  1  0.93168589  0.89051188  0.71222791  1.0
  O  O102  1  0.41787596  0.98123725  0.32425204  1.0
  O  O103  1  0.06784119  0.91486486  0.36703817  1.0
  O  O104  1  0.43557598  0.01801900  0.17570156  1.0
  O  O105  1  0.15136773  0.08443802  0.13291754  1.0
  O  O106  1  0.58207128  0.01873199  0.67576272  1.0
  O  O107  1  0.93205497  0.08516471  0.63298358  1.0
  O  O108  1  0.56439918  0.98199595  0.82430760  1.0
  O  O109  1  0.84856827  0.91556414  0.86708793  1.0
