# generated using pymatgen
data_CuH20C14S6IN4
_symmetry_space_group_name_H-M   'P 1'
_cell_length_a   8.66116090
_cell_length_b   14.39231148
_cell_length_c   21.83393921
_cell_angle_alpha   89.99972849
_cell_angle_beta   89.99983486
_cell_angle_gamma   89.99980873
_symmetry_Int_Tables_number   1
_chemical_formula_structural   CuH20C14S6IN4
_chemical_formula_sum   'Cu4 H80 C56 S24 I4 N16'
_cell_volume   2721.69059732
_cell_formula_units_Z   4
loop_
 _symmetry_equiv_pos_site_id
 _symmetry_equiv_pos_as_xyz
  1  'x, y, z'
loop_
 _atom_site_type_symbol
 _atom_site_label
 _atom_site_symmetry_multiplicity
 _atom_site_fract_x
 _atom_site_fract_y
 _atom_site_fract_z
 _atom_site_occupancy
  Cu  Cu0  1  0.50866610  0.79349483  0.46742725  1.0
  Cu  Cu1  1  0.00867510  0.20651196  0.03256785  1.0
  Cu  Cu2  1  0.49132504  0.70651119  0.96742879  1.0
  Cu  Cu3  1  0.99133231  0.29349103  0.53256946  1.0
  H  H4  1  0.43458832  0.05084941  0.37498385  1.0
  H  H5  1  0.93459135  0.94914539  0.12501398  1.0
  H  H6  1  0.56541199  0.44915390  0.87498500  1.0
  H  H7  1  0.06540921  0.55084988  0.62501237  1.0
  H  H8  1  0.26825585  0.11108998  0.40260049  1.0
  H  H9  1  0.76825248  0.88890516  0.09739890  1.0
  H  H10  1  0.73175119  0.38891313  0.90260209  1.0
  H  H11  1  0.23174943  0.61109031  0.59739737  1.0
  H  H12  1  0.47942471  0.11412653  0.47944037  1.0
  H  H13  1  0.97942192  0.88586749  0.02055695  1.0
  H  H14  1  0.52057368  0.38587187  0.97944177  1.0
  H  H15  1  0.02058286  0.61413340  0.52055565  1.0
  H  H16  1  0.48722612  0.99012201  0.48048369  1.0
  H  H17  1  0.98722580  0.00987269  0.01951361  1.0
  H  H18  1  0.51277185  0.50987975  0.98048628  1.0
  H  H19  1  0.01277825  0.49012901  0.51950977  1.0
  H  H20  1  0.32224839  0.04909742  0.50897806  1.0
  H  H21  1  0.82224759  0.95089820  0.99101902  1.0
  H  H22  1  0.67775111  0.45090296  0.00897996  1.0
  H  H23  1  0.17776300  0.54910557  0.49101633  1.0
  H  H24  1  0.12091287  0.72856603  0.29652301  1.0
  H  H25  1  0.62090055  0.27142664  0.20347518  1.0
  H  H26  1  0.87909798  0.77143427  0.79652436  1.0
  H  H27  1  0.37907214  0.22856748  0.70347952  1.0
  H  H28  1  0.32014013  0.72943080  0.31750216  1.0
  H  H29  1  0.82013951  0.27056146  0.18249305  1.0
  H  H30  1  0.67986018  0.77056727  0.81750511  1.0
  H  H31  1  0.17984719  0.22943072  0.68249396  1.0
  H  H32  1  0.18578419  0.59468450  0.36785891  1.0
  H  H33  1  0.68578320  0.40531289  0.13214378  1.0
  H  H34  1  0.81422268  0.90531667  0.86785946  1.0
  H  H35  1  0.31422003  0.09468591  0.63214221  1.0
  H  H36  1  0.04963005  0.67162421  0.40196769  1.0
  H  H37  1  0.54962280  0.32838180  0.09803012  1.0
  H  H38  1  0.95037888  0.82838019  0.90196695  1.0
  H  H39  1  0.45037606  0.17162767  0.59803547  1.0
  H  H40  1  0.24671323  0.67711853  0.42433321  1.0
  H  H41  1  0.74670733  0.32288569  0.07566346  1.0
  H  H42  1  0.75329785  0.82288849  0.92433454  1.0
  H  H43  1  0.25329631  0.17711977  0.57566582  1.0
  H  H44  1  0.40373865  0.48520872  0.49140835  1.0
  H  H45  1  0.90373912  0.51478823  0.00859409  1.0
  H  H46  1  0.59625735  0.01478750  0.99140900  1.0
  H  H47  1  0.09627036  0.98521135  0.50859017  1.0
  H  H48  1  0.48857360  0.57781587  0.44877178  1.0
  H  H49  1  0.98857658  0.42218091  0.05122873  1.0
  H  H50  1  0.51141882  0.92218264  0.94877491  1.0
  H  H51  1  0.01142955  0.07781778  0.55122435  1.0
  H  H52  1  0.60111678  0.42399831  0.42024481  1.0
  H  H53  1  0.10110842  0.57600412  0.07975523  1.0
  H  H54  1  0.39889821  0.07599912  0.92024274  1.0
  H  H55  1  0.89890401  0.92399634  0.57975699  1.0
  H  H56  1  0.65956022  0.40375245  0.49694146  1.0
  H  H57  1  0.15955577  0.59624709  0.00305897  1.0
  H  H58  1  0.34043920  0.09624652  0.99693985  1.0
  H  H59  1  0.84045144  0.90374767  0.50305995  1.0
  H  H60  1  0.74619055  0.49583640  0.45390139  1.0
  H  H61  1  0.24618859  0.50416713  0.04610077  1.0
  H  H62  1  0.25380573  0.00416774  0.95389971  1.0
  H  H63  1  0.75381831  0.99583358  0.54610202  1.0
  H  H64  1  0.66612468  0.77579144  0.66756835  1.0
  H  H65  1  0.16613372  0.22420658  0.83243119  1.0
  H  H66  1  0.33386864  0.72420353  0.16757135  1.0
  H  H67  1  0.83386921  0.27579496  0.33243117  1.0
  H  H68  1  0.71241196  0.80880026  0.59131589  1.0
  H  H69  1  0.21241370  0.19119766  0.90868223  1.0
  H  H70  1  0.28758537  0.69119108  0.09132179  1.0
  H  H71  1  0.78758405  0.30880124  0.40868399  1.0
  H  H72  1  0.94899317  0.80737193  0.66045536  1.0
  H  H73  1  0.44899771  0.19263594  0.83954660  1.0
  H  H74  1  0.05100136  0.69263143  0.16045879  1.0
  H  H75  1  0.55100171  0.30737180  0.33954726  1.0
  H  H76  1  0.96828432  0.72792902  0.59909825  1.0
  H  H77  1  0.46827875  0.27207742  0.90090186  1.0
  H  H78  1  0.03171411  0.77207200  0.09910099  1.0
  H  H79  1  0.53171214  0.22792849  0.40090280  1.0
  H  H80  1  0.91992229  0.68685895  0.67389840  1.0
  H  H81  1  0.41992742  0.31315036  0.82610085  1.0
  H  H82  1  0.08008138  0.81314083  0.17390050  1.0
  H  H83  1  0.58007093  0.18686025  0.32610277  1.0
  C  C84  1  0.30975866  0.88469752  0.37660806  1.0
  C  C85  1  0.80975701  0.11530171  0.12338716  1.0
  C  C86  1  0.69024468  0.61530498  0.87661287  1.0
  C  C87  1  0.19023820  0.38469994  0.62339077  1.0
  C  C88  1  0.05049440  0.88015652  0.36437451  1.0
  C  C89  1  0.55049610  0.11984254  0.13562009  1.0
  C  C90  1  0.94950673  0.61984885  0.86438084  1.0
  C  C91  1  0.44950133  0.38015415  0.63562846  1.0
  C  C92  1  0.08869912  0.96620095  0.38819828  1.0
  C  C93  1  0.58869799  0.03379734  0.11180315  1.0
  C  C94  1  0.91130414  0.53379800  0.88820171  1.0
  C  C95  1  0.41130076  0.46619952  0.61179939  1.0
  C  C96  1  0.34225646  0.04990721  0.40956126  1.0
  C  C97  1  0.84225858  0.95008848  0.09043621  1.0
  C  C98  1  0.65774475  0.45009377  0.90956368  1.0
  C  C99  1  0.15774569  0.54991052  0.59043541  1.0
  C  C100  1  0.41157026  0.05027586  0.47351029  1.0
  C  C101  1  0.91157169  0.94971969  0.02648573  1.0
  C  C102  1  0.58842702  0.44972536  0.97351416  1.0
  C  C103  1  0.08843881  0.55028116  0.52648410  1.0
  C  C104  1  0.20178178  0.73603994  0.33496768  1.0
  C  C105  1  0.70177901  0.26395673  0.16503041  1.0
  C  C106  1  0.79822302  0.76396425  0.83496686  1.0
  C  C107  1  0.29820897  0.23604045  0.66503299  1.0
  C  C108  1  0.16893053  0.66557092  0.38531420  1.0
  C  C109  1  0.66892775  0.33442790  0.11468393  1.0
  C  C110  1  0.83107621  0.83443152  0.88531358  1.0
  C  C111  1  0.33107214  0.16557380  0.61468761  1.0
  C  C112  1  0.64294845  0.65020611  0.54241799  1.0
  C  C113  1  0.14294781  0.34979265  0.95758387  1.0
  C  C114  1  0.35704925  0.84979045  0.04241737  1.0
  C  C115  1  0.85705075  0.15020521  0.45758192  1.0
  C  C116  1  0.92057850  0.10620977  0.36130478  1.0
  C  C117  1  0.42057952  0.89378367  0.13869489  1.0
  C  C118  1  0.07941614  0.39378877  0.86130666  1.0
  C  C119  1  0.57942094  0.60620664  0.63869390  1.0
  C  C120  1  0.98954272  0.04467462  0.40149319  1.0
  C  C121  1  0.48954369  0.95532494  0.09850503  1.0
  C  C122  1  0.01046317  0.45532781  0.90149358  1.0
  C  C123  1  0.51045590  0.54466845  0.59850431  1.0
  C  C124  1  0.51096093  0.52389527  0.48325853  1.0
  C  C125  1  0.01096165  0.47610179  0.01674344  1.0
  C  C126  1  0.48903241  0.97610230  0.98326060  1.0
  C  C127  1  0.98904127  0.02389436  0.51673994  1.0
  C  C128  1  0.63825936  0.45814900  0.46268417  1.0
  C  C129  1  0.13825380  0.54185267  0.03731720  1.0
  C  C130  1  0.36174493  0.04184952  0.96268317  1.0
  C  C131  1  0.86175201  0.95814671  0.53731753  1.0
  C  C132  1  0.73133785  0.75564187  0.62655010  1.0
  C  C133  1  0.23134302  0.24435879  0.87344983  1.0
  C  C134  1  0.26865461  0.74435339  0.12655265  1.0
  C  C135  1  0.76865615  0.25564384  0.37344903  1.0
  C  C136  1  0.90192928  0.74315304  0.64070138  1.0
  C  C137  1  0.40192987  0.25685562  0.85929789  1.0
  C  C138  1  0.09806654  0.75684838  0.14070409  1.0
  C  C139  1  0.59806594  0.24315267  0.35929916  1.0
  S  S140  1  0.49976907  0.85734245  0.37475171  1.0
  S  S141  1  0.99976610  0.14265430  0.12524695  1.0
  S  S142  1  0.50023775  0.64266493  0.87475161  1.0
  S  S143  1  0.00022679  0.35734941  0.62524950  1.0
  S  S144  1  0.87033041  0.83667559  0.34597890  1.0
  S  S145  1  0.37033300  0.16331796  0.15401763  1.0
  S  S146  1  0.12967662  0.66332575  0.84598511  1.0
  S  S147  1  0.62966315  0.33667443  0.65402364  1.0
  S  S148  1  0.83894797  0.88600923  0.25629919  1.0
  S  S149  1  0.33895479  0.11398577  0.24369966  1.0
  S  S150  1  0.16105278  0.61399345  0.75630369  1.0
  S  S151  1  0.66104532  0.38601084  0.74370411  1.0
  S  S152  1  0.72001785  0.70752644  0.48186305  1.0
  S  S153  1  0.22003227  0.29247575  0.01813777  1.0
  S  S154  1  0.27996394  0.79247601  0.98186364  1.0
  S  S155  1  0.77997872  0.20751900  0.51813668  1.0
  S  S156  1  0.92498928  0.10671240  0.28205522  1.0
  S  S157  1  0.42500243  0.89328450  0.21794216  1.0
  S  S158  1  0.07500132  0.39329296  0.78205985  1.0
  S  S159  1  0.57500438  0.60671149  0.71793979  1.0
  S  S160  1  0.74271496  0.01434320  0.26247082  1.0
  S  S161  1  0.24273093  0.98565060  0.23752722  1.0
  S  S162  1  0.25727809  0.48565814  0.76247725  1.0
  S  S163  1  0.75727574  0.51434317  0.73752906  1.0
  I  I164  1  0.30084028  0.80750779  0.54789382  1.0
  I  I165  1  0.80085429  0.19249273  0.95210374  1.0
  I  I166  1  0.69915391  0.69249360  0.04789330  1.0
  I  I167  1  0.19914662  0.30750586  0.45210526  1.0
  N  N168  1  0.24789715  0.96772727  0.39547264  1.0
  N  N169  1  0.74789608  0.03226931  0.10452449  1.0
  N  N170  1  0.75210375  0.53227510  0.89547626  1.0
  N  N171  1  0.25210042  0.46772900  0.60452456  1.0
  N  N172  1  0.18829364  0.83142066  0.35720906  1.0
  N  N173  1  0.68829271  0.16857812  0.14278767  1.0
  N  N174  1  0.81170638  0.66858337  0.85721310  1.0
  N  N175  1  0.31169774  0.33142060  0.64279177  1.0
  N  N176  1  0.55079127  0.57252585  0.53990327  1.0
  N  N177  1  0.05079366  0.42747380  0.96009594  1.0
  N  N178  1  0.44919835  0.92747143  0.03990505  1.0
  N  N179  1  0.94920603  0.07252474  0.46009413  1.0
  N  N180  1  0.65886982  0.67102394  0.60323886  1.0
  N  N181  1  0.15886743  0.32897340  0.89676069  1.0
  N  N182  1  0.34113089  0.82896941  0.10323877  1.0
  N  N183  1  0.84113041  0.17102628  0.39676007  1.0
