# generated using pymatgen
data_Zn4H36C36O13
_symmetry_space_group_name_H-M   'P 1'
_cell_length_a   18.32847368
_cell_length_b   18.32982412
_cell_length_c   18.33013525
_cell_angle_alpha   119.99763046
_cell_angle_beta   119.99103256
_cell_angle_gamma   90.00428711
_symmetry_Int_Tables_number   1
_chemical_formula_structural   Zn4H36C36O13
_chemical_formula_sum   'Zn8 H72 C72 O26'
_cell_volume   4355.05286876
_cell_formula_units_Z   2
loop_
 _symmetry_equiv_pos_site_id
 _symmetry_equiv_pos_as_xyz
  1  'x, y, z'
loop_
 _atom_site_type_symbol
 _atom_site_label
 _atom_site_symmetry_multiplicity
 _atom_site_fract_x
 _atom_site_fract_y
 _atom_site_fract_z
 _atom_site_occupancy
  Zn  Zn0  1  0.29345873  0.70652146  0.41209003  1.0
  Zn  Zn1  1  0.29317718  0.88082444  0.58708969  1.0
  Zn  Zn2  1  0.11868900  0.70568013  0.41264913  1.0
  Zn  Zn3  1  0.29453950  0.70646961  0.58770120  1.0
  Zn  Zn4  1  0.70559945  0.11847653  0.41206020  1.0
  Zn  Zn5  1  0.70609573  0.29413842  0.58713333  1.0
  Zn  Zn6  1  0.88108775  0.29310221  0.58753818  1.0
  Zn  Zn7  1  0.70707617  0.29398136  0.41281657  1.0
  H  H8  1  0.28171427  0.37439886  0.28104548  1.0
  H  H9  1  0.27236313  0.46916056  0.36931964  1.0
  H  H10  1  0.28258103  0.37815881  0.37986154  1.0
  H  H11  1  0.00044502  0.90848382  0.62806648  1.0
  H  H12  1  0.10148516  0.00011358  0.71934058  1.0
  H  H13  1  0.09416981  0.89639331  0.62388606  1.0
  H  H14  1  0.10864387  0.99783077  0.38820712  1.0
  H  H15  1  0.00197679  0.91546151  0.28218208  1.0
  H  H16  1  0.08638636  0.88931098  0.35931407  1.0
  H  H17  1  0.53888064  0.72444679  0.59522529  1.0
  H  H18  1  0.64745770  0.72228134  0.66590000  1.0
  H  H19  1  0.57520081  0.72251305  0.70362061  1.0
  H  H20  1  0.01982076  0.72218117  0.07399202  1.0
  H  H21  1  0.12912077  0.72300846  0.15033325  1.0
  H  H22  1  0.05325295  0.72387895  0.18350796  1.0
  H  H23  1  0.27247954  0.89864706  0.80226326  1.0
  H  H24  1  0.28018505  0.99971281  0.90115722  1.0
  H  H25  1  0.28122518  0.90563086  0.90630000  1.0
  H  H26  1  0.63353175  0.99850651  0.91404241  1.0
  H  H27  1  0.53021366  0.91433939  0.80314890  1.0
  H  H28  1  0.60961526  0.89150734  0.88891788  1.0
  H  H29  1  0.99928346  0.38040607  0.09875654  1.0
  H  H30  1  0.10289969  0.46877568  0.19635403  1.0
  H  H31  1  0.09065792  0.37197442  0.08899885  1.0
  H  H32  1  0.52984085  0.90375085  0.63124062  1.0
  H  H33  1  0.62591348  0.99974755  0.71915352  1.0
  H  H34  1  0.62010530  0.90063092  0.61933956  1.0
  H  H35  1  0.01337417  0.72154895  0.59589602  1.0
  H  H36  1  0.12584780  0.72518041  0.66178200  1.0
  H  H37  1  0.06169425  0.72165005  0.70724468  1.0
  H  H38  1  0.11009357  0.46884420  0.38288421  1.0
  H  H39  1  0.00061012  0.39045318  0.28194994  1.0
  H  H40  1  0.08227745  0.36546101  0.36350869  1.0
  H  H41  1  0.27900799  0.88681448  0.28346352  1.0
  H  H42  1  0.28001985  0.99630041  0.35923882  1.0
  H  H43  1  0.27338036  0.91966774  0.38882113  1.0
  H  H44  1  0.72357955  0.13109414  0.16441875  1.0
  H  H45  1  0.71976329  0.03038289  0.06801701  1.0
  H  H46  1  0.72250374  0.03692397  0.16909784  1.0
  H  H47  1  0.97077312  0.65041916  0.92809204  1.0
  H  H48  1  0.86833597  0.56041136  0.83665130  1.0
  H  H49  1  0.95928868  0.54900779  0.82623557  1.0
  H  H50  1  0.99934919  0.28140580  0.89134994  1.0
  H  H51  1  0.88956319  0.27267424  0.80498089  1.0
  H  H52  1  0.91897394  0.28290904  0.91836176  1.0
  H  H53  1  0.34991213  0.04994416  0.06870835  1.0
  H  H54  1  0.45626146  0.12884549  0.18074313  1.0
  H  H55  1  0.42598275  0.01949748  0.14770559  1.0
  H  H56  1  0.87141139  0.05249484  0.59611390  1.0
  H  H57  1  0.98075572  0.12892930  0.70206235  1.0
  H  H58  1  0.95066601  0.01990353  0.66985604  1.0
  H  H59  1  0.72246411  0.65064176  0.68513594  1.0
  H  H60  1  0.72410666  0.55217811  0.59206578  1.0
  H  H61  1  0.72204314  0.55653189  0.68969920  1.0
  H  H62  1  0.46754388  0.27285065  0.35560726  1.0
  H  H63  1  0.36317491  0.28253396  0.28424964  1.0
  H  H64  1  0.39254065  0.28150227  0.39144171  1.0
  H  H65  1  0.97275821  0.13187406  0.41014190  1.0
  H  H66  1  0.86944973  0.04324287  0.31907301  1.0
  H  H67  1  0.96036953  0.02881156  0.30890257  1.0
  H  H68  1  0.44775021  0.13113498  0.40694187  1.0
  H  H69  1  0.34862030  0.03728839  0.31689452  1.0
  H  H70  1  0.44063671  0.03005285  0.30821433  1.0
  H  H71  1  0.87003962  0.57215002  0.59134217  1.0
  H  H72  1  0.97835317  0.64878600  0.70016737  1.0
  H  H73  1  0.94549148  0.54142594  0.67032764  1.0
  H  H74  1  0.99508991  0.28147997  0.35509154  1.0
  H  H75  1  0.88489905  0.28094325  0.28426808  1.0
  H  H76  1  0.92222513  0.27325602  0.38924405  1.0
  H  H77  1  0.72523570  0.12614306  0.66618602  1.0
  H  H78  1  0.72090609  0.01406719  0.59496947  1.0
  H  H79  1  0.71867008  0.05587048  0.70407622  1.0
  C  C80  1  0.38974242  0.61116299  0.49988351  1.0
  C  C81  1  0.44759630  0.55327650  0.49952102  1.0
  C  C82  1  0.11028407  0.88870236  0.49940492  1.0
  C  C83  1  0.05218972  0.94631089  0.49918631  1.0
  C  C84  1  0.11044006  0.61105550  0.22130670  1.0
  C  C85  1  0.05240051  0.55323959  0.10558243  1.0
  C  C86  1  0.38925095  0.88934736  0.77848681  1.0
  C  C87  1  0.44715755  0.94750897  0.89415907  1.0
  C  C88  1  0.38916551  0.88948392  0.50013299  1.0
  C  C89  1  0.44697944  0.94781046  0.50056288  1.0
  C  C90  1  0.11144073  0.61093539  0.50096722  1.0
  C  C91  1  0.05412316  0.55309244  0.50155927  1.0
  C  C92  1  0.61066959  0.11085099  0.22122478  1.0
  C  C93  1  0.55278241  0.05326183  0.10543156  1.0
  C  C94  1  0.88912634  0.38978305  0.77859004  1.0
  C  C95  1  0.94683446  0.44764669  0.89434545  1.0
  C  C96  1  0.88879328  0.10999185  0.49926238  1.0
  C  C97  1  0.94644199  0.05184202  0.49905954  1.0
  C  C98  1  0.61120584  0.38992642  0.50001589  1.0
  C  C99  1  0.55322577  0.44771186  0.49956879  1.0
  C  C100  1  0.61046294  0.11107502  0.50023305  1.0
  C  C101  1  0.55262687  0.05359687  0.50072417  1.0
  C  C102  1  0.89013394  0.38970670  0.50113722  1.0
  C  C103  1  0.94856860  0.44755986  0.50164644  1.0
  C  C104  1  0.40604735  0.46044695  0.43260461  1.0
  C  C105  1  0.30572934  0.41884336  0.36243473  1.0
  C  C106  1  0.02657273  0.97208720  0.56668957  1.0
  C  C107  1  0.05724688  0.94275190  0.63791378  1.0
  C  C108  1  0.02646224  0.97195033  0.43163729  1.0
  C  C109  1  0.05735552  0.94213653  0.36188391  1.0
  C  C110  1  0.54101686  0.59534940  0.56712582  1.0
  C  C111  1  0.57798657  0.69617112  0.63662648  1.0
  C  C112  1  0.02643681  0.59529011  0.05420116  1.0
  C  C113  1  0.05845130  0.69613005  0.11813777  1.0
  C  C114  1  0.40543390  0.97307200  0.94553788  1.0
  C  C115  1  0.30488298  0.94264693  0.88573109  1.0
  C  C116  1  0.54035528  0.97345484  0.94554701  1.0
  C  C117  1  0.58036949  0.94297851  0.88489924  1.0
  C  C118  1  0.02701509  0.46042375  0.05427660  1.0
  C  C119  1  0.05668492  0.41870314  0.11286096  1.0
  C  C120  1  0.54003385  0.97336931  0.56782056  1.0
  C  C121  1  0.58079732  0.94274902  0.63770459  1.0
  C  C122  1  0.02848678  0.59511717  0.56925050  1.0
  C  C123  1  0.05878540  0.69586004  0.63717549  1.0
  C  C124  1  0.02830511  0.46015036  0.43408105  1.0
  C  C125  1  0.05691164  0.41943619  0.36225769  1.0
  C  C126  1  0.40512689  0.97377583  0.43329548  1.0
  C  C127  1  0.30444519  0.94268868  0.36277997  1.0
  C  C128  1  0.59452209  0.02727264  0.05402250  1.0
  C  C129  1  0.69523233  0.05774147  0.11650770  1.0
  C  C130  1  0.97284733  0.54108589  0.94580149  1.0
  C  C131  1  0.94152563  0.57774227  0.88163712  1.0
  C  C132  1  0.97228100  0.40611169  0.94562262  1.0
  C  C133  1  0.94330076  0.30579983  0.88686262  1.0
  C  C134  1  0.45974306  0.02777257  0.05404651  1.0
  C  C135  1  0.42062411  0.05802439  0.11556187  1.0
  C  C136  1  0.97212874  0.02619919  0.56645994  1.0
  C  C137  1  0.94225507  0.05813553  0.63723240  1.0
  C  C138  1  0.59522096  0.54112352  0.56752217  1.0
  C  C139  1  0.69602993  0.57764074  0.63734472  1.0
  C  C140  1  0.46040924  0.40612680  0.43234633  1.0
  C  C141  1  0.41914306  0.30579072  0.36243496  1.0
  C  C142  1  0.97242312  0.02641850  0.43190254  1.0
  C  C143  1  0.94237544  0.05886788  0.36365908  1.0
  C  C144  1  0.45944088  0.02766674  0.43299592  1.0
  C  C145  1  0.42161489  0.05791589  0.36252718  1.0
  C  C146  1  0.97409399  0.54087369  0.56911602  1.0
  C  C147  1  0.94074842  0.57814583  0.63650836  1.0
  C  C148  1  0.97407197  0.40585749  0.43421559  1.0
  C  C149  1  0.94262530  0.30542624  0.36240462  1.0
  C  C150  1  0.59427762  0.02801130  0.56813339  1.0
  C  C151  1  0.69485389  0.05759233  0.63713097  1.0
  O  O152  1  0.24987357  0.74962603  0.49969609  1.0
  O  O153  1  0.74988461  0.24966375  0.49971429  1.0
  O  O154  1  0.36650180  0.63249499  0.43695709  1.0
  O  O155  1  0.19438468  0.92902443  0.56112870  1.0
  O  O156  1  0.07041859  0.80445523  0.43775699  1.0
  O  O157  1  0.36890357  0.63386580  0.56311493  1.0
  O  O158  1  0.19453654  0.63417784  0.26509693  1.0
  O  O159  1  0.36811590  0.80523700  0.73472818  1.0
  O  O160  1  0.36619416  0.92917986  0.73409674  1.0
  O  O161  1  0.07052674  0.63189882  0.26561844  1.0
  O  O162  1  0.36686123  0.80540387  0.43731667  1.0
  O  O163  1  0.07073719  0.63320041  0.43921441  1.0
  O  O164  1  0.19574776  0.63264515  0.56217892  1.0
  O  O165  1  0.36746149  0.92916049  0.56269059  1.0
  O  O166  1  0.63142517  0.07044522  0.26492482  1.0
  O  O167  1  0.80489971  0.36859555  0.73430057  1.0
  O  O168  1  0.92934623  0.36682695  0.73467036  1.0
  O  O169  1  0.63394147  0.19507476  0.26563505  1.0
  O  O170  1  0.80453715  0.07018723  0.43669328  1.0
  O  O171  1  0.63389873  0.36802644  0.43843005  1.0
  O  O172  1  0.63261970  0.36775571  0.56192069  1.0
  O  O173  1  0.92918582  0.19408607  0.56197751  1.0
  O  O174  1  0.63281696  0.07055469  0.43849154  1.0
  O  O175  1  0.92962202  0.36722184  0.56296817  1.0
  O  O176  1  0.80609905  0.36807124  0.43882934  1.0
  O  O177  1  0.63212464  0.19533503  0.56157447  1.0
