# generated using pymatgen
data_Zn4H8C28S2Cl6O13
_symmetry_space_group_name_H-M   'P 1'
_cell_length_a   18.40758797
_cell_length_b   19.62466108
_cell_length_c   32.67725609
_cell_angle_alpha   78.71764572
_cell_angle_beta   73.64573199
_cell_angle_gamma   62.07052664
_symmetry_Int_Tables_number   1
_chemical_formula_structural   Zn4H8C28S2Cl6O13
_chemical_formula_sum   'Zn16 H32 C112 S8 Cl24 O52'
_cell_volume   9979.16814136
_cell_formula_units_Z   4
loop_
 _symmetry_equiv_pos_site_id
 _symmetry_equiv_pos_as_xyz
  1  'x, y, z'
loop_
 _atom_site_type_symbol
 _atom_site_label
 _atom_site_symmetry_multiplicity
 _atom_site_fract_x
 _atom_site_fract_y
 _atom_site_fract_z
 _atom_site_occupancy
  Zn  Zn0  1  0.57807229  0.54779091  0.48192435  1.0
  Zn  Zn1  1  0.47410897  0.47908433  0.56126307  1.0
  Zn  Zn2  1  0.54863855  0.39983721  0.47531663  1.0
  Zn  Zn3  1  0.39073955  0.56810742  0.48433021  1.0
  Zn  Zn4  1  0.19016383  0.18519628  0.26180391  1.0
  Zn  Zn5  1  0.17327086  0.35040985  0.27362533  1.0
  Zn  Zn6  1  0.28661126  0.26741394  0.18727253  1.0
  Zn  Zn7  1  0.34796623  0.19981828  0.27572998  1.0
  Zn  Zn8  1  0.77902007  0.75157006  0.68602659  1.0
  Zn  Zn9  1  0.85076960  0.68587665  0.77235975  1.0
  Zn  Zn10  1  0.67259764  0.70192270  0.77284444  1.0
  Zn  Zn11  1  0.70257557  0.85203588  0.76921281  1.0
  Zn  Zn12  1  0.07427210  0.90327983  0.97228707  1.0
  Zn  Zn13  1  0.88607877  0.04586839  0.98571312  1.0
  Zn  Zn14  1  0.05213424  0.07021253  0.97603531  1.0
  Zn  Zn15  1  0.98930016  0.98578858  0.06086361  1.0
  H  H16  1  0.98204837  0.45297331  0.37657307  1.0
  H  H17  1  0.93204534  0.50085393  0.33294045  1.0
  H  H18  1  0.78987390  0.54939355  0.38424659  1.0
  H  H19  1  0.83975376  0.50186326  0.42800774  1.0
  H  H20  1  0.97590000  0.66207770  0.57655417  1.0
  H  H21  1  0.96955436  0.75494222  0.57824565  1.0
  H  H22  1  0.11300219  0.71576241  0.52837701  1.0
  H  H23  1  0.11831888  0.62346903  0.52601429  1.0
  H  H24  1  0.68834632  0.75283188  0.57660583  1.0
  H  H25  1  0.77953902  0.66248482  0.57649991  1.0
  H  H26  1  0.73225315  0.61385655  0.52759128  1.0
  H  H27  1  0.64068659  0.70401768  0.52783269  1.0
  H  H28  1  0.46621901  0.20169230  0.36866620  1.0
  H  H29  1  0.51241986  0.24522401  0.32264512  1.0
  H  H30  1  0.56188324  0.29520786  0.36987047  1.0
  H  H31  1  0.51611977  0.25132026  0.41585021  1.0
  H  H32  1  0.97328958  0.09613984  0.16786110  1.0
  H  H33  1  0.06267411  0.00439769  0.16830224  1.0
  H  H34  1  0.11341127  0.05128254  0.21619343  1.0
  H  H35  1  0.02540022  0.14373653  0.21499716  1.0
  H  H36  1  0.63226819  0.19682842  0.03223501  1.0
  H  H37  1  0.62840581  0.10708497  0.03457355  1.0
  H  H38  1  0.48292734  0.16134976  0.08259892  1.0
  H  H39  1  0.48728844  0.25069937  0.08083218  1.0
  H  H40  1  0.72553272  0.01327341  0.92825876  1.0
  H  H41  1  0.77274237  0.05988700  0.88440074  1.0
  H  H42  1  0.72695638  0.01452272  0.83324745  1.0
  H  H43  1  0.67722196  0.97025649  0.87731065  1.0
  H  H44  1  0.32314917  0.74875790  0.91409227  1.0
  H  H45  1  0.27552944  0.79419858  0.86940214  1.0
  H  H46  1  0.41954543  0.74865948  0.81973999  1.0
  H  H47  1  0.46709178  0.70222056  0.86431506  1.0
  C  C48  1  0.56206579  0.56392564  0.57182051  1.0
  C  C49  1  0.55565118  0.31169893  0.55823316  1.0
  C  C50  1  0.70556024  0.41554987  0.43265491  1.0
  C  C51  1  0.40931167  0.44981333  0.43359113  1.0
  C  C52  1  0.45569762  0.68137008  0.43876168  1.0
  C  C53  1  0.29383905  0.57209634  0.56996787  1.0
  C  C54  1  0.03728493  0.30293885  0.31244232  1.0
  C  C55  1  0.18512863  0.43702402  0.18941860  1.0
  C  C56  1  0.20500553  0.17978583  0.17010841  1.0
  C  C57  1  0.46544621  0.18191202  0.19082389  1.0
  C  C58  1  0.30978018  0.06840108  0.31354498  1.0
  C  C59  1  0.29427624  0.33513192  0.32236423  1.0
  C  C60  1  0.95959215  0.67401004  0.68611719  1.0
  C  C61  1  0.79258048  0.56823831  0.81442073  1.0
  C  C62  1  0.67314768  0.67764232  0.68561143  1.0
  C  C63  1  0.54802463  0.83847468  0.81874265  1.0
  C  C64  1  0.70407947  0.92180220  0.67960183  1.0
  C  C65  1  0.82891242  0.81122857  0.81707662  1.0
  C  C66  1  0.94442878  0.92158064  0.92982034  1.0
  C  C67  1  0.90415429  0.18112279  0.93804445  1.0
  C  C68  1  0.20865240  0.95009539  0.93107410  1.0
  C  C69  1  0.07877082  0.07661611  0.05884353  1.0
  C  C70  1  0.06578721  0.81625827  0.05669026  1.0
  C  C71  1  0.80450154  0.06167449  0.07748450  1.0
  C  C72  1  0.46949793  0.80664492  0.40161122  1.0
  C  C73  1  0.30076491  0.94166349  0.34954029  1.0
  C  C74  1  0.43171767  0.75656470  0.41361503  1.0
  C  C75  1  0.33740900  0.99264365  0.33799781  1.0
  C  C76  1  0.34881407  0.87420702  0.37289521  1.0
  C  C77  1  0.42154197  0.87460271  0.37839318  1.0
  C  C78  1  0.57960315  0.21743588  0.62568663  1.0
  C  C79  1  0.68409616  0.01331527  0.60977588  1.0
  C  C80  1  0.58467027  0.23549041  0.58188663  1.0
  C  C81  1  0.67745964  0.99608373  0.65370653  1.0
  C  C82  1  0.64769689  0.09431399  0.59936522  1.0
  C  C83  1  0.61523079  0.13652428  0.63564795  1.0
  C  C84  1  0.95240589  0.32557295  0.34212286  1.0
  C  C85  1  0.78852822  0.38168366  0.40163704  1.0
  C  C86  1  0.91534446  0.39558573  0.36092864  1.0
  C  C87  1  0.82408301  0.31015685  0.38271074  1.0
  C  C88  1  0.83720773  0.42232408  0.38927963  1.0
  C  C89  1  0.90418778  0.28269060  0.35379489  1.0
  C  C90  1  0.92821261  0.46544135  0.36323273  1.0
  C  C91  1  0.83935536  0.49587397  0.39535349  1.0
  C  C92  1  0.04709072  0.64858359  0.65934647  1.0
  C  C93  1  0.21169004  0.60178225  0.60158016  1.0
  C  C94  1  0.05813456  0.66086214  0.61497524  1.0
  C  C95  1  0.20287171  0.59067139  0.64664849  1.0
  C  C96  1  0.13689559  0.63905798  0.58726808  1.0
  C  C97  1  0.12261389  0.61276071  0.67500752  1.0
  C  C98  1  0.01140635  0.69260463  0.57891699  1.0
  C  C99  1  0.10097263  0.66797430  0.54744785  1.0
  C  C100  1  0.63945301  0.64875046  0.65966742  1.0
  C  C101  1  0.58636944  0.59101369  0.60330327  1.0
  C  C102  1  0.66191188  0.65755265  0.61518419  1.0
  C  C103  1  0.56218786  0.58090336  0.64862967  1.0
  C  C104  1  0.63640179  0.63018178  0.58829270  1.0
  C  C105  1  0.58697323  0.61015251  0.67616272  1.0
  C  C106  1  0.71128951  0.68985647  0.57846594  1.0
  C  C107  1  0.68180241  0.65920878  0.54791021  1.0
  C  C108  1  0.31730182  0.37090590  0.35012812  1.0
  C  C109  1  0.37449238  0.42797434  0.40476986  1.0
  C  C110  1  0.39542926  0.32923618  0.36123668  1.0
  C  C111  1  0.29500924  0.47284273  0.39338861  1.0
  C  C112  1  0.42272660  0.35651275  0.38727882  1.0
  C  C113  1  0.26694715  0.44491279  0.36682873  1.0
  C  C114  1  0.47518037  0.25388957  0.35561635  1.0
  C  C115  1  0.50619576  0.28496947  0.38515553  1.0
  C  C116  1  0.11140205  0.58673555  0.17776745  1.0
  C  C117  1  0.13472803  0.66631881  0.06802408  1.0
  C  C118  1  0.15947282  0.51208362  0.16431437  1.0
  C  C119  1  0.08806775  0.74099698  0.08153362  1.0
  C  C120  1  0.14354243  0.61005500  0.10318253  1.0
  C  C121  1  0.10268518  0.64300856  0.14262609  1.0
  C  C122  1  0.11544764  0.10378103  0.08400892  1.0
  C  C123  1  0.17810308  0.15487422  0.13875497  1.0
  C  C124  1  0.09347154  0.09600633  0.12846193  1.0
  C  C125  1  0.20300951  0.16236356  0.09335127  1.0
  C  C126  1  0.12280234  0.12104253  0.15461005  1.0
  C  C127  1  0.17195292  0.13780152  0.06666648  1.0
  C  C128  1  0.04164842  0.06714922  0.16571658  1.0
  C  C129  1  0.07422881  0.09633398  0.19544903  1.0
  C  C130  1  0.72187123  0.08910248  0.10928714  1.0
  C  C131  1  0.55432864  0.15015267  0.16522466  1.0
  C  C132  1  0.64786272  0.12709517  0.09408718  1.0
  C  C133  1  0.62862089  0.11159540  0.18187638  1.0
  C  C134  1  0.56792560  0.15662322  0.12073549  1.0
  C  C135  1  0.71033709  0.08140390  0.15460282  1.0
  C  C136  1  0.61431130  0.15388020  0.05357359  1.0
  C  C137  1  0.52348918  0.18754182  0.08380736  1.0
  C  C138  1  0.88828937  0.44094245  0.85063424  1.0
  C  C139  1  0.80038792  0.30675145  0.90102749  1.0
  C  C140  1  0.81312870  0.49257173  0.83846920  1.0
  C  C141  1  0.87588811  0.25655487  0.91330266  1.0
  C  C142  1  0.80414558  0.37482588  0.87812303  1.0
  C  C143  1  0.88282230  0.37386855  0.87342579  1.0
  C  C144  1  0.92086855  0.88839681  0.90098767  1.0
  C  C145  1  0.86474855  0.83556520  0.84406108  1.0
  C  C146  1  0.84348881  0.93173156  0.88928592  1.0
  C  C147  1  0.94426698  0.78995681  0.85517381  1.0
  C  C148  1  0.81707774  0.90691706  0.86156223  1.0
  C  C149  1  0.97161087  0.81558362  0.88312158  1.0
  C  C150  1  0.76388902  0.00715548  0.89547358  1.0
  C  C151  1  0.73414570  0.97924710  0.86368228  1.0
  C  C152  1  0.29603130  0.92660883  0.90427823  1.0
  C  C153  1  0.46320060  0.87234756  0.84816350  1.0
  C  C154  1  0.33693769  0.85541315  0.88652641  1.0
  C  C155  1  0.42402521  0.94466149  0.86652048  1.0
  C  C156  1  0.41640819  0.82987998  0.85937285  1.0
  C  C157  1  0.34224338  0.97125113  0.89376751  1.0
  C  C158  1  0.32739934  0.78395057  0.88374420  1.0
  C  C159  1  0.41752487  0.75509084  0.85273347  1.0
  S  S160  1  0.33814663  0.79215839  0.39631685  1.0
  S  S161  1  0.43053120  0.95789797  0.35567430  1.0
  S  S162  1  0.63302473  0.15354692  0.55307185  1.0
  S  S163  1  0.62735863  0.07834282  0.68219786  1.0
  S  S164  1  0.19364517  0.51078209  0.10887779  1.0
  S  S165  1  0.05454097  0.74233272  0.13699796  1.0
  S  S166  1  0.73611167  0.45881992  0.85500007  1.0
  S  S167  1  0.95142277  0.29180925  0.89677594  1.0
  Cl  Cl168  1  0.56134934  0.79174401  0.41272084  1.0
  Cl  Cl169  1  0.20920737  0.95519590  0.33879938  1.0
  Cl  Cl170  1  0.53580570  0.28086643  0.66446477  1.0
  Cl  Cl171  1  0.72891139  0.94806149  0.57178964  1.0
  Cl  Cl172  1  0.06801975  0.61177567  0.22929046  1.0
  Cl  Cl173  1  0.17828307  0.64133417  0.01652134  1.0
  Cl  Cl174  1  0.97777745  0.45269757  0.84140926  1.0
  Cl  Cl175  1  0.71291156  0.29104863  0.91156125  1.0
  Cl  Cl176  1  0.77079217  0.25411436  0.39322657  1.0
  Cl  Cl177  1  0.94091448  0.19553127  0.33292690  1.0
  Cl  Cl178  1  0.29052652  0.55321833  0.66809986  1.0
  Cl  Cl179  1  0.12063274  0.59282639  0.72882609  1.0
  Cl  Cl180  1  0.50422134  0.53014070  0.67229240  1.0
  Cl  Cl181  1  0.55036024  0.59743274  0.73029403  1.0
  Cl  Cl182  1  0.23012737  0.56406808  0.41066030  1.0
  Cl  Cl183  1  0.16976739  0.50446921  0.35517624  1.0
  Cl  Cl184  1  0.27357572  0.20003723  0.06865036  1.0
  Cl  Cl185  1  0.20784413  0.14672966  0.01225887  1.0
  Cl  Cl186  1  0.62253953  0.10151309  0.23610682  1.0
  Cl  Cl187  1  0.79548683  0.03283797  0.17835342  1.0
  Cl  Cl188  1  0.01191030  0.70314914  0.83315659  1.0
  Cl  Cl189  1  0.06717699  0.75411386  0.89610415  1.0
  Cl  Cl190  1  0.47383645  0.00368527  0.85598332  1.0
  Cl  Cl191  1  0.30149766  0.05879589  0.91483374  1.0
  O  O192  1  0.50017199  0.50009484  0.49897506  1.0
  O  O193  1  0.60502229  0.56241412  0.53329564  1.0
  O  O194  1  0.53350120  0.36985735  0.57879682  1.0
  O  O195  1  0.66682965  0.37405577  0.44830697  1.0
  O  O196  1  0.50076286  0.54621193  0.58500499  1.0
  O  O197  1  0.68100916  0.48504953  0.44125459  1.0
  O  O198  1  0.55567973  0.31293436  0.51888092  1.0
  O  O199  1  0.48684774  0.40485442  0.43402882  1.0
  O  O200  1  0.40272203  0.65321094  0.44498318  1.0
  O  O201  1  0.36170546  0.50789707  0.45558005  1.0
  O  O202  1  0.52398404  0.65141198  0.45191742  1.0
  O  O203  1  0.35299798  0.50884645  0.58034562  1.0
  O  O204  1  0.29688041  0.61106820  0.53373382  1.0
  O  O205  1  0.24962307  0.25047984  0.24939796  1.0
  O  O206  1  0.07539435  0.23778703  0.29644266  1.0
  O  O207  1  0.15358784  0.43682876  0.22949501  1.0
  O  O208  1  0.24522363  0.22054400  0.15678145  1.0
  O  O209  1  0.06479993  0.35400806  0.30592982  1.0
  O  O210  1  0.18294882  0.15748619  0.20915985  1.0
  O  O211  1  0.23742440  0.37819138  0.16806306  1.0
  O  O212  1  0.40971759  0.22617520  0.16915916  1.0
  O  O213  1  0.35182026  0.10598276  0.31200531  1.0
  O  O214  1  0.45125981  0.16244990  0.23060777  1.0
  O  O215  1  0.24795432  0.08963115  0.29607204  1.0
  O  O216  1  0.22134607  0.36963773  0.31419198  1.0
  O  O217  1  0.35258353  0.27001961  0.30912216  1.0
  O  O218  1  0.75005367  0.74904476  0.74864366  1.0
  O  O219  1  0.90194995  0.69367689  0.66554867  1.0
  O  O220  1  0.85330767  0.58643048  0.79790621  1.0
  O  O221  1  0.65708420  0.66516992  0.72596383  1.0
  O  O222  1  0.94842637  0.67543238  0.72618503  1.0
  O  O223  1  0.71762839  0.71233777  0.66396259  1.0
  O  O224  1  0.71533115  0.60904508  0.81196638  1.0
  O  O225  1  0.56454073  0.77659612  0.80304511  1.0
  O  O226  1  0.68207852  0.92847229  0.72005601  1.0
  O  O227  1  0.59659053  0.87086444  0.81168276  1.0
  O  O228  1  0.74517544  0.85944468  0.66059983  1.0
  O  O229  1  0.84952186  0.73955352  0.81748350  1.0
  O  O230  1  0.77666545  0.86616823  0.79671715  1.0
  O  O231  1  0.99812124  0.00122499  0.99888539  1.0
  O  O232  1  0.02201582  0.89718968  0.92928039  1.0
  O  O233  1  0.85522156  0.14854933  0.95264731  1.0
  O  O234  1  0.16156932  0.02123389  0.93695443  1.0
  O  O235  1  0.88235233  0.97476028  0.95217091  1.0
  O  O236  1  0.18770075  0.89467249  0.94518086  1.0
  O  O237  1  0.97988722  0.15513919  0.94245919  1.0
  O  O238  1  0.06791387  0.10962156  0.02200874  1.0
  O  O239  1  0.02591131  0.87525718  0.07905828  1.0
  O  O240  1  0.05888282  0.02224292  0.07791343  1.0
  O  O241  1  0.08776398  0.81637771  0.01607677  1.0
  O  O242  1  0.79966729  0.05967907  0.03946038  1.0
  O  O243  1  0.87131909  0.04452483  0.08962180  1.0
