# generated using pymatgen
data_ZnH17C19I2NO6
_symmetry_space_group_name_H-M   'P 1'
_cell_length_a   9.58790804
_cell_length_b   10.94908185
_cell_length_c   16.10265969
_cell_angle_alpha   93.04603356
_cell_angle_beta   93.68174019
_cell_angle_gamma   92.25710355
_symmetry_Int_Tables_number   1
_chemical_formula_structural   ZnH17C19I2NO6
_chemical_formula_sum   'Zn2 H34 C38 I4 N2 O12'
_cell_volume   1683.01138359
_cell_formula_units_Z   2
loop_
 _symmetry_equiv_pos_site_id
 _symmetry_equiv_pos_as_xyz
  1  'x, y, z'
loop_
 _atom_site_type_symbol
 _atom_site_label
 _atom_site_symmetry_multiplicity
 _atom_site_fract_x
 _atom_site_fract_y
 _atom_site_fract_z
 _atom_site_occupancy
  Zn  Zn0  1  0.35687917  0.49262319  0.49774784  1.0
  Zn  Zn1  1  0.64384708  0.50272360  0.50422115  1.0
  H  H2  1  0.69378387  0.62615434  0.07814826  1.0
  H  H3  1  0.29885039  0.39621128  0.92623282  1.0
  H  H4  1  0.84667756  0.46136412  0.37490822  1.0
  H  H5  1  0.15415270  0.53363916  0.62784961  1.0
  H  H6  1  0.11472387  0.45433891  0.37246677  1.0
  H  H7  1  0.88626913  0.54072792  0.63027000  1.0
  H  H8  1  0.10723151  0.54508312  0.95551342  1.0
  H  H9  1  0.20873775  0.67918363  0.93470057  1.0
  H  H10  1  0.99624928  0.66847735  0.06880123  1.0
  H  H11  1  0.09345779  0.79989291  0.04329913  1.0
  H  H12  1  0.97575658  0.78345531  0.89696437  1.0
  H  H13  1  0.85029111  0.79549658  0.97273928  1.0
  H  H14  1  0.87752627  0.65125802  0.92230779  1.0
  H  H15  1  0.78549771  0.33854711  0.06592099  1.0
  H  H16  1  0.88757840  0.47309965  0.04663786  1.0
  H  H17  1  0.89607487  0.22157585  0.95350479  1.0
  H  H18  1  0.99324579  0.35382566  0.92943802  1.0
  H  H19  1  0.11722368  0.36389515  0.07448258  1.0
  H  H20  1  0.14193087  0.22201693  0.02013094  1.0
  H  H21  1  0.01973894  0.23033345  0.09798247  1.0
  H  H22  1  0.91585132  0.80894551  0.55826387  1.0
  H  H23  1  0.75042906  0.77810273  0.59925466  1.0
  H  H24  1  0.93067858  0.01732284  0.62069237  1.0
  H  H25  1  0.75338709  0.00916410  0.64473431  1.0
  H  H26  1  0.80159996  0.85369400  0.74949146  1.0
  H  H27  1  0.91239559  0.98669885  0.77286765  1.0
  H  H28  1  0.98032329  0.85344148  0.72647426  1.0
  H  H29  1  0.38582260  0.25458374  0.66239241  1.0
  H  H30  1  0.33977873  0.11032068  0.70371297  1.0
  H  H31  1  0.13136065  0.29429771  0.63967799  1.0
  H  H32  1  0.08749081  0.15417549  0.68294547  1.0
  H  H33  1  0.21267793  0.22955764  0.82054779  1.0
  H  H34  1  0.07996910  0.32976893  0.79011085  1.0
  H  H35  1  0.25859400  0.37019111  0.77652303  1.0
  C  C36  1  0.50361944  0.73359121  0.51359103  1.0
  C  C37  1  0.49486142  0.26429201  0.50550994  1.0
  C  C38  1  0.61857059  0.06434921  0.48972314  1.0
  C  C39  1  0.39632964  0.93670799  0.55509250  1.0
  C  C40  1  0.50113875  0.12787893  0.51175883  1.0
  C  C41  1  0.51009608  0.87064093  0.52787445  1.0
  C  C42  1  0.91712216  0.47713526  0.43070149  1.0
  C  C43  1  0.08387372  0.51766804  0.57202617  1.0
  C  C44  1  0.06191386  0.47283806  0.42953863  1.0
  C  C45  1  0.93911350  0.52178452  0.57326585  1.0
  C  C46  1  0.51736949  0.51466534  0.66494791  1.0
  C  C47  1  0.48671533  0.48923116  0.33884205  1.0
  C  C48  1  0.37409299  0.55987817  0.02432609  1.0
  C  C49  1  0.61882085  0.46238834  0.97958551  1.0
  C  C50  1  0.49739618  0.62986679  0.98200328  1.0
  C  C51  1  0.49567530  0.39228061  0.02164494  1.0
  C  C52  1  0.51747360  0.52059834  0.75465295  1.0
  C  C53  1  0.48426620  0.49196372  0.24927581  1.0
  C  C54  1  0.38587523  0.44740326  0.96070150  1.0
  C  C55  1  0.60710404  0.57488851  0.04326369  1.0
  C  C56  1  0.50634803  0.51608965  0.91696635  1.0
  C  C57  1  0.48648758  0.50588824  0.08701514  1.0
  C  C58  1  0.51413522  0.52008372  0.83005709  1.0
  C  C59  1  0.48243665  0.49902475  0.17402498  1.0
  C  C60  1  0.62906830  0.93959081  0.50475786  1.0
  C  C61  1  0.39242198  0.06391320  0.54906897  1.0
  C  C62  1  0.15411250  0.63283738  0.98325421  1.0
  C  C63  1  0.04303038  0.71316655  0.01686989  1.0
  C  C64  1  0.93060377  0.73697532  0.94857012  1.0
  C  C65  1  0.83917396  0.38659680  0.01777941  1.0
  C  C66  1  0.94816535  0.30701583  0.98104215  1.0
  C  C67  1  0.06295025  0.27947208  0.04693176  1.0
  C  C68  1  0.81846786  0.84993853  0.57588971  1.0
  C  C69  1  0.84782893  0.95558348  0.64098454  1.0
  C  C70  1  0.88764182  0.90973560  0.72698105  1.0
  C  C71  1  0.30428081  0.18056945  0.66127848  1.0
  C  C72  1  0.16666148  0.23008227  0.68612041  1.0
  C  C73  1  0.18031697  0.29362978  0.77321678  1.0
  I  I74  1  0.50036961  0.81556198  0.95115319  1.0
  I  I75  1  0.49240516  0.20596645  0.05065629  1.0
  I  I76  1  0.78921811  0.14360977  0.43206718  1.0
  I  I77  1  0.22975820  0.85939696  0.61797694  1.0
  N  N78  1  0.14333574  0.49289026  0.50018583  1.0
  N  N79  1  0.85762538  0.50173352  0.50260585  1.0
  O  O80  1  0.38638278  0.67798279  0.52035842  1.0
  O  O81  1  0.60633271  0.32603712  0.53051045  1.0
  O  O82  1  0.61291254  0.68172837  0.49150942  1.0
  O  O83  1  0.38154341  0.30785738  0.47802497  1.0
  O  O84  1  0.40123968  0.48025061  0.62569385  1.0
  O  O85  1  0.60323242  0.46745214  0.37672899  1.0
  O  O86  1  0.63170876  0.54258855  0.63323648  1.0
  O  O87  1  0.37222183  0.50987356  0.37202026  1.0
  O  O88  1  0.25433169  0.60753000  0.05097283  1.0
  O  O89  1  0.73771908  0.41502484  0.95154735  1.0
  O  O90  1  0.75623888  0.89036666  0.49756257  1.0
  O  O91  1  0.28150492  0.12519699  0.57746868  1.0
