# generated using pymatgen
data_CuH4(C3N)3
_symmetry_space_group_name_H-M   'P 1'
_cell_length_a   33.70826672
_cell_length_b   34.08924994
_cell_length_c   34.13942122
_cell_angle_alpha   89.98894864
_cell_angle_beta   89.95118324
_cell_angle_gamma   89.99765651
_symmetry_Int_Tables_number   1
_chemical_formula_structural   CuH4(C3N)3
_chemical_formula_sum   'Cu12 H48 C108 N36'
_cell_volume   39229.23645791
_cell_formula_units_Z   12
loop_
 _symmetry_equiv_pos_site_id
 _symmetry_equiv_pos_as_xyz
  1  'x, y, z'
loop_
 _atom_site_type_symbol
 _atom_site_label
 _atom_site_symmetry_multiplicity
 _atom_site_fract_x
 _atom_site_fract_y
 _atom_site_fract_z
 _atom_site_occupancy
  Cu  Cu0  1  0.62496162  0.33876146  0.41108269  1.0
  Cu  Cu1  1  0.66344426  0.41477171  0.37356670  1.0
  Cu  Cu2  1  0.58632397  0.37613068  0.33488399  1.0
  Cu  Cu3  1  0.37527697  0.83896681  0.08826725  1.0
  Cu  Cu4  1  0.33685595  0.91510344  0.12583072  1.0
  Cu  Cu5  1  0.41402952  0.87654897  0.16406510  1.0
  Cu  Cu6  1  0.12446278  0.16083864  0.58822022  1.0
  Cu  Cu7  1  0.16390459  0.08552086  0.62650521  1.0
  Cu  Cu8  1  0.08655698  0.12402739  0.66510081  1.0
  Cu  Cu9  1  0.87583304  0.66053373  0.91246436  1.0
  Cu  Cu10  1  0.83638392  0.58514266  0.87409853  1.0
  Cu  Cu11  1  0.91379142  0.62367125  0.83593661  1.0
  H  H12  1  0.68268965  0.32468214  0.48324436  1.0
  H  H13  1  0.73601952  0.42858115  0.43238264  1.0
  H  H14  1  0.51397110  0.31742391  0.32126055  1.0
  H  H15  1  0.56712668  0.26666205  0.42512379  1.0
  H  H16  1  0.67699247  0.48645858  0.31544876  1.0
  H  H17  1  0.57266531  0.43383338  0.26322091  1.0
  H  H18  1  0.31736960  0.82484580  0.01652154  1.0
  H  H19  1  0.26422931  0.92878993  0.06749689  1.0
  H  H20  1  0.48659808  0.81770654  0.17746566  1.0
  H  H21  1  0.43290355  0.76681530  0.07396463  1.0
  H  H22  1  0.32318452  0.98679992  0.18361026  1.0
  H  H23  1  0.42781014  0.93453069  0.23567600  1.0
  H  H24  1  0.18216479  0.17463545  0.51581755  1.0
  H  H25  1  0.23692573  0.07226134  0.56814488  1.0
  H  H26  1  0.01429902  0.18300885  0.67910378  1.0
  H  H27  1  0.06605494  0.23257319  0.57391482  1.0
  H  H28  1  0.17776600  0.01405922  0.68473618  1.0
  H  H29  1  0.07319384  0.06636870  0.73698538  1.0
  H  H30  1  0.81801149  0.67432947  0.98451668  1.0
  H  H31  1  0.76331736  0.57199536  0.93204354  1.0
  H  H32  1  0.98622808  0.68280693  0.82216709  1.0
  H  H33  1  0.93401395  0.73233014  0.92714668  1.0
  H  H34  1  0.82238344  0.51379017  0.81604718  1.0
  H  H35  1  0.92718771  0.56584867  0.76397329  1.0
  H  H36  1  0.21366880  0.92654940  0.91381521  1.0
  H  H37  1  0.16275798  0.82463242  0.96441486  1.0
  H  H38  1  0.08800408  0.78638061  0.92646218  1.0
  H  H39  1  0.03666345  0.83666207  0.82474343  1.0
  H  H40  1  0.07434939  0.91197027  0.78740169  1.0
  H  H41  1  0.17611226  0.96362669  0.83914234  1.0
  H  H42  1  0.78625289  0.42633856  0.58666190  1.0
  H  H43  1  0.83737192  0.32444383  0.53619882  1.0
  H  H44  1  0.91223540  0.28614306  0.57449727  1.0
  H  H45  1  0.96298319  0.33662164  0.67638072  1.0
  H  H46  1  0.92530408  0.41154361  0.71346617  1.0
  H  H47  1  0.82370093  0.46344992  0.66167410  1.0
  H  H48  1  0.71313324  0.57345172  0.08631729  1.0
  H  H49  1  0.66232204  0.67541083  0.03573879  1.0
  H  H50  1  0.58756153  0.71368424  0.07368068  1.0
  H  H51  1  0.53607272  0.66342791  0.17541469  1.0
  H  H52  1  0.57361486  0.58821181  0.21274851  1.0
  H  H53  1  0.67543275  0.53643484  0.16105226  1.0
  H  H54  1  0.28670641  0.07374717  0.41327791  1.0
  H  H55  1  0.33791342  0.17558497  0.46372454  1.0
  H  H56  1  0.41269102  0.21386249  0.42543893  1.0
  H  H57  1  0.46347087  0.16354376  0.32341833  1.0
  H  H58  1  0.42595756  0.08883804  0.28631239  1.0
  H  H59  1  0.32433220  0.03668794  0.33796135  1.0
  C  C60  1  0.69066747  0.35008231  0.46579317  1.0
  C  C61  1  0.72234982  0.37654775  0.47093481  1.0
  C  C62  1  0.71798583  0.40325323  0.43969157  1.0
  C  C63  1  0.53197476  0.31015781  0.34656698  1.0
  C  C64  1  0.52759825  0.27896408  0.37329665  1.0
  C  C65  1  0.55923077  0.28411316  0.39973370  1.0
  C  C66  1  0.65154489  0.46857218  0.30779828  1.0
  C  C67  1  0.62484315  0.47304857  0.27639273  1.0
  C  C68  1  0.59813692  0.44160840  0.28100591  1.0
  C  C69  1  0.30948265  0.85026232  0.03398289  1.0
  C  C70  1  0.27781242  0.87674143  0.02899848  1.0
  C  C71  1  0.28224619  0.90347518  0.06014587  1.0
  C  C72  1  0.46845462  0.81043362  0.15226687  1.0
  C  C73  1  0.47267402  0.77918493  0.12558170  1.0
  C  C74  1  0.44093517  0.78430173  0.09928535  1.0
  C  C75  1  0.34872995  0.96902998  0.19125074  1.0
  C  C76  1  0.37551228  0.97362486  0.22256118  1.0
  C  C77  1  0.40228516  0.94223118  0.21793977  1.0
  C  C78  1  0.19045033  0.14958935  0.53362338  1.0
  C  C79  1  0.22259343  0.12356638  0.52891491  1.0
  C  C80  1  0.21850344  0.09719482  0.56047072  1.0
  C  C81  1  0.03195690  0.18999041  0.65345017  1.0
  C  C82  1  0.02719370  0.22090514  0.62644195  1.0
  C  C83  1  0.05848943  0.21541387  0.59961170  1.0
  C  C84  1  0.15223770  0.03184661  0.69240851  1.0
  C  C85  1  0.12552082  0.02729424  0.72384345  1.0
  C  C86  1  0.09871503  0.05866249  0.71919200  1.0
  C  C87  1  0.80977748  0.64929735  0.96667844  1.0
  C  C88  1  0.77762593  0.62330687  0.97123262  1.0
  C  C89  1  0.78174291  0.59690605  0.93975274  1.0
  C  C90  1  0.96846809  0.68974876  0.84775404  1.0
  C  C91  1  0.97310318  0.72068130  0.87476462  1.0
  C  C92  1  0.94171442  0.71517111  0.90148608  1.0
  C  C93  1  0.84798993  0.53149527  0.80840449  1.0
  C  C94  1  0.87474945  0.52689639  0.77702394  1.0
  C  C95  1  0.90163376  0.55819548  0.78172435  1.0
  C  C96  1  0.15994052  0.89265226  0.89343324  1.0
  C  C97  1  0.14258572  0.90977284  0.85882155  1.0
  C  C98  1  0.10772814  0.89208558  0.84119726  1.0
  C  C99  1  0.09043163  0.85733773  0.85835485  1.0
  C  C100  1  0.10793167  0.84012452  0.89319034  1.0
  C  C101  1  0.14255297  0.85774649  0.91069364  1.0
  C  C102  1  0.19231691  0.90290287  0.91592302  1.0
  C  C103  1  0.16494735  0.84808044  0.94311074  1.0
  C  C104  1  0.08563755  0.80760839  0.90297977  1.0
  C  C105  1  0.05806937  0.83465899  0.84829545  1.0
  C  C106  1  0.09783187  0.91439144  0.80888671  1.0
  C  C107  1  0.15255487  0.94216598  0.83666069  1.0
  C  C108  1  0.83992458  0.39247377  0.60716799  1.0
  C  C109  1  0.85717879  0.40957562  0.64188019  1.0
  C  C110  1  0.89198412  0.39185340  0.65957941  1.0
  C  C111  1  0.90935188  0.35715446  0.64247738  1.0
  C  C112  1  0.89200776  0.33993347  0.60757712  1.0
  C  C113  1  0.85739735  0.35756519  0.58994118  1.0
  C  C114  1  0.80760617  0.40270007  0.58455861  1.0
  C  C115  1  0.83506492  0.34791171  0.55745623  1.0
  C  C116  1  0.91441946  0.30742855  0.59794494  1.0
  C  C117  1  0.94169767  0.33454906  0.65272615  1.0
  C  C118  1  0.90184658  0.41404337  0.69195191  1.0
  C  C119  1  0.84720065  0.44192576  0.66412370  1.0
  C  C120  1  0.65939764  0.60737215  0.10668860  1.0
  C  C121  1  0.64198199  0.59028577  0.14130243  1.0
  C  C122  1  0.60710828  0.60798642  0.15892104  1.0
  C  C123  1  0.58986669  0.64270618  0.14176326  1.0
  C  C124  1  0.60743285  0.65990389  0.10692710  1.0
  C  C125  1  0.64206460  0.64227636  0.08943532  1.0
  C  C126  1  0.69179737  0.59710721  0.08420434  1.0
  C  C127  1  0.66449662  0.65194920  0.05702371  1.0
  C  C128  1  0.58518683  0.69242695  0.09714946  1.0
  C  C129  1  0.55751540  0.66538579  0.15185140  1.0
  C  C130  1  0.59713070  0.58575131  0.19125676  1.0
  C  C131  1  0.65189930  0.55792513  0.16350404  1.0
  C  C132  1  0.34040168  0.10760269  0.39268728  1.0
  C  C133  1  0.35768559  0.09056679  0.35792284  1.0
  C  C134  1  0.39250231  0.10833126  0.34023808  1.0
  C  C135  1  0.40983349  0.14297247  0.35737487  1.0
  C  C136  1  0.39247042  0.16013031  0.39230715  1.0
  C  C137  1  0.35786991  0.14248043  0.40993685  1.0
  C  C138  1  0.30806970  0.09737702  0.41535236  1.0
  C  C139  1  0.33556665  0.15212168  0.44246786  1.0
  C  C140  1  0.41486316  0.19260738  0.40196621  1.0
  C  C141  1  0.44216566  0.16556700  0.34709794  1.0
  C  C142  1  0.40245691  0.08626060  0.30781670  1.0
  C  C143  1  0.34778526  0.05826043  0.33558469  1.0
  C  C144  1  0.24851773  0.87643781  0.99968460  1.0
  C  C145  1  0.22323276  0.87602604  0.97428941  1.0
  C  C146  1  0.75158028  0.37626037  0.50044648  1.0
  C  C147  1  0.77677236  0.37585184  0.52598666  1.0
  C  C148  1  0.74822611  0.62365215  0.00050338  1.0
  C  C149  1  0.72285117  0.62401064  0.02585863  1.0
  C  C150  1  0.25194616  0.12387008  0.49947331  1.0
  C  C151  1  0.27722392  0.12423318  0.47397101  1.0
  C  C152  1  0.00225926  0.75031016  0.87502388  1.0
  C  C153  1  0.02736900  0.77598059  0.87530670  1.0
  C  C154  1  0.49836221  0.24949615  0.37360360  1.0
  C  C155  1  0.47309537  0.22401379  0.37398541  1.0
  C  C156  1  0.99793990  0.25043124  0.62622280  1.0
  C  C157  1  0.97270212  0.27597835  0.62587780  1.0
  C  C158  1  0.50181246  0.74962800  0.12523375  1.0
  C  C159  1  0.52693467  0.72400526  0.12486198  1.0
  C  C160  1  0.12546923  0.99810406  0.75306316  1.0
  C  C161  1  0.12530466  0.97286154  0.77828977  1.0
  C  C162  1  0.62477009  0.50219001  0.24717517  1.0
  C  C163  1  0.62458320  0.52737066  0.22190783  1.0
  C  C164  1  0.37541609  0.00276938  0.25177013  1.0
  C  C165  1  0.37522759  0.02790518  0.27707368  1.0
  C  C166  1  0.87463957  0.49773934  0.74779409  1.0
  C  C167  1  0.87451777  0.47252055  0.72255644  1.0
  N  N168  1  0.68624570  0.39337523  0.41792707  1.0
  N  N169  1  0.66939606  0.36031262  0.43407091  1.0
  N  N170  1  0.58053511  0.31585682  0.38946062  1.0
  N  N171  1  0.56371526  0.33192496  0.35642834  1.0
  N  N172  1  0.60824831  0.42033161  0.31264687  1.0
  N  N173  1  0.64145707  0.43696819  0.32922246  1.0
  N  N174  1  0.31406236  0.89358222  0.08175610  1.0
  N  N175  1  0.33084525  0.86053389  0.06560312  1.0
  N  N176  1  0.41972109  0.81607085  0.10960826  1.0
  N  N177  1  0.43668311  0.83222738  0.14252457  1.0
  N  N178  1  0.39214570  0.92084784  0.18638392  1.0
  N  N179  1  0.35885263  0.93740874  0.16990942  1.0
  N  N180  1  0.18649697  0.10684247  0.58200681  1.0
  N  N181  1  0.16917152  0.13942999  0.56540583  1.0
  N  N182  1  0.07994661  0.18377512  0.60990954  1.0
  N  N183  1  0.06357210  0.16807938  0.64338603  1.0
  N  N184  1  0.10876074  0.07995470  0.68751505  1.0
  N  N185  1  0.14205222  0.06339226  0.67095500  1.0
  N  N186  1  0.81382980  0.60653080  0.91836653  1.0
  N  N187  1  0.83113055  0.63907759  0.93498864  1.0
  N  N188  1  0.92034839  0.68351694  0.89109800  1.0
  N  N189  1  0.93683788  0.66779464  0.85769590  1.0
  N  N190  1  0.89159117  0.57952992  0.81337974  1.0
  N  N191  1  0.85823111  0.56301033  0.82983841  1.0
  N  N192  1  0.19532521  0.87567319  0.94626315  1.0
  N  N193  1  0.05515931  0.80426802  0.87555184  1.0
  N  N194  1  0.12520848  0.94498604  0.80613795  1.0
  N  N195  1  0.80463231  0.37548827  0.55416288  1.0
  N  N196  1  0.94478416  0.30414590  0.62552541  1.0
  N  N197  1  0.87449367  0.44464640  0.69471532  1.0
  N  N198  1  0.69486888  0.62434134  0.05386586  1.0
  N  N199  1  0.55469750  0.69575352  0.12459630  1.0
  N  N200  1  0.62450355  0.55517622  0.19402595  1.0
  N  N201  1  0.30512156  0.12456600  0.44578627  1.0
  N  N202  1  0.44520084  0.19589366  0.37434339  1.0
  N  N203  1  0.37513453  0.05566864  0.30499008  1.0
