# generated using pymatgen
data_Al3H46C48O17
_symmetry_space_group_name_H-M   'P 1'
_cell_length_a   12.40425201
_cell_length_b   12.47454901
_cell_length_c   28.41976329
_cell_angle_alpha   88.29149452
_cell_angle_beta   88.47071780
_cell_angle_gamma   60.84344364
_symmetry_Int_Tables_number   1
_chemical_formula_structural   Al3H46C48O17
_chemical_formula_sum   'Al6 H92 C96 O34'
_cell_volume   3838.30934058
_cell_formula_units_Z   2
loop_
 _symmetry_equiv_pos_site_id
 _symmetry_equiv_pos_as_xyz
  1  'x, y, z'
loop_
 _atom_site_type_symbol
 _atom_site_label
 _atom_site_symmetry_multiplicity
 _atom_site_fract_x
 _atom_site_fract_y
 _atom_site_fract_z
 _atom_site_occupancy
  Al  Al0  1  0.18024924  0.41919869  0.49623781  1.0
  Al  Al1  1  0.91458208  0.66140557  0.49809595  1.0
  Al  Al2  1  0.92291019  0.41743807  0.49798914  1.0
  Al  Al3  1  0.14175174  0.91841794  0.99731848  1.0
  Al  Al4  1  0.40485520  0.90956129  0.99811371  1.0
  Al  Al5  1  0.40333955  0.66995207  0.99865200  1.0
  H  H6  1  0.74754793  0.79533984  0.20916208  1.0
  H  H7  1  0.36890874  0.08707147  0.21803617  1.0
  H  H8  1  0.24667065  0.47070661  0.21142670  1.0
  H  H9  1  0.55320888  0.86212044  0.27682564  1.0
  H  H10  1  0.23771441  0.78368919  0.29256050  1.0
  H  H11  1  0.34039359  0.62642332  0.30360453  1.0
  H  H12  1  0.36804754  0.58224358  0.22324920  1.0
  H  H13  1  0.29693572  0.74333391  0.21327724  1.0
  H  H14  1  0.01958556  0.86616748  0.29130194  1.0
  H  H15  1  0.97491426  0.78785526  0.20382917  1.0
  H  H16  1  0.08236206  0.55808972  0.21411472  1.0
  H  H17  1  0.16295676  0.98229457  0.30768066  1.0
  H  H18  1  0.89374354  0.57956986  0.26103524  1.0
  H  H19  1  0.05954944  0.86641905  0.21094401  1.0
  H  H20  1  0.78897219  0.51525121  0.79587285  1.0
  H  H21  1  0.77264381  0.47951447  0.71598842  1.0
  H  H22  1  0.45247456  0.72610380  0.70011145  1.0
  H  H23  1  0.54758645  0.56558253  0.69588840  1.0
  H  H24  1  0.58311793  0.53706402  0.77743399  1.0
  H  H25  1  0.44794771  0.67884227  0.78150099  1.0
  H  H26  1  0.70789478  0.80185368  0.70966000  1.0
  H  H27  1  0.55549760  0.86926798  0.68852891  1.0
  H  H28  1  0.13619348  0.98109391  0.22651685  1.0
  H  H29  1  0.79758964  0.45354671  0.20925857  1.0
  H  H30  1  0.84786888  0.56679368  0.70503538  1.0
  H  H31  1  0.81318180  0.64067778  0.78228142  1.0
  H  H32  1  0.46979905  0.85761071  0.76200668  1.0
  H  H33  1  0.38881283  0.09186694  0.78364260  1.0
  H  H34  1  0.36604760  0.08188070  0.70247744  1.0
  H  H35  1  0.06737617  0.08051905  0.71235323  1.0
  H  H36  1  0.22568660  0.98842163  0.69855697  1.0
  H  H37  1  0.27915192  0.96087898  0.77846179  1.0
  H  H38  1  0.12026520  0.02730630  0.79178160  1.0
  H  H39  1  0.29675945  0.92833849  0.22079498  1.0
  H  H40  1  0.06965335  0.37679378  0.71904285  1.0
  H  H41  1  0.60434322  0.51970541  0.27722451  1.0
  H  H42  1  0.97234658  0.31149283  0.71534785  1.0
  H  H43  1  0.06478436  0.34951133  0.80111048  1.0
  H  H44  1  0.30473850  0.24235099  0.70074134  1.0
  H  H45  1  0.29443284  0.25289380  0.78343772  1.0
  H  H46  1  0.99271638  0.25849908  0.79591069  1.0
  H  H47  1  0.96664078  0.74583520  0.81039180  1.0
  H  H48  1  0.94695555  0.78662133  0.72831808  1.0
  H  H49  1  0.27642740  0.69696756  0.70627699  1.0
  H  H50  1  0.20398660  0.30113337  0.27841762  1.0
  H  H51  1  0.12571794  0.82432672  0.70235789  1.0
  H  H52  1  0.10044587  0.83868114  0.78504271  1.0
  H  H53  1  0.45873644  0.73764629  0.22489747  1.0
  H  H54  1  0.26259500  0.74977174  0.78598382  1.0
  H  H55  1  0.18596615  0.45569558  0.72356481  1.0
  H  H56  1  0.31042383  0.47991609  0.70591110  1.0
  H  H57  1  0.25016099  0.44983941  0.80054392  1.0
  H  H58  1  0.96376414  0.63827257  0.72437402  1.0
  H  H59  1  0.02742032  0.58673222  0.80311065  1.0
  H  H60  1  0.98166776  0.20392917  0.20527628  1.0
  H  H61  1  0.33372379  0.16184607  0.29543685  1.0
  H  H62  1  0.31114008  0.96888736  0.30018995  1.0
  H  H63  1  0.30271230  0.33549217  0.34547064  1.0
  H  H64  1  0.28170326  0.48024487  0.36278384  1.0
  H  H65  1  0.51675383  0.27900054  0.31717566  1.0
  H  H66  1  0.49286735  0.42471112  0.33379350  1.0
  H  H67  1  0.45345184  0.37674501  0.41919398  1.0
  H  H68  1  0.60439868  0.27143953  0.39843932  1.0
  H  H69  1  0.48592002  0.23030162  0.40208615  1.0
  H  H70  1  0.73819358  0.87092261  0.29214139  1.0
  H  H71  1  0.81247612  0.96077495  0.28349303  1.0
  H  H72  1  0.26697370  0.24033438  0.20092496  1.0
  H  H73  1  0.83096022  0.80742251  0.37274021  1.0
  H  H74  1  0.89390511  0.90671071  0.36574575  1.0
  H  H75  1  0.67683376  0.08665696  0.35433080  1.0
  H  H76  1  0.69264973  0.01238391  0.40973995  1.0
  H  H77  1  0.61621935  0.98475805  0.36370437  1.0
  H  H78  1  0.97215182  0.60932976  0.34813815  1.0
  H  H79  1  0.10977921  0.47164275  0.36591528  1.0
  H  H80  1  0.98711180  0.46172191  0.33918633  1.0
  H  H81  1  0.77309270  0.84613519  0.77140533  1.0
  H  H82  1  0.74050657  0.80379718  0.82906940  1.0
  H  H83  1  0.98836581  0.32380495  0.28677405  1.0
  H  H84  1  0.70023669  0.95919671  0.81565617  1.0
  H  H85  1  0.55983311  0.37321179  0.78036443  1.0
  H  H86  1  0.45605684  0.31914697  0.76709496  1.0
  H  H87  1  0.49854984  0.39242828  0.86448514  1.0
  H  H88  1  0.38416555  0.35184053  0.85370760  1.0
  H  H89  1  0.54363223  0.14397956  0.82635609  1.0
  H  H90  1  0.57533911  0.16810127  0.88438856  1.0
  H  H91  1  0.66288083  0.18094134  0.83640508  1.0
  H  H92  1  0.79788134  0.28296316  0.25492551  1.0
  H  H93  1  0.80751512  0.33415974  0.31234580  1.0
  H  H94  1  0.03431464  0.31305377  0.20635075  1.0
  H  H95  1  0.78875293  0.20156047  0.30652014  1.0
  H  H96  1  0.38415260  0.29521748  0.52028012  1.0
  H  H97  1  0.93780185  0.03302751  0.02457377  1.0
  C  C98  1  0.09283706  0.65262777  0.43714625  1.0
  C  C99  1  0.71047107  0.63900662  0.34056689  1.0
  C  C100  1  0.03331217  0.22788390  0.27495327  1.0
  C  C101  1  0.78577564  0.60153817  0.42876796  1.0
  C  C102  1  0.21554439  0.01836792  0.28772004  1.0
  C  C103  1  0.20937658  0.00313786  0.23424571  1.0
  C  C104  1  0.20717970  0.08054902  0.11502368  1.0
  C  C105  1  0.16205282  0.15608889  0.29821521  1.0
  C  C106  1  0.05000409  0.22393745  0.22080658  1.0
  C  C107  1  0.18189769  0.12353702  0.20707414  1.0
  C  C108  1  0.27481273  0.16360896  0.22329133  1.0
  C  C109  1  0.73407145  0.62679677  0.38250518  1.0
  C  C110  1  0.24805806  0.20115196  0.27526166  1.0
  C  C111  1  0.19363494  0.10206348  0.15685202  1.0
  C  C112  1  0.14788204  0.18182091  0.34812303  1.0
  C  C113  1  0.10569336  0.28070827  0.43203796  1.0
  C  C114  1  0.13265053  0.21583490  0.38859226  1.0
  C  C115  1  0.17317137  0.54364497  0.27978065  1.0
  C  C116  1  0.25953577  0.69030317  0.28328588  1.0
  C  C117  1  0.28439432  0.66980980  0.23008321  1.0
  C  C118  1  0.20266696  0.67637089  0.11407650  1.0
  C  C119  1  0.14735641  0.67358034  0.29907569  1.0
  C  C120  1  0.55539941  0.70197942  0.23366794  1.0
  C  C121  1  0.16818002  0.55395886  0.22540624  1.0
  C  C122  1  0.17353495  0.66849859  0.20696911  1.0
  C  C123  1  0.05369678  0.78422893  0.22194379  1.0
  C  C124  1  0.03132333  0.78129031  0.27555684  1.0
  C  C125  1  0.08391023  0.61555906  0.56956631  1.0
  C  C126  1  0.18886378  0.66835425  0.15625043  1.0
  C  C127  1  0.13344056  0.68260150  0.34958816  1.0
  C  C128  1  0.11919766  0.69098387  0.39218003  1.0
  C  C129  1  0.76527528  0.56974241  0.72133443  1.0
  C  C130  1  0.53947530  0.64790429  0.71224069  1.0
  C  C131  1  0.66178095  0.66545894  0.19496326  1.0
  C  C132  1  0.54156174  0.63402030  0.76649408  1.0
  C  C133  1  0.58233720  0.70612594  0.88066868  1.0
  C  C134  1  0.64831676  0.66837102  0.69567008  1.0
  C  C135  1  0.75575841  0.59939469  0.77413024  1.0
  C  C136  1  0.61890726  0.68795096  0.78768639  1.0
  C  C137  1  0.75795281  0.61340503  0.55815784  1.0
  C  C138  1  0.57091492  0.81680033  0.76287758  1.0
  C  C139  1  0.62185819  0.79674807  0.71191719  1.0
  C  C140  1  0.60065154  0.69778349  0.83832779  1.0
  C  C141  1  0.67083992  0.65506322  0.64523022  1.0
  C  C142  1  0.63654624  0.58069857  0.26184675  1.0
  C  C143  1  0.69791078  0.64052323  0.60352914  1.0
  C  C144  1  0.29261333  0.16798706  0.71710509  1.0
  C  C145  1  0.15996335  0.06683586  0.71951425  1.0
  C  C146  1  0.18935198  0.04309971  0.77255384  1.0
  C  C147  1  0.21637372  0.10976002  0.88654993  1.0
  C  C148  1  0.16611098  0.18309451  0.70287818  1.0
  C  C149  1  0.09857749  0.27934910  0.56395463  1.0
  C  C150  1  0.30045996  0.16723957  0.77128995  1.0
  C  C151  1  0.19260870  0.15444074  0.79419220  1.0
  C  C152  1  0.06961675  0.27138374  0.78241419  1.0
  C  C153  1  0.68990260  0.64974790  0.29146872  1.0
  C  C154  1  0.06152153  0.29499938  0.72862731  1.0
  C  C155  1  0.20656664  0.13419838  0.84464168  1.0
  C  C156  1  0.14740457  0.20408997  0.65258944  1.0
  C  C157  1  0.12721991  0.22834079  0.61091161  1.0
  C  C158  1  0.00875407  0.68906628  0.73672474  1.0
  C  C159  1  0.18182521  0.73561865  0.72039566  1.0
  C  C160  1  0.17880968  0.75093837  0.77406715  1.0
  C  C161  1  0.60826278  0.77130558  0.26156820  1.0
  C  C162  1  0.19987889  0.66523796  0.89050620  1.0
  C  C163  1  0.13208590  0.64693477  0.70925058  1.0
  C  C164  1  0.74350949  0.54402620  0.22478205  1.0
  C  C165  1  0.03397580  0.66728424  0.79001605  1.0
  C  C166  1  0.16482330  0.64678453  0.79989379  1.0
  C  C167  1  0.25799245  0.52121901  0.77929379  1.0
  C  C168  1  0.22555713  0.51677671  0.72748744  1.0
  C  C169  1  0.18370584  0.65174004  0.84964426  1.0
  C  C170  1  0.11443151  0.64511155  0.65916873  1.0
  C  C171  1  0.10089266  0.63905010  0.61732846  1.0
  C  C172  1  0.23013307  0.03676579  0.06753554  1.0
  C  C173  1  0.71524052  0.73445643  0.22444973  1.0
  C  C174  1  0.55916124  0.71118267  0.05889395  1.0
  C  C175  1  0.79699570  0.61324957  0.25258852  1.0
  C  C176  1  0.22604083  0.70437510  0.06674401  1.0
  C  C177  1  0.23268421  0.05476939  0.93282919  1.0
  C  C178  1  0.53792009  0.72741384  0.92862842  1.0
  C  C179  1  0.22553547  0.70057895  0.93471762  1.0
  C  C180  1  0.61531909  0.68434929  0.10426551  1.0
  C  C181  1  0.32975974  0.40623945  0.33752055  1.0
  C  C182  1  0.46798683  0.35279945  0.34279768  1.0
  C  C183  1  0.50547686  0.30549353  0.39323942  1.0
  C  C184  1  0.81883833  0.87898692  0.30233677  1.0
  C  C185  1  0.81662458  0.89316728  0.35536229  1.0
  C  C186  1  0.63975801  0.67489549  0.14602947  1.0
  C  C187  1  0.69415733  0.99986401  0.37163817  1.0
  C  C188  1  0.03724258  0.51375981  0.33956624  1.0
  C  C189  1  0.70697432  0.87564252  0.80124817  1.0
  C  C190  1  0.47108310  0.37911508  0.79096670  1.0
  C  C191  1  0.47608832  0.33592122  0.84199652  1.0
  C  C192  1  0.56973775  0.19975641  0.84765001  1.0
  C  C193  1  0.83273906  0.25245805  0.29098062  1.0
  O  O194  1  0.17322923  0.32656621  0.44216679  1.0
  O  O195  1  0.52984235  0.63444297  0.04253099  1.0
  O  O196  1  0.32979827  0.62637949  0.04784098  1.0
  O  O197  1  0.17070988  0.54690682  0.45189542  1.0
  O  O198  1  0.15013669  0.80669801  0.94868577  1.0
  O  O199  1  0.15646851  0.02014343  0.94595700  1.0
  O  O200  1  0.32714133  0.04020949  0.95621047  1.0
  O  O201  1  0.51472648  0.82961157  0.94626829  1.0
  O  O202  1  0.51915081  0.64504758  0.94908484  1.0
  O  O203  1  0.32658585  0.62258641  0.95505817  1.0
  O  O204  1  0.31862076  0.83149558  0.99846653  1.0
  O  O205  1  0.78140889  0.69467683  0.53928929  1.0
  O  O206  1  0.98772204  0.72471947  0.45687583  1.0
  O  O207  1  0.80807225  0.68174991  0.44653778  1.0
  O  O208  1  0.81146559  0.49755972  0.44794051  1.0
  O  O209  1  0.01107714  0.29173973  0.45619026  1.0
  O  O210  1  0.17908011  0.29603941  0.54176464  1.0
  O  O211  1  0.16668034  0.51690435  0.55200800  1.0
  O  O212  1  0.98347486  0.69542010  0.54955106  1.0
  O  O213  1  0.29606053  0.45139064  0.28962880  1.0
  O  O214  1  0.92426618  0.76971122  0.28557254  1.0
  O  O215  1  0.08472406  0.50632522  0.29239456  1.0
  O  O216  1  0.79018356  0.50835091  0.54098755  1.0
  O  O217  1  0.58565293  0.90715280  0.78693657  1.0
  O  O218  1  0.37941191  0.50499288  0.78321005  1.0
  O  O219  1  0.96228290  0.17168153  0.29139701  1.0
  O  O220  1  0.98987394  0.30928896  0.54911151  1.0
  O  O221  1  0.00419514  0.50029596  0.49756287  1.0
  O  O222  1  0.14654599  0.80493442  0.04866396  1.0
  O  O223  1  0.14820140  0.02154191  0.04814610  1.0
  O  O224  1  0.33608835  0.01214971  0.04947934  1.0
  O  O225  1  0.53623166  0.81360066  0.03907082  1.0
  O  O226  1  0.34190740  0.34767298  0.49362013  1.0
  O  O227  1  0.98029821  0.99936615  0.99517320  1.0
