# generated using pymatgen
data_ZnH6C19N(ClO4)2
_symmetry_space_group_name_H-M   'P 1'
_cell_length_a   11.81874812
_cell_length_b   16.97927066
_cell_length_c   17.80215165
_cell_angle_alpha   89.99923817
_cell_angle_beta   91.16904870
_cell_angle_gamma   89.99897637
_symmetry_Int_Tables_number   1
_chemical_formula_structural   ZnH6C19N(ClO4)2
_chemical_formula_sum   'Zn2 H12 C38 N2 Cl4 O16'
_cell_volume   3571.68045409
_cell_formula_units_Z   2
loop_
 _symmetry_equiv_pos_site_id
 _symmetry_equiv_pos_as_xyz
  1  'x, y, z'
loop_
 _atom_site_type_symbol
 _atom_site_label
 _atom_site_symmetry_multiplicity
 _atom_site_fract_x
 _atom_site_fract_y
 _atom_site_fract_z
 _atom_site_occupancy
  Zn  Zn0  1  0.49999697  0.41290191  0.49999930  1.0
  Zn  Zn1  1  0.49999363  0.58706310  0.49999927  1.0
  H  H2  1  0.64672315  0.13162582  0.57491490  1.0
  H  H3  1  0.36680739  0.69452933  0.96049435  1.0
  H  H4  1  0.63390113  0.30657182  0.96099963  1.0
  H  H5  1  0.63323182  0.69453248  0.03951080  1.0
  H  H6  1  0.38344374  0.86813715  0.40447496  1.0
  H  H7  1  0.35327797  0.13162792  0.42508679  1.0
  H  H8  1  0.61655495  0.86813628  0.59551511  1.0
  H  H9  1  0.46388243  0.37876683  0.26407840  1.0
  H  H10  1  0.46534046  0.62676534  0.73727532  1.0
  H  H11  1  0.53614549  0.37877197  0.73592275  1.0
  H  H12  1  0.53467360  0.62676237  0.26272755  1.0
  H  H13  1  0.36615254  0.30658623  0.03899435  1.0
  C  C14  1  0.50134669  0.50346015  0.64368386  1.0
  C  C15  1  0.50055239  0.50111678  0.88681832  1.0
  C  C16  1  0.49973706  0.50058501  0.03418467  1.0
  C  C17  1  0.50033731  0.50058264  0.96581835  1.0
  C  C18  1  0.71708089  0.49599674  0.49663603  1.0
  C  C19  1  0.28290898  0.49599324  0.50336539  1.0
  C  C20  1  0.58162246  0.16145808  0.54165770  1.0
  C  C21  1  0.43503172  0.83832492  0.44693981  1.0
  C  C22  1  0.41837358  0.16145781  0.45834411  1.0
  C  C23  1  0.56496614  0.83832345  0.55305230  1.0
  C  C24  1  0.57812923  0.24342218  0.53979658  1.0
  C  C25  1  0.49865566  0.50346216  0.35631537  1.0
  C  C26  1  0.43768347  0.75635317  0.44932471  1.0
  C  C27  1  0.42186616  0.24342420  0.46020137  1.0
  C  C28  1  0.56231419  0.75635117  0.55067182  1.0
  C  C29  1  0.50000151  0.03575614  0.49999838  1.0
  C  C30  1  0.50000009  0.96400626  0.49999415  1.0
  C  C31  1  0.83931941  0.49507905  0.49712416  1.0
  C  C32  1  0.16067048  0.49507752  0.50287839  1.0
  C  C33  1  0.94290072  0.49441294  0.49900589  1.0
  C  C34  1  0.05708835  0.49441083  0.50099216  1.0
  C  C35  1  0.49999947  0.11908186  0.50000119  1.0
  C  C36  1  0.47917315  0.43276398  0.23284348  1.0
  C  C37  1  0.49999959  0.88067759  0.49999524  1.0
  C  C38  1  0.47636103  0.43147003  0.15455045  1.0
  C  C39  1  0.47758600  0.57161727  0.84612372  1.0
  C  C40  1  0.52370007  0.43147555  0.84545103  1.0
  C  C41  1  0.52245757  0.57161183  0.15387855  1.0
  C  C42  1  0.45068127  0.35414143  0.11797925  1.0
  C  C43  1  0.45319633  0.64812985  0.88399483  1.0
  C  C44  1  0.54937442  0.35414556  0.88201752  1.0
  C  C45  1  0.54684759  0.64812644  0.11600929  1.0
  C  C46  1  0.48045159  0.57209839  0.76788859  1.0
  C  C47  1  0.52086677  0.43276650  0.76715826  1.0
  C  C48  1  0.51957249  0.57209542  0.23211230  1.0
  C  C49  1  0.49935341  0.50280547  0.27209421  1.0
  C  C50  1  0.50066588  0.50281112  0.72790638  1.0
  C  C51  1  0.49950842  0.50111452  0.11318114  1.0
  N  N52  1  0.49999794  0.28516791  0.49999843  1.0
  N  N53  1  0.49999773  0.71463925  0.49999851  1.0
  Cl  Cl54  1  0.67864132  0.29316780  0.59112181  1.0
  Cl  Cl55  1  0.35683859  0.70669764  0.38442504  1.0
  Cl  Cl56  1  0.32135603  0.29316872  0.40887105  1.0
  Cl  Cl57  1  0.64316388  0.70669560  0.61557106  1.0
  O  O58  1  0.52962683  0.43969599  0.61159429  1.0
  O  O59  1  0.37673973  0.36006182  0.05874967  1.0
  O  O60  1  0.49630525  0.71078378  0.86639821  1.0
  O  O61  1  0.37560391  0.64175861  0.93893249  1.0
  O  O62  1  0.51079509  0.29124806  0.85995397  1.0
  O  O63  1  0.62330480  0.36005429  0.94125643  1.0
  O  O64  1  0.50373773  0.71078178  0.13361240  1.0
  O  O65  1  0.62443173  0.64175980  0.06106767  1.0
  O  O66  1  0.52579065  0.56793688  0.38846407  1.0
  O  O67  1  0.47036549  0.43969375  0.38840674  1.0
  O  O68  1  0.47420478  0.56793915  0.61153538  1.0
  O  O69  1  0.66813004  0.43182772  0.47810897  1.0
  O  O70  1  0.32902177  0.56055419  0.48461827  1.0
  O  O71  1  0.33186166  0.43182518  0.52188767  1.0
  O  O72  1  0.67096541  0.56055382  0.51538397  1.0
  O  O73  1  0.48926324  0.29124024  0.14003297  1.0
