# generated using pymatgen
data_Cu2H15C24(NO6)2
_symmetry_space_group_name_H-M   'P 1'
_cell_length_a   18.77821619
_cell_length_b   18.77817576
_cell_length_c   35.09847410
_cell_angle_alpha   90.00010651
_cell_angle_beta   89.99990985
_cell_angle_gamma   89.99933679
_symmetry_Int_Tables_number   1
_chemical_formula_structural   Cu2H15C24(NO6)2
_chemical_formula_sum   'Cu16 H120 C192 N16 O96'
_cell_volume   12376.44654233
_cell_formula_units_Z   8
loop_
 _symmetry_equiv_pos_site_id
 _symmetry_equiv_pos_as_xyz
  1  'x, y, z'
loop_
 _atom_site_type_symbol
 _atom_site_label
 _atom_site_symmetry_multiplicity
 _atom_site_fract_x
 _atom_site_fract_y
 _atom_site_fract_z
 _atom_site_occupancy
  Cu  Cu0  1  0.69655177  0.73992226  0.22363900  1.0
  Cu  Cu1  1  0.26008404  0.69654411  0.22363916  1.0
  Cu  Cu2  1  0.30344958  0.26007281  0.22363807  1.0
  Cu  Cu3  1  0.73992050  0.30345469  0.22363904  1.0
  Cu  Cu4  1  0.80345398  0.23992215  0.27636977  1.0
  Cu  Cu5  1  0.19655147  0.76008056  0.27637000  1.0
  Cu  Cu6  1  0.76008398  0.80345638  0.27636864  1.0
  Cu  Cu7  1  0.23991508  0.19654207  0.27636942  1.0
  Cu  Cu8  1  0.30345037  0.26008122  0.77636153  1.0
  Cu  Cu9  1  0.73991969  0.30345512  0.77636250  1.0
  Cu  Cu10  1  0.69654457  0.73992162  0.77636103  1.0
  Cu  Cu11  1  0.26007951  0.69654932  0.77636119  1.0
  Cu  Cu12  1  0.19654390  0.76008719  0.72363246  1.0
  Cu  Cu13  1  0.80345333  0.23991973  0.72363280  1.0
  Cu  Cu14  1  0.23992082  0.19654817  0.72362988  1.0
  Cu  Cu15  1  0.76008173  0.80345502  0.72363168  1.0
  H  H16  1  0.59025980  0.69245545  0.17488647  1.0
  H  H17  1  0.30754398  0.59025227  0.17487913  1.0
  H  H18  1  0.40974169  0.30753785  0.17488607  1.0
  H  H19  1  0.69245591  0.40974849  0.17488287  1.0
  H  H20  1  0.90975768  0.19245535  0.32512253  1.0
  H  H21  1  0.09024976  0.80754646  0.32512119  1.0
  H  H22  1  0.80754574  0.90975991  0.32512350  1.0
  H  H23  1  0.19245318  0.09024084  0.32512307  1.0
  H  H24  1  0.40974447  0.30754697  0.82511719  1.0
  H  H25  1  0.69245816  0.40974801  0.82511883  1.0
  H  H26  1  0.59024714  0.69245924  0.82511730  1.0
  H  H27  1  0.30754782  0.59025446  0.82511481  1.0
  H  H28  1  0.09024393  0.80754867  0.67487714  1.0
  H  H29  1  0.90975770  0.19245755  0.67487962  1.0
  H  H30  1  0.19245587  0.09024357  0.67487844  1.0
  H  H31  1  0.80755268  0.90974986  0.67487660  1.0
  H  H32  1  0.66037509  0.69807909  0.15152161  1.0
  H  H33  1  0.30192113  0.66037196  0.15151861  1.0
  H  H34  1  0.33962700  0.30191307  0.15152126  1.0
  H  H35  1  0.69807936  0.33962925  0.15152170  1.0
  H  H36  1  0.83964020  0.19807455  0.34848626  1.0
  H  H37  1  0.16036664  0.80192308  0.34848485  1.0
  H  H38  1  0.80192577  0.83964135  0.34848545  1.0
  H  H39  1  0.19807202  0.16035948  0.34848509  1.0
  H  H40  1  0.33962598  0.30192280  0.84847891  1.0
  H  H41  1  0.69807941  0.33962726  0.84847878  1.0
  H  H42  1  0.66036342  0.69807817  0.84848125  1.0
  H  H43  1  0.30192704  0.66037210  0.84847768  1.0
  H  H44  1  0.16036194  0.80192787  0.65151427  1.0
  H  H45  1  0.83964135  0.19807561  0.65151510  1.0
  H  H46  1  0.19807424  0.16036000  0.65151450  1.0
  H  H47  1  0.80192639  0.83963176  0.65151430  1.0
  H  H48  1  0.75122296  0.02165679  0.24283945  1.0
  H  H49  1  0.97835160  0.75121942  0.24284200  1.0
  H  H50  1  0.24877833  0.97833622  0.24283928  1.0
  H  H51  1  0.02165288  0.24877519  0.24283987  1.0
  H  H52  1  0.74879649  0.52166919  0.25716397  1.0
  H  H53  1  0.25120688  0.47832866  0.25716330  1.0
  H  H54  1  0.47834404  0.74880517  0.25716163  1.0
  H  H55  1  0.52166253  0.25120493  0.25716251  1.0
  H  H56  1  0.24878663  0.97834723  0.75715936  1.0
  H  H57  1  0.02165852  0.24878407  0.75715938  1.0
  H  H58  1  0.75121423  0.02166353  0.75716095  1.0
  H  H59  1  0.97834233  0.75121605  0.75716008  1.0
  H  H60  1  0.25120405  0.47833909  0.74283513  1.0
  H  H61  1  0.74878727  0.52166364  0.74283636  1.0
  H  H62  1  0.52166076  0.25120364  0.74283747  1.0
  H  H63  1  0.47833268  0.74878950  0.74283688  1.0
  H  H64  1  0.70921630  0.14141449  0.14066785  1.0
  H  H65  1  0.85859355  0.70922597  0.14067006  1.0
  H  H66  1  0.29078476  0.85858828  0.14066297  1.0
  H  H67  1  0.14141230  0.29077254  0.14066788  1.0
  H  H68  1  0.79080976  0.64140972  0.35933996  1.0
  H  H69  1  0.20918746  0.35858902  0.35933836  1.0
  H  H70  1  0.35859053  0.79080319  0.35933595  1.0
  H  H71  1  0.64140936  0.20918276  0.35933582  1.0
  H  H72  1  0.29079330  0.85858899  0.85933068  1.0
  H  H73  1  0.14141232  0.29078870  0.85933217  1.0
  H  H74  1  0.70920567  0.14141094  0.85933584  1.0
  H  H75  1  0.85858931  0.70921071  0.85933350  1.0
  H  H76  1  0.20919717  0.35859110  0.64066113  1.0
  H  H77  1  0.79080030  0.64140754  0.64066131  1.0
  H  H78  1  0.64141055  0.20920082  0.64066230  1.0
  H  H79  1  0.35858958  0.79081327  0.64066271  1.0
  H  H80  1  0.67594189  0.91343750  0.14261961  1.0
  H  H81  1  0.08656567  0.67594180  0.14262060  1.0
  H  H82  1  0.32405010  0.08656475  0.14261964  1.0
  H  H83  1  0.91343911  0.32405406  0.14261893  1.0
  H  H84  1  0.82406824  0.41343317  0.35738220  1.0
  H  H85  1  0.17593698  0.58656716  0.35738256  1.0
  H  H86  1  0.58656247  0.82408253  0.35738251  1.0
  H  H87  1  0.41343742  0.17591940  0.35737941  1.0
  H  H88  1  0.32406983  0.08656226  0.85737806  1.0
  H  H89  1  0.91343700  0.32406222  0.85737907  1.0
  H  H90  1  0.67593819  0.91343501  0.85737946  1.0
  H  H91  1  0.08656463  0.67593984  0.85737959  1.0
  H  H92  1  0.17592432  0.58656392  0.64261661  1.0
  H  H93  1  0.82406729  0.41343260  0.64261768  1.0
  H  H94  1  0.41343754  0.17593161  0.64261574  1.0
  H  H95  1  0.58656472  0.82407077  0.64261941  1.0
  H  H96  1  0.72400244  0.10828368  0.00000103  1.0
  H  H97  1  0.89172141  0.72400759  0.00000069  1.0
  H  H98  1  0.27599756  0.89171767  0.99999864  1.0
  H  H99  1  0.10828232  0.27599483  0.99999926  1.0
  H  H100  1  0.77599364  0.60828170  0.49999991  1.0
  H  H101  1  0.22400157  0.39172072  0.49999918  1.0
  H  H102  1  0.39171975  0.77599723  0.50000044  1.0
  H  H103  1  0.60828292  0.22400146  0.49999808  1.0
  H  H104  1  0.54734871  0.01918404  0.06143022  1.0
  H  H105  1  0.98081494  0.54735158  0.06143201  1.0
  H  H106  1  0.45264991  0.98081420  0.06142989  1.0
  H  H107  1  0.01919327  0.45265305  0.06143209  1.0
  H  H108  1  0.95264841  0.51917979  0.43857034  1.0
  H  H109  1  0.04734486  0.48081230  0.43856957  1.0
  H  H110  1  0.48080662  0.95265487  0.43857047  1.0
  H  H111  1  0.51917812  0.04734840  0.43857115  1.0
  H  H112  1  0.45265662  0.98080933  0.93856973  1.0
  H  H113  1  0.01917921  0.45265031  0.93857221  1.0
  H  H114  1  0.54735116  0.01918289  0.93857063  1.0
  H  H115  1  0.98081952  0.54735150  0.93857185  1.0
  H  H116  1  0.04734201  0.48081038  0.56142933  1.0
  H  H117  1  0.95265089  0.51918693  0.56142953  1.0
  H  H118  1  0.51918593  0.04735074  0.56143005  1.0
  H  H119  1  0.48081336  0.95265402  0.56142966  1.0
  H  H120  1  0.64882027  0.98032318  0.08902445  1.0
  H  H121  1  0.01967670  0.64882977  0.08902170  1.0
  H  H122  1  0.35117189  0.01967568  0.08902096  1.0
  H  H123  1  0.98032984  0.35117442  0.08902200  1.0
  H  H124  1  0.85118270  0.48031713  0.41098341  1.0
  H  H125  1  0.14881650  0.51968232  0.41098174  1.0
  H  H126  1  0.51967888  0.85118734  0.41098174  1.0
  H  H127  1  0.48032351  0.14881849  0.41098340  1.0
  H  H128  1  0.35117815  0.01967497  0.91097863  1.0
  H  H129  1  0.98031746  0.35117798  0.91097682  1.0
  H  H130  1  0.64883078  0.98032194  0.91098155  1.0
  H  H131  1  0.01968295  0.64882746  0.91097852  1.0
  H  H132  1  0.14881891  0.51967623  0.58901455  1.0
  H  H133  1  0.85118244  0.48032010  0.58901679  1.0
  H  H134  1  0.48032698  0.14882253  0.58901593  1.0
  H  H135  1  0.51967756  0.85117966  0.58901683  1.0
  C  C136  1  0.71508088  0.89124674  0.21549740  1.0
  C  C137  1  0.10875701  0.71507712  0.21550127  1.0
  C  C138  1  0.28492049  0.10874777  0.21549890  1.0
  C  C139  1  0.89124862  0.28492218  0.21549959  1.0
  C  C140  1  0.78492577  0.39124847  0.28450439  1.0
  C  C141  1  0.21508232  0.60875267  0.28450503  1.0
  C  C142  1  0.60875554  0.78493683  0.28450438  1.0
  C  C143  1  0.39124670  0.21507123  0.28450390  1.0
  C  C144  1  0.28492285  0.10875514  0.78450141  1.0
  C  C145  1  0.89124833  0.28492370  0.78450010  1.0
  C  C146  1  0.71507366  0.89124986  0.78449991  1.0
  C  C147  1  0.10875298  0.71507864  0.78450208  1.0
  C  C148  1  0.21507423  0.60875554  0.71549414  1.0
  C  C149  1  0.78491822  0.39124603  0.71549578  1.0
  C  C150  1  0.39124554  0.21507464  0.71549358  1.0
  C  C151  1  0.60875012  0.78492426  0.71549634  1.0
  C  C152  1  0.74903778  0.15595094  0.21375848  1.0
  C  C153  1  0.84405828  0.74903410  0.21376244  1.0
  C  C154  1  0.25096679  0.84404835  0.21375704  1.0
  C  C155  1  0.15594788  0.25095295  0.21375821  1.0
  C  C156  1  0.75097959  0.65595224  0.28624906  1.0
  C  C157  1  0.24901465  0.34404465  0.28624741  1.0
  C  C158  1  0.34405061  0.75097980  0.28624643  1.0
  C  C159  1  0.65595055  0.24902188  0.28624776  1.0
  C  C160  1  0.25096702  0.84405414  0.78624062  1.0
  C  C161  1  0.15594971  0.25097045  0.78623951  1.0
  C  C162  1  0.74903109  0.15594980  0.78624434  1.0
  C  C163  1  0.84405159  0.74903242  0.78624089  1.0
  C  C164  1  0.24902415  0.34405125  0.71375061  1.0
  C  C165  1  0.75097471  0.65595244  0.71375169  1.0
  C  C166  1  0.65595046  0.24902156  0.71375381  1.0
  C  C167  1  0.34404946  0.75097894  0.71375220  1.0
  C  C168  1  0.73136933  0.08789115  0.19369547  1.0
  C  C169  1  0.91211493  0.73136795  0.19369828  1.0
  C  C170  1  0.26863051  0.91210808  0.19369295  1.0
  C  C171  1  0.08788810  0.26862489  0.19369555  1.0
  C  C172  1  0.76865203  0.58789550  0.30631000  1.0
  C  C173  1  0.23134695  0.41210305  0.30630929  1.0
  C  C174  1  0.41211232  0.76865794  0.30630711  1.0
  C  C175  1  0.58788985  0.23134221  0.30630734  1.0
  C  C176  1  0.26864186  0.91211233  0.80630362  1.0
  C  C177  1  0.08789093  0.26863767  0.80630367  1.0
  C  C178  1  0.73135938  0.08789274  0.80630615  1.0
  C  C179  1  0.91210978  0.73136102  0.80630526  1.0
  C  C180  1  0.23134851  0.41210905  0.69369080  1.0
  C  C181  1  0.76864454  0.58789191  0.69369095  1.0
  C  C182  1  0.58789195  0.23134927  0.69369199  1.0
  C  C183  1  0.41210590  0.76865115  0.69369204  1.0
  C  C184  1  0.71305796  0.96076998  0.19466946  1.0
  C  C185  1  0.03923713  0.71305706  0.19467048  1.0
  C  C186  1  0.28693975  0.03922766  0.19466833  1.0
  C  C187  1  0.96076802  0.28694004  0.19466845  1.0
  C  C188  1  0.78695482  0.46077229  0.30533496  1.0
  C  C189  1  0.21305001  0.53922626  0.30533467  1.0
  C  C190  1  0.53923558  0.78696516  0.30533438  1.0
  C  C191  1  0.46076872  0.21303979  0.30533327  1.0
  C  C192  1  0.28695270  0.03923297  0.80533020  1.0
  C  C193  1  0.96076873  0.28694430  0.80532890  1.0
  C  C194  1  0.71305281  0.96077157  0.80533105  1.0
  C  C195  1  0.03923092  0.71305492  0.80533065  1.0
  C  C196  1  0.21304252  0.53923226  0.69466385  1.0
  C  C197  1  0.78694946  0.46076817  0.69466414  1.0
  C  C198  1  0.46076922  0.21304419  0.69466387  1.0
  C  C199  1  0.53922756  0.78695465  0.69466555  1.0
  C  C200  1  0.73390772  0.02326508  0.21328603  1.0
  C  C201  1  0.97674137  0.73390513  0.21328800  1.0
  C  C202  1  0.26609206  0.97673155  0.21328386  1.0
  C  C203  1  0.02326001  0.26608938  0.21328532  1.0
  C  C204  1  0.76610746  0.52327046  0.28672023  1.0
  C  C205  1  0.23389477  0.47672642  0.28671958  1.0
  C  C206  1  0.47673778  0.76611415  0.28671734  1.0
  C  C207  1  0.52326498  0.23389019  0.28671877  1.0
  C  C208  1  0.26609815  0.97673840  0.78671449  1.0
  C  C209  1  0.02326503  0.26609623  0.78671367  1.0
  C  C210  1  0.73390103  0.02326874  0.78671638  1.0
  C  C211  1  0.97673574  0.73390292  0.78671492  1.0
  C  C212  1  0.23389361  0.47673728  0.71327887  1.0
  C  C213  1  0.76609885  0.52326747  0.71328094  1.0
  C  C214  1  0.52326489  0.23389466  0.71328090  1.0
  C  C215  1  0.47673183  0.76610371  0.71328147  1.0
  C  C216  1  0.71033063  0.09073653  0.15550123  1.0
  C  C217  1  0.90926979  0.71033763  0.15550459  1.0
  C  C218  1  0.28966879  0.90926523  0.15549840  1.0
  C  C219  1  0.09073548  0.28966093  0.15550131  1.0
  C  C220  1  0.78968963  0.59073704  0.34450510  1.0
  C  C221  1  0.21030924  0.40926164  0.34450327  1.0
  C  C222  1  0.40926576  0.78969201  0.34450252  1.0
  C  C223  1  0.59073577  0.21030188  0.34450073  1.0
  C  C224  1  0.28967737  0.90926589  0.84449701  1.0
  C  C225  1  0.09073448  0.28967384  0.84449850  1.0
  C  C226  1  0.71032217  0.09073506  0.84450127  1.0
  C  C227  1  0.90926666  0.71032498  0.84449921  1.0
  C  C228  1  0.21031304  0.40926484  0.65549542  1.0
  C  C229  1  0.78968332  0.59073332  0.65549555  1.0
  C  C230  1  0.59073797  0.21031680  0.65549687  1.0
  C  C231  1  0.40926318  0.78969149  0.65549809  1.0
  C  C232  1  0.69107253  0.02784818  0.13674370  1.0
  C  C233  1  0.97215716  0.69107818  0.13674448  1.0
  C  C234  1  0.30892055  0.97215351  0.13674063  1.0
  C  C235  1  0.02784657  0.30891979  0.13674212  1.0
  C  C236  1  0.80894206  0.52784534  0.36326087  1.0
  C  C237  1  0.19106048  0.47215394  0.36326053  1.0
  C  C238  1  0.47215711  0.80894754  0.36326029  1.0
  C  C239  1  0.52784542  0.19104908  0.36325825  1.0
  C  C240  1  0.30893493  0.97215530  0.86325626  1.0
  C  C241  1  0.02784551  0.30892957  0.86325718  1.0
  C  C242  1  0.69106988  0.02784624  0.86325819  1.0
  C  C243  1  0.97215664  0.69107038  0.86325754  1.0
  C  C244  1  0.19105742  0.47215442  0.63673909  1.0
  C  C245  1  0.80893634  0.52784368  0.63673942  1.0
  C  C246  1  0.52784769  0.19106286  0.63673909  1.0
  C  C247  1  0.47215245  0.80894323  0.63674056  1.0
  C  C248  1  0.69160282  0.96299869  0.15656639  1.0
  C  C249  1  0.03700654  0.69160391  0.15656625  1.0
  C  C250  1  0.30839286  0.03700361  0.15656410  1.0
  C  C251  1  0.96299767  0.30839253  0.15656567  1.0
  C  C252  1  0.80841153  0.46299609  0.34343661  1.0
  C  C253  1  0.19159266  0.53700206  0.34343662  1.0
  C  C254  1  0.53700249  0.80842152  0.34343547  1.0
  C  C255  1  0.46299477  0.19157822  0.34343520  1.0
  C  C256  1  0.30840731  0.03700267  0.84343328  1.0
  C  C257  1  0.96299667  0.30840064  0.84343285  1.0
  C  C258  1  0.69159703  0.96299668  0.84343443  1.0
  C  C259  1  0.03700394  0.69159924  0.84343457  1.0
  C  C260  1  0.19158422  0.53700473  0.65656220  1.0
  C  C261  1  0.80840735  0.46299504  0.65656333  1.0
  C  C262  1  0.46299964  0.19159048  0.65656220  1.0
  C  C263  1  0.53700204  0.80841142  0.65656390  1.0
  C  C264  1  0.53652990  0.01514047  0.00000049  1.0
  C  C265  1  0.98486074  0.53653144  0.00000255  1.0
  C  C266  1  0.46347369  0.98485383  0.99999986  1.0
  C  C267  1  0.01514499  0.46347138  0.00000236  1.0
  C  C268  1  0.96346779  0.51513951  0.49999950  1.0
  C  C269  1  0.03652423  0.48485386  0.49999903  1.0
  C  C270  1  0.48485265  0.96347390  0.50000050  1.0
  C  C271  1  0.51513671  0.03653118  0.50000031  1.0
  C  C272  1  0.67287687  0.08078024  0.00000075  1.0
  C  C273  1  0.91922113  0.67288212  0.00000151  1.0
  C  C274  1  0.32712526  0.91921898  0.99999920  1.0
  C  C275  1  0.08077874  0.32712229  0.00000055  1.0
  C  C276  1  0.82712113  0.58078033  0.50000016  1.0
  C  C277  1  0.17287462  0.41921943  0.49999979  1.0
  C  C278  1  0.41922047  0.82712504  0.49999989  1.0
  C  C279  1  0.58078007  0.17287631  0.49999949  1.0
  C  C280  1  0.57260934  0.03023337  0.03411336  1.0
  C  C281  1  0.96976533  0.57261336  0.03411460  1.0
  C  C282  1  0.42739096  0.96976264  0.03411104  1.0
  C  C283  1  0.03024136  0.42739064  0.03411407  1.0
  C  C284  1  0.92738818  0.53023111  0.46588807  1.0
  C  C285  1  0.07260394  0.46976426  0.46588698  1.0
  C  C286  1  0.46976095  0.92739481  0.46588818  1.0
  C  C287  1  0.53022904  0.07260909  0.46588887  1.0
  C  C288  1  0.42739440  0.96976053  0.96588773  1.0
  C  C289  1  0.03023308  0.42739065  0.96589019  1.0
  C  C290  1  0.57260958  0.03023392  0.96588977  1.0
  C  C291  1  0.96976930  0.57261285  0.96589072  1.0
  C  C292  1  0.07260277  0.46976066  0.53411074  1.0
  C  C293  1  0.92739128  0.53023389  0.53411183  1.0
  C  C294  1  0.53023373  0.07260921  0.53411206  1.0
  C  C295  1  0.46976298  0.92739333  0.53411109  1.0
  C  C296  1  0.63989084  0.06232343  0.03430452  1.0
  C  C297  1  0.93767670  0.63989751  0.03430611  1.0
  C  C298  1  0.36010946  0.93767419  0.03430309  1.0
  C  C299  1  0.06232786  0.36010862  0.03430520  1.0
  C  C300  1  0.86010898  0.56231928  0.46569637  1.0
  C  C301  1  0.13988740  0.43767822  0.46569547  1.0
  C  C302  1  0.43767629  0.86011370  0.46569527  1.0
  C  C303  1  0.56232329  0.13988647  0.46569571  1.0
  C  C304  1  0.36011237  0.93767207  0.96569486  1.0
  C  C305  1  0.06231905  0.36010757  0.96569612  1.0
  C  C306  1  0.63988842  0.06232344  0.96569601  1.0
  C  C307  1  0.93768279  0.63989433  0.96569703  1.0
  C  C308  1  0.13988251  0.43767142  0.53430387  1.0
  C  C309  1  0.86010888  0.56232313  0.53430448  1.0
  C  C310  1  0.56232532  0.13988872  0.53430440  1.0
  C  C311  1  0.43767459  0.86011435  0.53430481  1.0
  C  C312  1  0.67596919  0.08001563  0.07133006  1.0
  C  C313  1  0.91998572  0.67597306  0.07133196  1.0
  C  C314  1  0.32402781  0.91998903  0.07132778  1.0
  C  C315  1  0.08001767  0.32402787  0.07133015  1.0
  C  C316  1  0.82402883  0.58001124  0.42867114  1.0
  C  C317  1  0.17596820  0.41998880  0.42867076  1.0
  C  C318  1  0.41998637  0.82403036  0.42867029  1.0
  C  C319  1  0.58000958  0.17595530  0.42866819  1.0
  C  C320  1  0.32403881  0.91998360  0.92866790  1.0
  C  C321  1  0.08001162  0.32402669  0.92867084  1.0
  C  C322  1  0.67596581  0.08001392  0.92867075  1.0
  C  C323  1  0.91998820  0.67597029  0.92867066  1.0
  C  C324  1  0.17595680  0.41998266  0.57133024  1.0
  C  C325  1  0.82402915  0.58001202  0.57133004  1.0
  C  C326  1  0.58001364  0.17596726  0.57132881  1.0
  C  C327  1  0.41998670  0.82403806  0.57133091  1.0
  N  N328  1  0.66856726  0.02741423  0.09851156  1.0
  N  N329  1  0.97258710  0.66857805  0.09851175  1.0
  N  N330  1  0.33142593  0.97258680  0.09850933  1.0
  N  N331  1  0.02741781  0.33142457  0.09851113  1.0
  N  N332  1  0.83144255  0.52740753  0.40149158  1.0
  N  N333  1  0.16855668  0.47259082  0.40149012  1.0
  N  N334  1  0.47258774  0.83144607  0.40148989  1.0
  N  N335  1  0.52741202  0.16855122  0.40148839  1.0
  N  N336  1  0.33143648  0.97258393  0.90148782  1.0
  N  N337  1  0.02741131  0.33143182  0.90148934  1.0
  N  N338  1  0.66857035  0.02741455  0.90149006  1.0
  N  N339  1  0.97258966  0.66856986  0.90148996  1.0
  N  N340  1  0.16855640  0.47258636  0.59850923  1.0
  N  N341  1  0.83143906  0.52741054  0.59850897  1.0
  N  N342  1  0.52741652  0.16856328  0.59850864  1.0
  N  N343  1  0.47258799  0.83144321  0.59851099  1.0
  O  O344  1  0.68453998  0.83779921  0.20011523  1.0
  O  O345  1  0.16221010  0.68453388  0.20012108  1.0
  O  O346  1  0.31546783  0.16219525  0.20011961  1.0
  O  O347  1  0.83779717  0.31546004  0.20011747  1.0
  O  O348  1  0.81545931  0.33779478  0.29988821  1.0
  O  O349  1  0.18454501  0.66220375  0.29988693  1.0
  O  O350  1  0.66221090  0.81547413  0.29988510  1.0
  O  O351  1  0.33779129  0.18453665  0.29988464  1.0
  O  O352  1  0.31546536  0.16220694  0.79988244  1.0
  O  O353  1  0.83779523  0.31546694  0.79988172  1.0
  O  O354  1  0.68453750  0.83779758  0.79988262  1.0
  O  O355  1  0.16220656  0.68454664  0.79988447  1.0
  O  O356  1  0.18454442  0.66221243  0.70011003  1.0
  O  O357  1  0.81545713  0.33779335  0.70011387  1.0
  O  O358  1  0.33779391  0.18453575  0.70011144  1.0
  O  O359  1  0.66220552  0.81545671  0.70011304  1.0
  O  O360  1  0.73168865  0.21330696  0.19638426  1.0
  O  O361  1  0.78670046  0.73168979  0.19638506  1.0
  O  O362  1  0.26830905  0.78669015  0.19638360  1.0
  O  O363  1  0.21330469  0.26829560  0.19638109  1.0
  O  O364  1  0.76831634  0.71331610  0.30362192  1.0
  O  O365  1  0.23167252  0.28668351  0.30362051  1.0
  O  O366  1  0.28669040  0.76832210  0.30362386  1.0
  O  O367  1  0.71331284  0.23167645  0.30362198  1.0
  O  O368  1  0.26832361  0.78669653  0.80361313  1.0
  O  O369  1  0.21330700  0.26831582  0.80361461  1.0
  O  O370  1  0.73169043  0.21331014  0.80361892  1.0
  O  O371  1  0.78669372  0.73167966  0.80361345  1.0
  O  O372  1  0.23168260  0.28669005  0.69637661  1.0
  O  O373  1  0.76832802  0.71331092  0.69637859  1.0
  O  O374  1  0.71331120  0.23167713  0.69637923  1.0
  O  O375  1  0.28668717  0.76833396  0.69637996  1.0
  O  O376  1  0.77852245  0.15187961  0.24635475  1.0
  O  O377  1  0.84812768  0.77851090  0.24635846  1.0
  O  O378  1  0.22148468  0.84812299  0.24635391  1.0
  O  O379  1  0.15187467  0.22147573  0.24635449  1.0
  O  O380  1  0.72149922  0.65188060  0.25365193  1.0
  O  O381  1  0.27849085  0.34811138  0.25365025  1.0
  O  O382  1  0.34812310  0.72149815  0.25365127  1.0
  O  O383  1  0.65187976  0.27850768  0.25365291  1.0
  O  O384  1  0.22147702  0.84812813  0.75364691  1.0
  O  O385  1  0.15187766  0.22149365  0.75364292  1.0
  O  O386  1  0.77851319  0.15187836  0.75364832  1.0
  O  O387  1  0.84812321  0.77851923  0.75364661  1.0
  O  O388  1  0.27850238  0.34812182  0.74634774  1.0
  O  O389  1  0.72148360  0.65188305  0.74634514  1.0
  O  O390  1  0.65187904  0.27850161  0.74634983  1.0
  O  O391  1  0.34811759  0.72148516  0.74634562  1.0
  O  O392  1  0.74837260  0.89131104  0.24727284  1.0
  O  O393  1  0.10869020  0.74836635  0.24727874  1.0
  O  O394  1  0.25163293  0.10868198  0.24727665  1.0
  O  O395  1  0.89131374  0.25164158  0.24727930  1.0
  O  O396  1  0.75163778  0.39131891  0.25272753  1.0
  O  O397  1  0.24837360  0.60868532  0.25272870  1.0
  O  O398  1  0.60868921  0.75163961  0.25272891  1.0
  O  O399  1  0.39131365  0.24836408  0.25272846  1.0
  O  O400  1  0.25163805  0.10869031  0.75272369  1.0
  O  O401  1  0.89131300  0.25163553  0.75272349  1.0
  O  O402  1  0.74835749  0.89131618  0.75272159  1.0
  O  O403  1  0.10868733  0.74836137  0.75272322  1.0
  O  O404  1  0.24835797  0.60868298  0.74727243  1.0
  O  O405  1  0.75162801  0.39131444  0.74727239  1.0
  O  O406  1  0.39131346  0.24836440  0.74727048  1.0
  O  O407  1  0.60868370  0.75164153  0.74727491  1.0
  O  O408  1  0.64042758  0.67942568  0.17508902  1.0
  O  O409  1  0.32058433  0.64041628  0.17508201  1.0
  O  O410  1  0.35957444  0.32057029  0.17508753  1.0
  O  O411  1  0.67942195  0.35958182  0.17508570  1.0
  O  O412  1  0.85959058  0.17941976  0.32491997  1.0
  O  O413  1  0.14041633  0.82057779  0.32491860  1.0
  O  O414  1  0.82058880  0.85959415  0.32492204  1.0
  O  O415  1  0.17941172  0.14040660  0.32492024  1.0
  O  O416  1  0.35957829  0.32058260  0.82491407  1.0
  O  O417  1  0.67941994  0.35958241  0.82491509  1.0
  O  O418  1  0.64041439  0.67942361  0.82491527  1.0
  O  O419  1  0.32058338  0.64042167  0.82491197  1.0
  O  O420  1  0.14041102  0.82058745  0.67507913  1.0
  O  O421  1  0.85959061  0.17942197  0.67508106  1.0
  O  O422  1  0.17941920  0.14041146  0.67507991  1.0
  O  O423  1  0.82058296  0.85958251  0.67508057  1.0
  O  O424  1  0.70793994  0.13665461  0.07615963  1.0
  O  O425  1  0.86334383  0.70794083  0.07616127  1.0
  O  O426  1  0.29205917  0.86334741  0.07615732  1.0
  O  O427  1  0.13665847  0.29205746  0.07615824  1.0
  O  O428  1  0.79205688  0.63664791  0.42384248  1.0
  O  O429  1  0.20793962  0.36335105  0.42384202  1.0
  O  O430  1  0.36334966  0.79206006  0.42384103  1.0
  O  O431  1  0.63665696  0.20791281  0.42383806  1.0
  O  O432  1  0.29207551  0.86334089  0.92383690  1.0
  O  O433  1  0.13664872  0.29205467  0.92384153  1.0
  O  O434  1  0.70792326  0.13666087  0.92383950  1.0
  O  O435  1  0.86334633  0.70793484  0.92384000  1.0
  O  O436  1  0.20791330  0.36333587  0.57616118  1.0
  O  O437  1  0.79205986  0.63665190  0.57615850  1.0
  O  O438  1  0.63665674  0.20793224  0.57615750  1.0
  O  O439  1  0.36334092  0.79208056  0.57616104  1.0
