# generated using pymatgen
data_Zn4H26C34SO19
_symmetry_space_group_name_H-M   'P 1'
_cell_length_a   10.76421678
_cell_length_b   10.84375030
_cell_length_c   17.87751844
_cell_angle_alpha   72.95766000
_cell_angle_beta   85.80454328
_cell_angle_gamma   98.88015243
_symmetry_Int_Tables_number   1
_chemical_formula_structural   Zn4H26C34SO19
_chemical_formula_sum   'Zn4 H26 C34 S1 O19'
_cell_volume   1955.65170467
_cell_formula_units_Z   1
loop_
 _symmetry_equiv_pos_site_id
 _symmetry_equiv_pos_as_xyz
  1  'x, y, z'
loop_
 _atom_site_type_symbol
 _atom_site_label
 _atom_site_symmetry_multiplicity
 _atom_site_fract_x
 _atom_site_fract_y
 _atom_site_fract_z
 _atom_site_occupancy
  Zn  Zn0  1  0.44465407  0.15737733  0.43763296  1.0
  Zn  Zn1  1  0.38436599  0.86728529  0.55808887  1.0
  Zn  Zn2  1  0.61313165  0.07350548  0.57854518  1.0
  Zn  Zn3  1  0.62569394  0.96365531  0.42642487  1.0
  H  H4  1  0.63877474  0.27167751  0.91794744  1.0
  H  H5  1  0.57791333  0.48041069  0.84933199  1.0
  H  H6  1  0.47446007  0.62478442  0.65649154  1.0
  H  H7  1  0.47426871  0.86424946  0.06694842  1.0
  H  H8  1  0.45456120  0.73392025  0.15722926  1.0
  H  H9  1  0.25842544  0.80669851  0.20290435  1.0
  H  H10  1  0.39318263  0.93638650  0.17950853  1.0
  H  H11  1  0.27888601  0.93720449  0.11248042  1.0
  H  H12  1  0.72230296  0.52998217  0.16851706  1.0
  H  H13  1  0.70023299  0.38466303  0.25079782  1.0
  H  H14  1  0.55879781  0.47878513  0.32733089  1.0
  H  H15  1  0.36956599  0.89405011  0.95917316  1.0
  H  H16  1  0.71025386  0.58358096  0.29567371  1.0
  H  H17  1  0.57851447  0.62566641  0.24582272  1.0
  H  H18  1  0.26543450  0.39502095  0.26507842  1.0
  H  H19  1  0.31058879  0.56540178  0.21363798  1.0
  H  H20  1  0.11376195  0.55692088  0.14531881  1.0
  H  H21  1  0.07084267  0.38449872  0.19558831  1.0
  H  H22  1  0.07371958  0.49900106  0.24965756  1.0
  H  H23  1  0.51024971  0.44558307  0.61672121  1.0
  H  H24  1  0.50851063  0.54525400  0.43579887  1.0
  H  H25  1  0.03647669  0.15045184  0.50637789  1.0
  H  H26  1  0.00428824  0.88839889  0.46729937  1.0
  H  H27  1  0.42644998  0.99180147  0.81415513  1.0
  H  H28  1  0.65826794  0.10345535  0.04043996  1.0
  H  H29  1  0.64928710  0.03379678  0.18746001  1.0
  C  C30  1  0.50441323  0.68646419  0.49943239  1.0
  C  C31  1  0.38051611  0.51489495  0.08010914  1.0
  C  C32  1  0.36944652  0.64412091  0.04399691  1.0
  C  C33  1  0.51910088  0.32101541  0.53880378  1.0
  C  C34  1  0.40230357  0.70135438  0.96036448  1.0
  C  C35  1  0.43497673  0.62127451  0.91350106  1.0
  C  C36  1  0.39484139  0.83386318  0.92335256  1.0
  C  C37  1  0.42143740  0.88710502  0.84257828  1.0
  C  C38  1  0.42747802  0.67002333  0.83073502  1.0
  C  C39  1  0.50834295  0.44567920  0.55577024  1.0
  C  C40  1  0.50427318  0.55251817  0.49545145  1.0
  C  C41  1  0.61851281  0.12355794  0.15527582  1.0
  C  C42  1  0.98892980  0.06510139  0.49237469  1.0
  C  C43  1  0.05339540  0.97751583  0.47654557  1.0
  C  C44  1  0.19190804  0.99034794  0.47906912  1.0
  C  C45  1  0.84880331  0.04513873  0.49753377  1.0
  C  C46  1  0.45448866  0.87420865  0.70809027  1.0
  C  C47  1  0.57347622  0.15596219  0.28593995  1.0
  C  C48  1  0.58099321  0.20466499  0.19891553  1.0
  C  C49  1  0.43202107  0.80473342  0.79531369  1.0
  C  C50  1  0.62014289  0.16040881  0.07476975  1.0
  C  C51  1  0.40324665  0.79798687  0.11537526  1.0
  C  C52  1  0.54474895  0.32374636  0.15867827  1.0
  C  C53  1  0.32879061  0.87384966  0.15499592  1.0
  C  C54  1  0.65601681  0.46734954  0.22058027  1.0
  C  C55  1  0.62340041  0.54331851  0.27562446  1.0
  C  C56  1  0.25823838  0.47223956  0.21061240  1.0
  C  C57  1  0.12092417  0.47858478  0.19903235  1.0
  C  C58  1  0.52069339  0.34960378  0.07840182  1.0
  C  C59  1  0.57307091  0.27392321  0.03486518  1.0
  C  C60  1  0.46108134  0.45624635  0.03737281  1.0
  C  C61  1  0.47945138  0.50295876  0.95382114  1.0
  C  C62  1  0.55189013  0.43793616  0.91262216  1.0
  C  C63  1  0.58896185  0.32326347  0.95104809  1.0
  S  S64  1  0.37725890  0.55986856  0.77526867  1.0
  O  O65  1  0.51950402  0.01524126  0.50082651  1.0
  O  O66  1  0.36329728  0.86983608  0.66702997  1.0
  O  O67  1  0.62959236  0.05959760  0.31545190  1.0
  O  O68  1  0.56679632  0.93960372  0.68314379  1.0
  O  O69  1  0.50737073  0.20846214  0.32626021  1.0
  O  O70  1  0.35872399  0.42625602  0.82496300  1.0
  O  O71  1  0.27461327  0.60523421  0.73430264  1.0
  O  O72  1  0.49804721  0.58458542  0.71058807  1.0
  O  O73  1  0.31421607  0.71740801  0.08411854  1.0
  O  O74  1  0.54027546  0.42095198  0.19250388  1.0
  O  O75  1  0.32230684  0.43229471  0.15015045  1.0
  O  O76  1  0.25838808  0.10559110  0.45555314  1.0
  O  O77  1  0.79532635  0.97182925  0.46026377  1.0
  O  O78  1  0.45368953  0.70364360  0.56247344  1.0
  O  O79  1  0.56376360  0.23618236  0.59022466  1.0
  O  O80  1  0.55400024  0.77785266  0.43698433  1.0
  O  O81  1  0.48430987  0.31124114  0.47370736  1.0
  O  O82  1  0.23157277  0.88215884  0.50605619  1.0
  O  O83  1  0.79462441  0.10382580  0.53941739  1.0
