# generated using pymatgen
data_ZnH14C18(NO2)2
_symmetry_space_group_name_H-M   'P 1'
_cell_length_a   12.37816661
_cell_length_b   13.28978825
_cell_length_c   15.81230452
_cell_angle_alpha   89.99995088
_cell_angle_beta   89.99993313
_cell_angle_gamma   89.99992263
_symmetry_Int_Tables_number   1
_chemical_formula_structural   ZnH14C18(NO2)2
_chemical_formula_sum   'Zn4 H56 C72 N8 O16'
_cell_volume   2601.17490116
_cell_formula_units_Z   4
loop_
 _symmetry_equiv_pos_site_id
 _symmetry_equiv_pos_as_xyz
  1  'x, y, z'
loop_
 _atom_site_type_symbol
 _atom_site_label
 _atom_site_symmetry_multiplicity
 _atom_site_fract_x
 _atom_site_fract_y
 _atom_site_fract_z
 _atom_site_occupancy
  Zn  Zn0  1  0.14811617  0.25000013  0.74999942  1.0
  Zn  Zn1  1  0.35188347  0.75000045  0.74999978  1.0
  Zn  Zn2  1  0.85188519  0.75000114  0.24999970  1.0
  Zn  Zn3  1  0.64811628  0.25000007  0.25000123  1.0
  H  H4  1  0.91488377  0.34452248  0.98122783  1.0
  H  H5  1  0.58511419  0.65548024  0.98122660  1.0
  H  H6  1  0.58511440  0.84452036  0.51877085  1.0
  H  H7  1  0.91488910  0.15547606  0.51877158  1.0
  H  H8  1  0.08511275  0.65547954  0.01877066  1.0
  H  H9  1  0.41489041  0.34452103  0.01876999  1.0
  H  H10  1  0.41488616  0.15547866  0.48122890  1.0
  H  H11  1  0.08511550  0.84451919  0.48122753  1.0
  H  H12  1  0.08595964  0.50050069  0.92726954  1.0
  H  H13  1  0.41404135  0.49949821  0.92727065  1.0
  H  H14  1  0.41404117  0.00050097  0.57272985  1.0
  H  H15  1  0.08596278  0.99949678  0.57273153  1.0
  H  H16  1  0.91403929  0.49950058  0.07273085  1.0
  H  H17  1  0.58596244  0.50050081  0.07273036  1.0
  H  H18  1  0.58596100  0.99949955  0.42726864  1.0
  H  H19  1  0.91404262  0.00049998  0.42727138  1.0
  H  H20  1  0.22227996  0.25601231  0.56566446  1.0
  H  H21  1  0.27771915  0.74398920  0.56566426  1.0
  H  H22  1  0.27771887  0.75601178  0.93433601  1.0
  H  H23  1  0.22228050  0.24399011  0.93433621  1.0
  H  H24  1  0.77771979  0.74398820  0.43433529  1.0
  H  H25  1  0.72228221  0.25601282  0.43433612  1.0
  H  H26  1  0.72228088  0.24398874  0.06566501  1.0
  H  H27  1  0.77771763  0.75601040  0.06566354  1.0
  H  H28  1  0.35343588  0.35340359  0.47884843  1.0
  H  H29  1  0.14656416  0.64659726  0.47884842  1.0
  H  H30  1  0.14656274  0.85340214  0.02115162  1.0
  H  H31  1  0.35343395  0.14659617  0.02115241  1.0
  H  H32  1  0.64656467  0.64659617  0.52115195  1.0
  H  H33  1  0.85343639  0.35340552  0.52115196  1.0
  H  H34  1  0.85343378  0.14659537  0.97884876  1.0
  H  H35  1  0.64656176  0.85340285  0.97884797  1.0
  H  H36  1  0.43848454  0.51669346  0.70704277  1.0
  H  H37  1  0.06151678  0.48330566  0.70704233  1.0
  H  H38  1  0.06151706  0.01669547  0.79295850  1.0
  H  H39  1  0.43848252  0.98330431  0.79295798  1.0
  H  H40  1  0.56151521  0.48330631  0.29295824  1.0
  H  H41  1  0.93848539  0.51669561  0.29295743  1.0
  H  H42  1  0.93848027  0.98330354  0.20704125  1.0
  H  H43  1  0.56151884  0.01669621  0.20704114  1.0
  H  H44  1  0.30773337  0.40814550  0.78431371  1.0
  H  H45  1  0.19226703  0.59185429  0.78431243  1.0
  H  H46  1  0.19226685  0.90814680  0.71568728  1.0
  H  H47  1  0.30773204  0.09185381  0.71568815  1.0
  H  H48  1  0.69226476  0.59185427  0.21568604  1.0
  H  H49  1  0.80773434  0.40814623  0.21568669  1.0
  H  H50  1  0.80773290  0.09185221  0.28431374  1.0
  H  H51  1  0.69226852  0.90814671  0.28431223  1.0
  H  H52  1  0.51291484  0.57361613  0.57546418  1.0
  H  H53  1  0.98708695  0.42638324  0.57546148  1.0
  H  H54  1  0.98708614  0.07361672  0.92453849  1.0
  H  H55  1  0.51291190  0.92638230  0.92453840  1.0
  H  H56  1  0.48708490  0.42638439  0.42453937  1.0
  H  H57  1  0.01291522  0.57361803  0.42453827  1.0
  H  H58  1  0.01291280  0.92638079  0.07546126  1.0
  H  H59  1  0.48708623  0.07361822  0.07546198  1.0
  C  C60  1  0.02501622  0.31603506  0.87549286  1.0
  C  C61  1  0.47497920  0.68396389  0.87549126  1.0
  C  C62  1  0.47498010  0.81603535  0.62450819  1.0
  C  C63  1  0.02501973  0.18396310  0.62450862  1.0
  C  C64  1  0.97498110  0.68396546  0.12450815  1.0
  C  C65  1  0.52502055  0.31603437  0.12450849  1.0
  C  C66  1  0.52501884  0.18396442  0.37549093  1.0
  C  C67  1  0.97498082  0.81603666  0.37549176  1.0
  C  C68  1  0.98027067  0.37848162  0.94470053  1.0
  C  C69  1  0.51972895  0.62152039  0.94470192  1.0
  C  C70  1  0.51972825  0.87847954  0.55529749  1.0
  C  C71  1  0.98027277  0.12151835  0.55529755  1.0
  C  C72  1  0.01972746  0.62152191  0.05529606  1.0
  C  C73  1  0.48027403  0.37847712  0.05529530  1.0
  C  C74  1  0.48027150  0.12152023  0.44470226  1.0
  C  C75  1  0.01972940  0.87847840  0.44470157  1.0
  C  C76  1  0.01969377  0.47014507  0.96531210  1.0
  C  C77  1  0.48030636  0.52985529  0.96531250  1.0
  C  C78  1  0.48030475  0.97014394  0.53468757  1.0
  C  C79  1  0.01969925  0.02985460  0.53468876  1.0
  C  C80  1  0.98030356  0.52985771  0.03468702  1.0
  C  C81  1  0.51969985  0.47014373  0.03468725  1.0
  C  C82  1  0.51969581  0.02985583  0.46531154  1.0
  C  C83  1  0.98030776  0.97014215  0.46531289  1.0
  C  C84  1  0.27338035  0.31360235  0.59422445  1.0
  C  C85  1  0.22661791  0.68639763  0.59422371  1.0
  C  C86  1  0.22661839  0.81360191  0.90577660  1.0
  C  C87  1  0.27338183  0.18639851  0.90577681  1.0
  C  C88  1  0.72661859  0.68639742  0.40577593  1.0
  C  C89  1  0.77338103  0.31360288  0.40577478  1.0
  C  C90  1  0.77337974  0.18639710  0.09422504  1.0
  C  C91  1  0.72661711  0.81360126  0.09422294  1.0
  C  C92  1  0.34586847  0.36872887  0.54631108  1.0
  C  C93  1  0.15413310  0.63127042  0.54631107  1.0
  C  C94  1  0.15413020  0.86872997  0.95368994  1.0
  C  C95  1  0.34586672  0.13126965  0.95369011  1.0
  C  C96  1  0.65413209  0.63126940  0.45368930  1.0
  C  C97  1  0.84586988  0.36873010  0.45368805  1.0
  C  C98  1  0.84586713  0.13126979  0.04631108  1.0
  C  C99  1  0.65412980  0.86873012  0.04631027  1.0
  C  C100  1  0.40810619  0.44431918  0.58561270  1.0
  C  C101  1  0.09189450  0.55567931  0.58561217  1.0
  C  C102  1  0.09189317  0.94432040  0.91438827  1.0
  C  C103  1  0.40810381  0.05568076  0.91438907  1.0
  C  C104  1  0.59189436  0.55567984  0.41438895  1.0
  C  C105  1  0.90810686  0.44431970  0.41438822  1.0
  C  C106  1  0.90810254  0.05567936  0.08561148  1.0
  C  C107  1  0.59189352  0.94431976  0.08561194  1.0
  C  C108  1  0.39425512  0.45829227  0.67316350  1.0
  C  C109  1  0.10574706  0.54170763  0.67316234  1.0
  C  C110  1  0.10574665  0.95829357  0.82683745  1.0
  C  C111  1  0.39425207  0.04170768  0.82683828  1.0
  C  C112  1  0.60574544  0.54170749  0.32683815  1.0
  C  C113  1  0.89425511  0.45829289  0.32683741  1.0
  C  C114  1  0.89425391  0.04170619  0.17316167  1.0
  C  C115  1  0.60574687  0.95829359  0.17316210  1.0
  C  C116  1  0.32108597  0.39858555  0.71658481  1.0
  C  C117  1  0.17891534  0.60141506  0.71658543  1.0
  C  C118  1  0.17891345  0.89858680  0.78341492  1.0
  C  C119  1  0.32108533  0.10141525  0.78341515  1.0
  C  C120  1  0.67891297  0.60141421  0.28341495  1.0
  C  C121  1  0.82108764  0.39858696  0.28341559  1.0
  C  C122  1  0.82108548  0.10141221  0.21658419  1.0
  C  C123  1  0.67891442  0.89858678  0.21658397  1.0
  C  C124  1  0.48373612  0.50824116  0.54020939  1.0
  C  C125  1  0.01626545  0.49175963  0.54020771  1.0
  C  C126  1  0.01626468  0.00824005  0.95979189  1.0
  C  C127  1  0.48373384  0.99175881  0.95979258  1.0
  C  C128  1  0.51626524  0.49176011  0.45979289  1.0
  C  C129  1  0.98373591  0.50824164  0.45979204  1.0
  C  C130  1  0.98373345  0.99175897  0.04020913  1.0
  C  C131  1  0.51626429  0.00824171  0.04020780  1.0
  N  N132  1  0.26049388  0.32801714  0.67808193  1.0
  N  N133  1  0.23950587  0.67198351  0.67808245  1.0
  N  N134  1  0.23950565  0.82801602  0.82191785  1.0
  N  N135  1  0.26049389  0.17198449  0.82191871  1.0
  N  N136  1  0.73950587  0.67198413  0.32191782  1.0
  N  N137  1  0.76049469  0.32801701  0.32191730  1.0
  N  N138  1  0.76049329  0.17198299  0.17808317  1.0
  N  N139  1  0.73950586  0.82801603  0.17808041  1.0
  O  O140  1  0.09722563  0.35776934  0.82657774  1.0
  O  O141  1  0.40277229  0.64222891  0.82657750  1.0
  O  O142  1  0.40277305  0.85777042  0.67342012  1.0
  O  O143  1  0.09722751  0.14222798  0.67342178  1.0
  O  O144  1  0.90277412  0.64223043  0.17342011  1.0
  O  O145  1  0.59722746  0.35776936  0.17342162  1.0
  O  O146  1  0.59722589  0.14222935  0.32657837  1.0
  O  O147  1  0.90277385  0.85777254  0.32657987  1.0
  O  O148  1  0.99540636  0.22604506  0.86737409  1.0
  O  O149  1  0.50458934  0.77395402  0.86737222  1.0
  O  O150  1  0.50458955  0.72604518  0.63262783  1.0
  O  O151  1  0.99541135  0.27395414  0.63262588  1.0
  O  O152  1  0.00459015  0.77395546  0.13262692  1.0
  O  O153  1  0.49540960  0.22604499  0.13262690  1.0
  O  O154  1  0.49540939  0.27395459  0.36737255  1.0
  O  O155  1  0.00459001  0.72604563  0.36737198  1.0
