# generated using pymatgen
data_Zn2H11C27N9(ClO)2
_symmetry_space_group_name_H-M   'P 1'
_cell_length_a   19.46420208
_cell_length_b   19.56774703
_cell_length_c   19.56648519
_cell_angle_alpha   105.22809833
_cell_angle_beta   111.37379493
_cell_angle_gamma   111.36504597
_symmetry_Int_Tables_number   1
_chemical_formula_structural   Zn2H11C27N9(ClO)2
_chemical_formula_sum   'Zn4 H22 C54 N18 Cl4 O4'
_cell_volume   5751.87309458
_cell_formula_units_Z   2
loop_
 _symmetry_equiv_pos_site_id
 _symmetry_equiv_pos_as_xyz
  1  'x, y, z'
loop_
 _atom_site_type_symbol
 _atom_site_label
 _atom_site_symmetry_multiplicity
 _atom_site_fract_x
 _atom_site_fract_y
 _atom_site_fract_z
 _atom_site_occupancy
  Zn  Zn102  1  0.88639099  0.52727616  0.41162057  1.0
  Zn  Zn103  1  0.88635637  0.41167487  0.52726503  1.0
  Zn  Zn104  1  0.08421021  0.47255441  0.58872310  1.0
  Zn  Zn105  1  0.08425459  0.58870540  0.47252461  1.0
  H  H58  1  0.84391800  0.50616884  0.20352773  1.0
  H  H59  1  0.84390393  0.20364024  0.50634499  1.0
  H  H60  1  0.07331223  0.30943202  0.49162083  1.0
  H  H61  1  0.07331412  0.49142882  0.30942858  1.0
  H  H62  1  0.76216512  0.23310898  0.37241381  1.0
  H  H63  1  0.76215124  0.37238580  0.23305404  1.0
  H  H64  1  0.77412813  0.60137582  0.46223411  1.0
  H  H65  1  0.77410826  0.46238339  0.60133221  1.0
  H  H66  1  0.16768593  0.62252363  0.76182753  1.0
  H  H67  1  0.16800808  0.76188330  0.62253331  1.0
  H  H68  1  0.12966563  0.78833750  0.47094100  1.0
  H  H69  1  0.12960278  0.47094102  0.78832234  1.0
  H  H70  1  0.90281936  0.49217013  0.70029115  1.0
  H  H71  1  0.90292192  0.70029613  0.49221087  1.0
  H  H72  1  0.44307398  0.86694691  0.95240276  1.0
  H  H73  1  0.44308652  0.95240187  0.86694266  1.0
  H  H74  1  0.57427552  0.98572340  0.05714790  1.0
  H  H75  1  0.57428426  0.05716217  0.98571844  1.0
  H  H76  1  0.39705071  0.01523348  0.87680014  1.0
  H  H77  1  0.39704528  0.87682716  0.01523248  1.0
  H  H78  1  0.44328821  0.06472820  0.12167173  1.0
  H  H79  1  0.44329459  0.12168519  0.06470807  1.0
  C  C0  1  0.89989688  0.50552760  0.24257476  1.0
  C  C1  1  0.89987142  0.24265081  0.50567897  1.0
  C  C2  1  0.01693651  0.29611892  0.49724523  1.0
  C  C3  1  0.01695531  0.49708290  0.29611910  1.0
  C  C4  1  0.24344171  0.57412311  0.50360480  1.0
  C  C5  1  0.24346499  0.50363029  0.57425734  1.0
  C  C6  1  0.77234755  0.28011612  0.35153214  1.0
  C  C7  1  0.77233320  0.35151847  0.28007699  1.0
  C  C8  1  0.95910624  0.49233218  0.22347105  1.0
  C  C9  1  0.95909538  0.22351393  0.49255292  1.0
  C  C10  1  0.29646114  0.55036318  0.55043225  1.0
  C  C11  1  0.73177378  0.27102839  0.27101814  1.0
  C  C12  1  0.78407170  0.56380416  0.49253065  1.0
  C  C13  1  0.78405492  0.49264048  0.56373306  1.0
  C  C14  1  0.15958338  0.64378658  0.71511950  1.0
  C  C15  1  0.15975691  0.71515656  0.64376966  1.0
  C  C16  1  0.07338854  0.75350246  0.47340229  1.0
  C  C17  1  0.07331469  0.47339160  0.75348015  1.0
  C  C18  1  0.95702888  0.48411407  0.70831416  1.0
  C  C19  1  0.95712236  0.70833444  0.48413748  1.0
  C  C20  1  0.75396222  0.54454051  0.54443196  1.0
  C  C21  1  0.19192223  0.72501284  0.72499818  1.0
  C  C22  1  0.01630321  0.77732166  0.48507093  1.0
  C  C23  1  0.01621670  0.48502574  0.77729202  1.0
  C  C24  1  0.51979074  0.98462358  0.06235035  1.0
  C  C25  1  0.51979676  0.06236460  0.98461066  1.0
  C  C26  1  0.43311251  0.99109066  0.90967017  1.0
  C  C27  1  0.43310607  0.90968598  0.99108654  1.0
  C  C28  1  0.24998576  0.79903238  0.79902634  1.0
  C  C29  1  0.52157518  0.06616009  0.06614752  1.0
  C  C30  1  0.37820986  0.93594173  0.93592393  1.0
  C  C31  1  0.35615602  0.98918908  0.98916434  1.0
  C  C32  1  0.44081113  0.06494075  0.06492449  1.0
  C  C33  1  0.30346854  0.86263220  0.86261726  1.0
  C  C34  1  0.59908422  0.13794497  0.13793972  1.0
  C  C35  1  0.66199628  0.19914089  0.19913809  1.0
  C  C36  1  0.96357397  0.15225159  0.48417033  1.0
  C  C37  1  0.96361271  0.48389590  0.15221690  1.0
  C  C38  1  0.97148118  0.09239488  0.48299301  1.0
  C  C39  1  0.97146526  0.48268621  0.09233060  1.0
  C  C40  1  0.98212161  0.02878896  0.48462090  1.0
  C  C41  1  0.98204654  0.48433660  0.02870544  1.0
  C  C42  1  0.99333080  0.97116514  0.48793140  1.0
  C  C43  1  0.99324084  0.48774091  0.97109526  1.0
  C  C44  1  0.00445747  0.90795012  0.49025499  1.0
  C  C45  1  0.00437027  0.49013421  0.90790294  1.0
  C  C46  1  0.01342227  0.84888040  0.49048124  1.0
  C  C47  1  0.01331534  0.49039314  0.84883158  1.0
  C  C48  1  0.70153299  0.56650570  0.56635167  1.0
  C  C49  1  0.65029875  0.58077483  0.58056299  1.0
  C  C50  1  0.58758071  0.58850741  0.58827981  1.0
  C  C51  1  0.52404717  0.58845420  0.58827818  1.0
  C  C52  1  0.45001895  0.58066352  0.58059483  1.0
  C  C53  1  0.37869224  0.56781826  0.56786634  1.0
  N  N80  1  0.92198279  0.51830004  0.31984823  1.0
  N  N81  1  0.92192896  0.31988561  0.51834549  1.0
  N  N82  1  0.99395875  0.35319212  0.51280803  1.0
  N  N83  1  0.99400692  0.51275602  0.35320038  1.0
  N  N84  1  0.16781726  0.54473163  0.50041102  1.0
  N  N85  1  0.16783130  0.50042895  0.54481696  1.0
  N  N86  1  0.83077309  0.36027518  0.40392443  1.0
  N  N87  1  0.83076459  0.40392520  0.36024295  1.0
  N  N88  1  0.82761115  0.52626952  0.48191802  1.0
  N  N89  1  0.82760001  0.48199686  0.52621436  1.0
  N  N90  1  0.11326122  0.59054407  0.63416985  1.0
  N  N91  1  0.11336516  0.63422193  0.59051173  1.0
  N  N92  1  0.04869624  0.67684095  0.46490287  1.0
  N  N93  1  0.04863126  0.46494521  0.67682892  1.0
  N  N94  1  0.97686123  0.47155841  0.64883582  1.0
  N  N95  1  0.97693629  0.64884732  0.47152648  1.0
  N  N96  1  0.54004907  0.14533707  0.98457432  1.0
  N  N97  1  0.54004844  0.98459319  0.14532825  1.0
  Cl  Cl54  1  0.29206589  0.92853246  0.02099579  1.0
  Cl  Cl55  1  0.29207596  0.02102495  0.92849573  1.0
  Cl  Cl56  1  0.26606756  0.63315862  0.45595471  1.0
  Cl  Cl57  1  0.26611075  0.45609253  0.63341886  1.0
  O  O98  1  0.61359171  0.19005626  0.00076640  1.0
  O  O99  1  0.48303527  0.16285478  0.97033973  1.0
  O  O100  1  0.61359158  0.00077028  0.19004486  1.0
  O  O101  1  0.48304051  0.97036485  0.16284991  1.0
