# generated using pymatgen
data_Zr3H29C44N5(ClO8)2
_symmetry_space_group_name_H-M   'P 1'
_cell_length_a   19.04711512
_cell_length_b   19.06120065
_cell_length_c   19.06141026
_cell_angle_alpha   89.99109730
_cell_angle_beta   60.03076924
_cell_angle_gamma   119.96918251
_symmetry_Int_Tables_number   1
_chemical_formula_structural   Zr3H29C44N5(ClO8)2
_chemical_formula_sum   'Zr6 H58 C88 N10 Cl4 O32'
_cell_volume   4897.67134460
_cell_formula_units_Z   2
loop_
 _symmetry_equiv_pos_site_id
 _symmetry_equiv_pos_as_xyz
  1  'x, y, z'
loop_
 _atom_site_type_symbol
 _atom_site_label
 _atom_site_symmetry_multiplicity
 _atom_site_fract_x
 _atom_site_fract_y
 _atom_site_fract_z
 _atom_site_occupancy
  Zr  Zr0  1  0.31428834  0.90782722  0.09327875  1.0
  Zr  Zr1  1  0.68530604  0.09324983  0.90781455  1.0
  Zr  Zr2  1  0.50019837  0.09326908  0.90729728  1.0
  Zr  Zr3  1  0.49938331  0.90729015  0.09327626  1.0
  Zr  Zr4  1  0.49980052  0.90769402  0.90769312  1.0
  Zr  Zr5  1  0.49980915  0.09319552  0.09315734  1.0
  H  H6  1  0.35392360  0.92772254  0.92724391  1.0
  H  H7  1  0.64567262  0.92723098  0.92773740  1.0
  H  H8  1  0.64584446  0.21915076  0.92733434  1.0
  H  H9  1  0.35377352  0.92735361  0.21915993  1.0
  H  H10  1  0.92250535  0.28966563  0.93026021  1.0
  H  H11  1  0.07788775  0.64452540  0.13382725  1.0
  H  H12  1  0.28203090  0.71971673  0.86089328  1.0
  H  H13  1  0.14909277  0.59342782  0.85812370  1.0
  H  H14  1  0.71993856  0.35979731  0.06200491  1.0
  H  H15  1  0.85530413  0.49601552  0.05215493  1.0
  H  H16  1  0.92174252  0.13365233  0.64466850  1.0
  H  H17  1  0.07703384  0.93018096  0.28988016  1.0
  H  H18  1  0.27968715  0.06181982  0.35992687  1.0
  H  H19  1  0.14435657  0.05186154  0.49624657  1.0
  H  H20  1  0.71752075  0.86072846  0.71992161  1.0
  H  H21  1  0.85048371  0.85785328  0.59376256  1.0
  H  H22  1  0.43017322  0.28718813  0.13398389  1.0
  H  H23  1  0.42967521  0.64400122  0.93637967  1.0
  H  H24  1  0.58054989  0.72053484  0.05965421  1.0
  H  H25  1  0.59161553  0.59514863  0.04981180  1.0
  H  H26  1  0.57837841  0.35924134  0.86045166  1.0
  H  H27  1  0.58951163  0.49575429  0.85865873  1.0
  H  H28  1  0.57038612  0.93666297  0.64378598  1.0
  H  H29  1  0.56986334  0.13422880  0.28686433  1.0
  H  H30  1  0.42150563  0.86066267  0.35910043  1.0
  H  H31  1  0.41062198  0.85898526  0.49551110  1.0
  H  H32  1  0.41922517  0.05969505  0.72035861  1.0
  H  H33  1  0.40851226  0.05008973  0.59478813  1.0
  H  H34  1  0.93357720  0.11526222  0.89057874  1.0
  H  H35  1  0.70902100  0.89111289  0.11507676  1.0
  H  H36  1  0.06600259  0.89060907  0.11526567  1.0
  H  H37  1  0.29056762  0.11509855  0.89113514  1.0
  H  H38  1  0.72186130  0.28725617  0.64455317  1.0
  H  H39  1  0.27699441  0.64368359  0.28691753  1.0
  H  H40  1  0.07952964  0.72021316  0.36013289  1.0
  H  H41  1  0.95264992  0.59489878  0.49649320  1.0
  H  H42  1  0.92033691  0.35987333  0.71985248  1.0
  H  H43  1  0.04693391  0.49632244  0.59465835  1.0
  H  H44  1  0.12105851  0.46748818  0.93243181  1.0
  H  H45  1  0.07859078  0.37268095  0.91268684  1.0
  H  H46  1  0.87234478  0.45473068  0.14932218  1.0
  H  H47  1  0.91089417  0.52001375  0.20223398  1.0
  H  H48  1  0.12733495  0.14907970  0.45497045  1.0
  H  H49  1  0.08866466  0.20207428  0.52010631  1.0
  H  H50  1  0.87841476  0.93211535  0.46791704  1.0
  H  H51  1  0.92090772  0.91244197  0.37306228  1.0
  H  H52  1  0.43112648  0.47785965  0.15021589  1.0
  H  H53  1  0.40376210  0.38580750  0.20341154  1.0
  H  H54  1  0.42807259  0.45287537  0.92051615  1.0
  H  H55  1  0.40070496  0.51779710  0.89490166  1.0
  H  H56  1  0.57209037  0.92082989  0.45261922  1.0
  H  H57  1  0.59919297  0.89502783  0.51768023  1.0
  H  H58  1  0.56892310  0.15049521  0.47751586  1.0
  H  H59  1  0.59613601  0.20365879  0.38556127  1.0
  H  H60  1  0.89603226  0.47600937  0.45259986  1.0
  H  H61  1  0.77860370  0.38205701  0.51642738  1.0
  H  H62  1  0.10360448  0.45327680  0.47666031  1.0
  H  H63  1  0.22108802  0.51740769  0.38354290  1.0
  C  C64  1  0.26468225  0.76426102  0.00079778  1.0
  C  C65  1  0.73490574  0.00069547  0.76432299  1.0
  C  C66  1  0.73490503  0.23538854  0.00166959  1.0
  C  C67  1  0.26471872  0.00168749  0.23545515  1.0
  C  C68  1  0.26336582  0.00299753  0.00349557  1.0
  C  C69  1  0.26308463  0.76356374  0.23495580  1.0
  C  C70  1  0.73619927  0.00347408  0.00301747  1.0
  C  C71  1  0.73641610  0.23494484  0.76366845  1.0
  C  C72  1  0.50154842  0.00201453  0.76384985  1.0
  C  C73  1  0.49743106  0.23468829  0.00055318  1.0
  C  C74  1  0.50231225  0.00066284  0.23456584  1.0
  C  C75  1  0.49815203  0.76390097  0.00196166  1.0
  C  C76  1  0.81366497  0.31632564  0.99794636  1.0
  C  C77  1  0.18691191  0.68866478  0.99804786  1.0
  C  C78  1  0.90816396  0.33481181  0.95840568  1.0
  C  C79  1  0.98361769  0.40891430  0.95608027  1.0
  C  C80  1  0.09275534  0.63213468  0.07372215  1.0
  C  C81  1  0.01873155  0.55863656  0.07388659  1.0
  C  C82  1  0.20856304  0.67461016  0.91967961  1.0
  C  C83  1  0.13439438  0.60380872  0.91889877  1.0
  C  C84  1  0.79332562  0.37389566  0.03305091  1.0
  C  C85  1  0.86881552  0.44893557  0.02815153  1.0
  C  C86  1  0.96355940  0.46739324  0.99214469  1.0
  C  C87  1  0.03956067  0.54444679  0.99448993  1.0
  C  C88  1  0.81269738  0.99787718  0.68881900  1.0
  C  C89  1  0.18592285  0.99785411  0.31648036  1.0
  C  C90  1  0.90686634  0.07352640  0.63232367  1.0
  C  C91  1  0.98091767  0.07363778  0.55890105  1.0
  C  C92  1  0.09136714  0.95825547  0.33506476  1.0
  C  C93  1  0.01589283  0.95581308  0.40925985  1.0
  C  C94  1  0.20629178  0.03287575  0.37405767  1.0
  C  C95  1  0.13079811  0.02786974  0.44918331  1.0
  C  C96  1  0.79102135  0.91948115  0.67483796  1.0
  C  C97  1  0.86519601  0.91864141  0.60411199  1.0
  C  C98  1  0.96004984  0.99421362  0.54477286  1.0
  C  C99  1  0.03601714  0.99183442  0.46772655  1.0
  C  C100  1  0.50281182  0.31543048  0.99795039  1.0
  C  C101  1  0.50357259  0.68855170  0.99882764  1.0
  C  C102  1  0.46393173  0.33318782  0.07401175  1.0
  C  C103  1  0.46442829  0.40711274  0.07471099  1.0
  C  C104  1  0.46382428  0.63175283  0.96218790  1.0
  C  C105  1  0.46384037  0.55805467  0.96114322  1.0
  C  C106  1  0.54855880  0.67514058  0.03222570  1.0
  C  C107  1  0.55296913  0.60446636  0.02763502  1.0
  C  C108  1  0.54703726  0.37317970  0.91960836  1.0
  C  C109  1  0.55160136  0.44834719  0.91948109  1.0
  C  C110  1  0.50997816  0.46650578  0.99551664  1.0
  C  C111  1  0.51020539  0.54437340  0.99402365  1.0
  C  C112  1  0.49633526  0.99899033  0.68837803  1.0
  C  C113  1  0.49717746  0.99815932  0.31518713  1.0
  C  C114  1  0.53623861  0.96246375  0.63152176  1.0
  C  C115  1  0.53632258  0.96146481  0.55776832  1.0
  C  C116  1  0.53616540  0.07427341  0.33285496  1.0
  C  C117  1  0.53575470  0.07501887  0.40673225  1.0
  C  C118  1  0.45294541  0.91984464  0.37297832  1.0
  C  C119  1  0.44850700  0.91977188  0.44808305  1.0
  C  C120  1  0.45135219  0.03236263  0.67493505  1.0
  C  C121  1  0.44712710  0.02789392  0.60415008  1.0
  C  C122  1  0.49001271  0.99437293  0.54402210  1.0
  C  C123  1  0.49023588  0.99585274  0.46615015  1.0
  C  C124  1  0.91474558  0.06669712  0.93928137  1.0
  C  C125  1  0.98940534  0.06753706  0.93779900  1.0
  C  C126  1  0.09335660  0.13219754  0.87319200  1.0
  C  C127  1  0.78749112  0.93945587  0.06626649  1.0
  C  C128  1  0.85971729  0.93769222  0.06705552  1.0
  C  C129  1  0.83411702  0.87283018  0.13170238  1.0
  C  C130  1  0.08486178  0.93932171  0.06668706  1.0
  C  C131  1  0.01019373  0.93783292  0.06750767  1.0
  C  C132  1  0.90625480  0.87322318  0.13218342  1.0
  C  C133  1  0.21210145  0.06629748  0.93948155  1.0
  C  C134  1  0.13989013  0.06710541  0.93769349  1.0
  C  C135  1  0.16550698  0.13175750  0.87282369  1.0
  C  C136  1  0.81489326  0.00341136  0.00303557  1.0
  C  C137  1  0.96255943  0.00244882  0.00235128  1.0
  C  C138  1  0.18470623  0.00304806  0.00341132  1.0
  C  C139  1  0.03702869  0.00238343  0.00242261  1.0
  C  C140  1  0.81413325  0.31568447  0.68840329  1.0
  C  C141  1  0.18529416  0.68824159  0.31566527  1.0
  C  C142  1  0.79433657  0.33320001  0.63195023  1.0
  C  C143  1  0.86703359  0.40683792  0.55827341  1.0
  C  C144  1  0.20479374  0.63149288  0.33306865  1.0
  C  C145  1  0.13209001  0.55796230  0.40683092  1.0
  C  C146  1  0.09346198  0.67480744  0.37373623  1.0
  C  C147  1  0.02286144  0.60422976  0.44886700  1.0
  C  C148  1  0.90614451  0.37359114  0.67471258  1.0
  C  C149  1  0.97658674  0.44874490  0.60417676  1.0
  C  C150  1  0.96010329  0.46659544  0.54443112  1.0
  C  C151  1  0.03913019  0.54427577  0.46665001  1.0
  N  N152  1  0.07640265  0.42464341  0.91709610  1.0
  N  N153  1  0.92961549  0.49926857  0.15121307  1.0
  N  N154  1  0.07003260  0.15092398  0.49953301  1.0
  N  N155  1  0.92309489  0.91682840  0.42502691  1.0
  N  N156  1  0.41635077  0.41866418  0.15205293  1.0
  N  N157  1  0.41472853  0.49821466  0.93274474  1.0
  N  N158  1  0.58546983  0.93306997  0.49794477  1.0
  N  N159  1  0.58383748  0.15239185  0.41826799  1.0
  N  N160  1  0.84935531  0.41786790  0.49863802  1.0
  N  N161  1  0.14976154  0.49820757  0.41785539  1.0
  Cl  Cl162  1  0.28923447  0.20947132  0.79462854  1.0
  Cl  Cl163  1  0.12584979  0.21130566  0.79604548  1.0
  Cl  Cl164  1  0.87377216  0.79610327  0.21130942  1.0
  Cl  Cl165  1  0.71037864  0.79461519  0.20941503  1.0
  O  O166  1  0.23573606  0.79249449  0.06281458  1.0
  O  O167  1  0.76384109  0.06274766  0.79251025  1.0
  O  O168  1  0.76332733  0.20140059  0.94535767  1.0
  O  O169  1  0.23630252  0.94543234  0.20141225  1.0
  O  O170  1  0.35321127  0.06297454  0.94435746  1.0
  O  O171  1  0.35334151  0.79133450  0.20114153  1.0
  O  O172  1  0.64635698  0.94433516  0.06300896  1.0
  O  O173  1  0.64615747  0.20106545  0.79140681  1.0
  O  O174  1  0.50742444  0.94561408  0.79186211  1.0
  O  O175  1  0.49149817  0.20104878  0.06300244  1.0
  O  O176  1  0.50816069  0.06307248  0.20096687  1.0
  O  O177  1  0.49219983  0.79188310  0.94559843  1.0
  O  O178  1  0.50037983  0.20557002  0.93933723  1.0
  O  O179  1  0.49925437  0.93939126  0.20551170  1.0
  O  O180  1  0.50105491  0.79568787  0.06038567  1.0
  O  O181  1  0.49855689  0.06040569  0.79567034  1.0
  O  O182  1  0.23379243  0.94208177  0.06201223  1.0
  O  O183  1  0.76571473  0.20591953  0.79566726  1.0
  O  O184  1  0.76577062  0.06197291  0.94208464  1.0
  O  O185  1  0.23381429  0.79560381  0.20593293  1.0
  O  O186  1  0.35488851  0.06021096  0.20646723  1.0
  O  O187  1  0.35502896  0.79602342  0.94000378  1.0
  O  O188  1  0.64455913  0.93991864  0.79604007  1.0
  O  O189  1  0.64473874  0.20642457  0.06017728  1.0
  O  O190  1  0.39536046  0.94815817  0.15691304  1.0
  O  O191  1  0.60421955  0.15690179  0.94816410  1.0
  O  O192  1  0.60457814  0.94843800  0.94853195  1.0
  O  O193  1  0.39501638  0.94852188  0.94845113  1.0
  O  O194  1  0.57687272  0.03889608  0.88497189  1.0
  O  O195  1  0.42274037  0.88499394  0.03889665  1.0
  O  O196  1  0.57678678  0.03874829  0.03906409  1.0
  O  O197  1  0.42281924  0.03908158  0.03874372  1.0
