# generated using pymatgen
data_Zn4H13C29NO15
_symmetry_space_group_name_H-M   'P 1'
_cell_length_a   16.11601385
_cell_length_b   16.12381720
_cell_length_c   16.12481971
_cell_angle_alpha   89.85768307
_cell_angle_beta   83.94061251
_cell_angle_gamma   84.37812950
_symmetry_Int_Tables_number   1
_chemical_formula_structural   Zn4H13C29NO15
_chemical_formula_sum   'Zn4 H13 C29 N1 O15'
_cell_volume   4146.47943541
_cell_formula_units_Z   1
loop_
 _symmetry_equiv_pos_site_id
 _symmetry_equiv_pos_as_xyz
  1  'x, y, z'
loop_
 _atom_site_type_symbol
 _atom_site_label
 _atom_site_symmetry_multiplicity
 _atom_site_fract_x
 _atom_site_fract_y
 _atom_site_fract_z
 _atom_site_occupancy
  Zn  Zn0  1  0.57035229  0.57149568  0.42934812  1.0
  Zn  Zn1  1  0.57124434  0.42271048  0.56318277  1.0
  Zn  Zn2  1  0.43437715  0.43688020  0.42971868  1.0
  Zn  Zn3  1  0.42060677  0.57059751  0.57759221  1.0
  H  H4  1  0.42792579  0.00826813  0.57263430  1.0
  H  H5  1  0.94380484  0.33629143  0.39372133  1.0
  H  H6  1  0.08966824  0.28389828  0.33202291  1.0
  H  H7  1  0.01845911  0.29076340  0.25439296  1.0
  H  H8  1  0.08923125  0.36822862  0.26045371  1.0
  H  H9  1  0.57111544  0.99188956  0.42822304  1.0
  H  H10  1  0.98138526  0.55922908  0.56929949  1.0
  H  H11  1  0.66761764  0.57716959  0.06387309  1.0
  H  H12  1  0.58667727  0.66142567  0.07202362  1.0
  H  H13  1  0.64200776  0.71311186  0.93103634  1.0
  H  H14  1  0.72064724  0.70683717  0.00117147  1.0
  H  H15  1  0.72286174  0.62875115  0.92285660  1.0
  H  H16  1  0.94321041  0.42095088  0.32199338  1.0
  C  C17  1  0.48973991  0.48870907  0.72411349  1.0
  C  C18  1  0.51665126  0.51503049  0.18590562  1.0
  C  C19  1  0.81649895  0.48320744  0.48052527  1.0
  C  C20  1  0.51232315  0.51095027  0.27551645  1.0
  C  C21  1  0.98143357  0.47398297  0.46984691  1.0
  C  C22  1  0.02083919  0.51973598  0.52304254  1.0
  C  C23  1  0.10770125  0.51722256  0.51985240  1.0
  C  C24  1  0.89276556  0.47882504  0.47548237  1.0
  C  C25  1  0.18403564  0.51485342  0.51696173  1.0
  C  C26  1  0.72599241  0.48853009  0.48666616  1.0
  C  C27  1  0.27313059  0.51092171  0.51227126  1.0
  C  C28  1  0.47979045  0.88987500  0.52053374  1.0
  C  C29  1  0.51360232  0.27601443  0.48673728  1.0
  C  C30  1  0.48897375  0.72474237  0.51177797  1.0
  C  C31  1  0.51838745  0.18640688  0.48159246  1.0
  C  C32  1  0.52469388  0.02342598  0.47503462  1.0
  C  C33  1  0.47444018  0.97705817  0.52576077  1.0
  C  C34  1  0.62878402  0.62074644  0.02790999  1.0
  C  C35  1  0.68147335  0.67011282  0.96667372  1.0
  C  C36  1  0.42054918  0.42492043  0.01935703  1.0
  C  C37  1  0.98372293  0.37691194  0.35591159  1.0
  C  C38  1  0.04948559  0.32716286  0.29737348  1.0
  C  C39  1  0.52083319  0.11055055  0.47897588  1.0
  C  C40  1  0.48375616  0.81397192  0.51678635  1.0
  C  C41  1  0.48503916  0.48460981  0.81383688  1.0
  C  C42  1  0.47685496  0.47761797  0.97727736  1.0
  C  C43  1  0.52545792  0.52343281  0.02261520  1.0
  C  C44  1  0.52040502  0.51881422  0.11010545  1.0
  C  C45  1  0.48143385  0.48164670  0.88962327  1.0
  N  N46  1  0.37370286  0.38112103  0.05225913  1.0
  O  O47  1  0.50061740  0.49986106  0.49957140  1.0
  O  O48  1  0.55973418  0.30562250  0.53669675  1.0
  O  O49  1  0.43862583  0.68885104  0.56321752  1.0
  O  O50  1  0.46379180  0.31592869  0.44114100  1.0
  O  O51  1  0.54387821  0.69002835  0.45606910  1.0
  O  O52  1  0.57783009  0.57271168  0.98009575  1.0
  O  O53  1  0.02748009  0.42396681  0.41148353  1.0
  O  O54  1  0.69084745  0.54272814  0.44073381  1.0
  O  O55  1  0.30415963  0.55675467  0.56363147  1.0
  O  O56  1  0.54521102  0.43758911  0.68418406  1.0
  O  O57  1  0.46273415  0.46166051  0.31062807  1.0
  O  O58  1  0.43842184  0.54282104  0.69416429  1.0
  O  O59  1  0.55904171  0.55743710  0.30967345  1.0
  O  O60  1  0.69134824  0.43834230  0.53725473  1.0
  O  O61  1  0.31426152  0.46160296  0.45677499  1.0
