# generated using pymatgen
data_Zn4H15C30S3N3O13
_symmetry_space_group_name_H-M   'P 1'
_cell_length_a   20.39686848
_cell_length_b   20.45654074
_cell_length_c   20.64169019
_cell_angle_alpha   61.76144002
_cell_angle_beta   60.72475322
_cell_angle_gamma   61.34167522
_symmetry_Int_Tables_number   1
_chemical_formula_structural   Zn4H15C30S3N3O13
_chemical_formula_sum   'Zn8 H30 C60 S6 N6 O26'
_cell_volume   6263.82904304
_cell_formula_units_Z   2
loop_
 _symmetry_equiv_pos_site_id
 _symmetry_equiv_pos_as_xyz
  1  'x, y, z'
loop_
 _atom_site_type_symbol
 _atom_site_label
 _atom_site_symmetry_multiplicity
 _atom_site_fract_x
 _atom_site_fract_y
 _atom_site_fract_z
 _atom_site_occupancy
  Zn  Zn0  1  0.91493318  0.11264561  0.95942226  1.0
  Zn  Zn1  1  0.97723562  0.95508394  0.91823151  1.0
  Zn  Zn2  1  0.96084755  0.93681209  0.08787917  1.0
  Zn  Zn3  1  0.09445353  0.99819327  0.93385529  1.0
  Zn  Zn4  1  0.50026078  0.38986978  0.52609524  1.0
  Zn  Zn5  1  0.54276260  0.53213325  0.50441677  1.0
  Zn  Zn6  1  0.36854656  0.55812737  0.50923698  1.0
  Zn  Zn7  1  0.52479847  0.52318246  0.36295483  1.0
  H  H8  1  0.82777821  0.02173630  0.81767726  1.0
  H  H9  1  0.74329854  0.40313530  0.65245352  1.0
  H  H10  1  0.64049398  0.44414280  0.66597283  1.0
  H  H11  1  0.67342681  0.39025785  0.74850002  1.0
  H  H12  1  0.78040815  0.26140715  0.78970792  1.0
  H  H13  1  0.82356888  0.00236146  0.28062296  1.0
  H  H14  1  0.61308348  0.42371693  0.20691666  1.0
  H  H15  1  0.70702898  0.37726422  0.14624258  1.0
  H  H16  1  0.62064541  0.36402750  0.16099001  1.0
  H  H17  1  0.75452149  0.23707324  0.12678948  1.0
  H  H18  1  0.96765461  0.32223570  0.83239053  1.0
  H  H19  1  0.39584937  0.24317725  0.68484824  1.0
  H  H20  1  0.33482438  0.18799880  0.76813563  1.0
  H  H21  1  0.35380574  0.19291034  0.67298685  1.0
  H  H22  1  0.20886395  0.16645714  0.80107195  1.0
  H  H23  1  0.85284817  0.81903958  0.98337754  1.0
  H  H24  1  0.79460089  0.65366622  0.34807661  1.0
  H  H25  1  0.70471083  0.73268032  0.36029451  1.0
  H  H26  1  0.70198923  0.63489915  0.40575928  1.0
  H  H27  1  0.82820152  0.77275743  0.21944301  1.0
  H  H28  1  0.30311108  0.85194482  0.81886028  1.0
  H  H29  1  0.16193074  0.72276317  0.70019374  1.0
  H  H30  1  0.17267181  0.80981980  0.62240578  1.0
  H  H31  1  0.22044504  0.71822921  0.60323205  1.0
  H  H32  1  0.14379945  0.83671243  0.74988426  1.0
  H  H33  1  0.25236004  0.92855752  0.02461223  1.0
  H  H34  1  0.20739527  0.62922618  0.40920116  1.0
  H  H35  1  0.13133423  0.71292067  0.37681697  1.0
  H  H36  1  0.17934716  0.63533097  0.33665288  1.0
  H  H37  1  0.11939242  0.78592367  0.23201805  1.0
  C  C38  1  0.86091973  0.10599977  0.85624782  1.0
  C  C39  1  0.80948728  0.13877855  0.80875682  1.0
  C  C40  1  0.79916125  0.08422485  0.79348886  1.0
  C  C41  1  0.72246082  0.18112996  0.72162915  1.0
  C  C42  1  0.65191032  0.31306567  0.65129351  1.0
  C  C43  1  0.60348375  0.37311703  0.60158533  1.0
  C  C44  1  0.68779788  0.31897793  0.68959705  1.0
  C  C45  1  0.68551226  0.39334346  0.68921501  1.0
  C  C46  1  0.72884410  0.24219900  0.73144652  1.0
  C  C47  1  0.77310746  0.21885936  0.77819598  1.0
  C  C48  1  0.84428395  0.08446670  0.12931395  1.0
  C  C49  1  0.79416784  0.11675747  0.19625850  1.0
  C  C50  1  0.79065774  0.06459144  0.27281061  1.0
  C  C51  1  0.71021420  0.16333426  0.32543527  1.0
  C  C52  1  0.63008024  0.29670910  0.33614407  1.0
  C  C53  1  0.58117420  0.35968057  0.37261482  1.0
  C  C54  1  0.66152249  0.29932708  0.25872118  1.0
  C  C55  1  0.64954321  0.37042384  0.18988392  1.0
  C  C56  1  0.70849215  0.22190427  0.25174574  1.0
  C  C57  1  0.75222357  0.19649746  0.18550751  1.0
  C  C58  1  0.05607202  0.16829342  0.86951694  1.0
  C  C59  1  0.08548328  0.23678011  0.82193406  1.0
  C  C60  1  0.03119224  0.31381930  0.80733669  1.0
  C  C61  1  0.13098438  0.36612224  0.73339252  1.0
  C  C62  1  0.26687366  0.37503981  0.66337422  1.0
  C  C63  1  0.33152046  0.40918615  0.61194957  1.0
  C  C64  1  0.27025273  0.29747463  0.70371781  1.0
  C  C65  1  0.34295994  0.22702423  0.70753371  1.0
  C  C66  1  0.19152198  0.29175669  0.74426673  1.0
  C  C67  1  0.16672114  0.22563436  0.79017837  1.0
  C  C68  1  0.89761082  0.84966235  0.06558408  1.0
  C  C69  1  0.84645934  0.80066884  0.09839249  1.0
  C  C70  1  0.82848638  0.79088228  0.04594376  1.0
  C  C71  1  0.75366806  0.71555914  0.14501436  1.0
  C  C72  1  0.68571317  0.64263557  0.27862332  1.0
  C  C73  1  0.63520052  0.59417540  0.34102294  1.0
  C  C74  1  0.72689571  0.67825041  0.28151329  1.0
  C  C75  1  0.73205996  0.67413587  0.35322063  1.0
  C  C76  1  0.76683224  0.72090988  0.20395142  1.0
  C  C77  1  0.81503771  0.76534531  0.17855064  1.0
  C  C78  1  0.14790716  0.89886723  0.83841606  1.0
  C  C79  1  0.21590353  0.84961720  0.78944866  1.0
  C  C80  1  0.29395695  0.82957942  0.78632531  1.0
  C  C81  1  0.34529782  0.75696955  0.70699725  1.0
  C  C82  1  0.35323849  0.69256732  0.62659254  1.0
  C  C83  1  0.38828471  0.64190971  0.57776841  1.0
  C  C84  1  0.27536420  0.73668075  0.65687868  1.0
  C  C85  1  0.20415433  0.74703783  0.64447608  1.0
  C  C86  1  0.27005635  0.77388969  0.70423926  1.0
  C  C87  1  0.20374711  0.82156943  0.74769390  1.0
  C  C88  1  0.11562324  0.90098099  0.08897098  1.0
  C  C89  1  0.17884474  0.86076158  0.12470233  1.0
  C  C90  1  0.24871331  0.88247627  0.08078940  1.0
  C  C91  1  0.30536401  0.79340719  0.17238659  1.0
  C  C92  1  0.32488132  0.68916238  0.29349538  1.0
  C  C93  1  0.36585126  0.63097668  0.35044838  1.0
  C  C94  1  0.24958705  0.70762754  0.29484446  1.0
  C  C95  1  0.18897995  0.66900073  0.35812137  1.0
  C  C96  1  0.23774338  0.76771491  0.22374654  1.0
  C  C97  1  0.17297854  0.80288589  0.19748179  1.0
  S  S98  1  0.66560848  0.21701290  0.66471359  1.0
  S  S99  1  0.65485438  0.20258183  0.40150246  1.0
  S  S100  1  0.17055057  0.44181149  0.67437625  1.0
  S  S101  1  0.69420323  0.65891271  0.18409341  1.0
  S  S102  1  0.42092630  0.69578260  0.65294211  1.0
  S  S103  1  0.38272264  0.74204289  0.20842455  1.0
  N  N104  1  0.75579683  0.10405467  0.75165890  1.0
  N  N105  1  0.74958603  0.08652400  0.33690030  1.0
  N  N106  1  0.05269369  0.37805659  0.76373893  1.0
  N  N107  1  0.78294594  0.74937447  0.06790499  1.0
  N  N108  1  0.35815394  0.78371462  0.74633504  1.0
  N  N109  1  0.31145481  0.84980177  0.10324419  1.0
  O  O110  1  0.98363694  0.00215959  0.97720488  1.0
  O  O111  1  0.90947462  0.03693174  0.85682461  1.0
  O  O112  1  0.85319838  0.14730257  0.89207545  1.0
  O  O113  1  0.59978803  0.44479251  0.57611368  1.0
  O  O114  1  0.56894576  0.34566863  0.58723241  1.0
  O  O115  1  0.88143702  0.01092715  0.14692528  1.0
  O  O116  1  0.84623312  0.13235290  0.06066473  1.0
  O  O117  1  0.56638695  0.43135874  0.32939078  1.0
  O  O118  1  0.55788897  0.33576277  0.44739891  1.0
  O  O119  1  0.10913115  0.10056582  0.87407943  1.0
  O  O120  1  0.98109638  0.18235897  0.90123700  1.0
  O  O121  1  0.30983470  0.48420550  0.58801180  1.0
  O  O122  1  0.40283855  0.36271243  0.59449246  1.0
  O  O123  1  0.90902963  0.86294735  0.11327998  1.0
  O  O124  1  0.92606364  0.87472569  0.99105098  1.0
  O  O125  1  0.61221002  0.56479022  0.31619208  1.0
  O  O126  1  0.61762912  0.58511811  0.41266663  1.0
  O  O127  1  0.16462089  0.92861430  0.86846667  1.0
  O  O128  1  0.07817371  0.90711757  0.84703379  1.0
  O  O129  1  0.34290867  0.63450771  0.55727533  1.0
  O  O130  1  0.46352835  0.60858342  0.56056626  1.0
  O  O131  1  0.12973757  0.95411086  0.02309372  1.0
  O  O132  1  0.05316133  0.88057097  0.12486220  1.0
  O  O133  1  0.32523964  0.60963046  0.42295025  1.0
  O  O134  1  0.44175505  0.60804792  0.32047746  1.0
  O  O135  1  0.48347467  0.50257985  0.47644267  1.0
