# generated using pymatgen
data_Zn8H33C76Cl5O26
_symmetry_space_group_name_H-M   'P 1'
_cell_length_a   18.25619003
_cell_length_b   18.26899481
_cell_length_c   18.41607470
_cell_angle_alpha   89.85052208
_cell_angle_beta   60.34776759
_cell_angle_gamma   60.03065751
_symmetry_Int_Tables_number   1
_chemical_formula_structural   Zn8H33C76Cl5O26
_chemical_formula_sum   'Zn8 H33 C76 Cl5 O26'
_cell_volume   4373.39749629
_cell_formula_units_Z   1
loop_
 _symmetry_equiv_pos_site_id
 _symmetry_equiv_pos_as_xyz
  1  'x, y, z'
loop_
 _atom_site_type_symbol
 _atom_site_label
 _atom_site_symmetry_multiplicity
 _atom_site_fract_x
 _atom_site_fract_y
 _atom_site_fract_z
 _atom_site_occupancy
  Zn  Zn0  1  0.91178266  0.54428359  0.95685070  1.0
  Zn  Zn1  1  0.90484625  0.54606075  0.13090232  1.0
  Zn  Zn2  1  0.08658137  0.54582781  0.95924602  1.0
  Zn  Zn3  1  0.08836093  0.37020262  0.95757809  1.0
  Zn  Zn4  1  0.08801492  0.95640252  0.54042557  1.0
  Zn  Zn5  1  0.91477728  0.95384135  0.53835322  1.0
  Zn  Zn6  1  0.08088442  0.96271781  0.36769726  1.0
  Zn  Zn7  1  0.90959360  0.13119053  0.54547750  1.0
  H  H8  1  0.00399662  0.51181119  0.61952889  1.0
  H  H9  1  0.58918360  0.18228184  0.59631778  1.0
  H  H10  1  0.33841665  0.20286929  0.10591460  1.0
  H  H11  1  0.84787805  0.26222093  0.35622329  1.0
  H  H12  1  0.94595950  0.79113872  0.15816305  1.0
  H  H13  1  0.15548295  0.45998298  0.30888788  1.0
  H  H14  1  0.18157238  0.55505192  0.37741560  1.0
  H  H15  1  0.95081890  0.89073641  0.24524381  1.0
  H  H16  1  0.58971884  0.59796804  0.17356280  1.0
  H  H17  1  0.58704263  0.96726340  0.22945374  1.0
  H  H18  1  0.39485294  0.05963454  0.33015716  1.0
  H  H19  1  0.99593079  0.60999606  0.52462297  1.0
  H  H20  1  0.34193834  0.08232502  0.48244888  1.0
  H  H21  1  0.18632428  0.08657323  0.53651217  1.0
  H  H22  1  0.65951336  0.32251007  0.91867396  1.0
  H  H23  1  0.81950414  0.40737785  0.96345502  1.0
  H  H24  1  0.03166041  0.76715349  0.85723917  1.0
  H  H25  1  0.66261787  0.41457725  0.01621272  1.0
  H  H26  1  0.00864647  0.54721136  0.74496711  1.0
  H  H27  1  0.84942859  0.35662245  0.25754661  1.0
  H  H28  1  0.19416863  0.27915230  0.08967471  1.0
  H  H29  1  0.31851649  0.14559246  0.23352589  1.0
  H  H30  1  0.99760242  0.74006097  0.55387138  1.0
  H  H31  1  0.11167370  0.71041457  0.37614715  1.0
  H  H32  1  0.30339814  0.98740520  0.36346535  1.0
  H  H33  1  0.39811755  0.69382781  0.26883157  1.0
  H  H34  1  0.81410530  0.22188662  0.77031913  1.0
  H  H35  1  0.03477107  0.85922573  0.75647264  1.0
  H  H36  1  0.39853145  0.28556765  0.69539889  1.0
  H  H37  1  0.42921767  0.31065667  0.04675995  1.0
  H  H38  1  0.62072831  0.20319877  0.94498937  1.0
  H  H39  1  0.70384658  0.14914706  0.78435718  1.0
  H  H40  1  0.18656228  0.28223566  0.72486533  1.0
  C  C41  1  0.00463830  0.36068009  0.13727514  1.0
  C  C42  1  0.73009907  0.31764245  0.89521459  1.0
  C  C43  1  0.73180425  0.37019851  0.95031637  1.0
  C  C44  1  0.00239591  0.63964513  0.86199557  1.0
  C  C45  1  0.81956668  0.36595485  0.92096803  1.0
  C  C46  1  0.00649767  0.58977737  0.70368010  1.0
  C  C47  1  0.00347486  0.57017042  0.63338109  1.0
  C  C48  1  0.99948250  0.62522168  0.57956348  1.0
  C  C49  1  0.00061452  0.69813646  0.59581568  1.0
  C  C50  1  0.00512173  0.71984983  0.66694762  1.0
  C  C51  1  0.00653626  0.66496747  0.72337187  1.0
  C  C52  1  0.18453154  0.13070243  0.57801053  1.0
  C  C53  1  0.01233893  0.68636748  0.79444892  1.0
  C  C54  1  0.02468410  0.75382925  0.80411448  1.0
  C  C55  1  0.02590997  0.80580438  0.74778695  1.0
  C  C56  1  0.71879991  0.63941919  0.13277870  1.0
  C  C57  1  0.01299156  0.79161723  0.68233072  1.0
  C  C58  1  0.40667783  0.31313642  0.94337331  1.0
  C  C59  1  0.46671578  0.28545320  0.97590730  1.0
  C  C60  1  0.57438727  0.22558980  0.91830213  1.0
  C  C61  1  0.62049556  0.19541655  0.82888456  1.0
  C  C62  1  0.56094969  0.22278758  0.79342187  1.0
  C  C63  1  0.09224502  0.18908315  0.66352291  1.0
  C  C64  1  0.45011596  0.28279383  0.85128696  1.0
  C  C65  1  0.39325800  0.30544597  0.81294135  1.0
  C  C66  1  0.44350943  0.26887179  0.72309446  1.0
  C  C67  1  0.55131029  0.21013795  0.66689200  1.0
  C  C68  1  0.27758691  0.36491227  0.86451367  1.0
  C  C69  1  0.60908390  0.18876058  0.70099749  1.0
  C  C70  1  0.18781954  0.24931943  0.14181479  1.0
  C  C71  1  0.26811731  0.20716971  0.15129855  1.0
  C  C72  1  0.25826035  0.17316034  0.22193785  1.0
  C  C73  1  0.17011284  0.17715218  0.27880655  1.0
  C  C74  1  0.09287735  0.24476073  0.71845406  1.0
  C  C75  1  0.08901392  0.21193368  0.26653573  1.0
  C  C76  1  0.09614302  0.25484841  0.19980341  1.0
  C  C77  1  0.00702303  0.30687673  0.19846398  1.0
  C  C78  1  0.91758030  0.31350143  0.25746872  1.0
  C  C79  1  0.91568751  0.26258398  0.31476647  1.0
  C  C80  1  0.99799580  0.63050894  0.14552669  1.0
  C  C81  1  0.00012418  0.21101527  0.31826978  1.0
  C  C82  1  0.08099265  0.55931515  0.26236983  1.0
  C  C83  1  0.12888788  0.52734877  0.30545806  1.0
  C  C84  1  0.14221308  0.58148082  0.34481091  1.0
  C  C85  1  0.00078999  0.19554368  0.69512741  1.0
  C  C86  1  0.10344497  0.66797769  0.34389485  1.0
  C  C87  1  0.05331235  0.70302632  0.30065525  1.0
  C  C88  1  0.04507284  0.64676417  0.25436561  1.0
  C  C89  1  0.00494877  0.68152694  0.20319377  1.0
  C  C90  1  0.97407124  0.76696599  0.19932871  1.0
  C  C91  1  0.97776862  0.82294794  0.24749515  1.0
  C  C92  1  0.00307501  0.36052717  0.86000038  1.0
  C  C93  1  0.01476616  0.79245567  0.29866600  1.0
  C  C94  1  0.60164258  0.84458350  0.20744265  1.0
  C  C95  1  0.54608384  0.93581617  0.24520855  1.0
  C  C96  1  0.90987296  0.25438760  0.77915585  1.0
  C  C97  1  0.43797687  0.98744328  0.30203380  1.0
  C  C98  1  0.38697017  0.94718368  0.32067102  1.0
  C  C99  1  0.44166777  0.85372476  0.28312358  1.0
  C  C100  1  0.55272421  0.79903554  0.22471571  1.0
  C  C101  1  0.60401063  0.70552307  0.18751596  1.0
  C  C102  1  0.54850630  0.66955635  0.20342451  1.0
  C  C103  1  0.44045898  0.72330007  0.25785333  1.0
  C  C104  1  0.18451769  0.24080776  0.68453323  1.0
  C  C105  1  0.38793615  0.81323354  0.29868947  1.0
  C  C106  1  0.72401784  0.13165039  0.63944991  1.0
  C  C107  1  0.91111741  0.30881656  0.83477068  1.0
  C  C108  1  0.27278133  0.86777976  0.35886132  1.0
  C  C109  1  0.00720773  0.85443866  0.62982123  1.0
  C  C110  1  0.99593458  0.14849126  0.37037186  1.0
  C  C111  1  0.00821152  0.85689623  0.35543642  1.0
  C  C112  1  0.00004252  0.13843334  0.63762959  1.0
  C  C113  1  0.27043211  0.18426163  0.60153409  1.0
  C  C114  1  0.27171015  0.12774756  0.54735055  1.0
  C  C115  1  0.00253140  0.30279329  0.80292709  1.0
  C  C116  1  0.81666279  0.26123365  0.81226050  1.0
  Cl  Cl117  1  0.27539550  0.38636970  0.02099866  1.0
  Cl  Cl118  1  0.15488988  0.14888000  0.37319683  1.0
  Cl  Cl119  1  0.06405008  0.48838027  0.22087294  1.0
  Cl  Cl120  1  0.38139456  0.18021235  0.56029503  1.0
  Cl  Cl121  1  0.73400852  0.78892803  0.13480128  1.0
  O  O122  1  0.99891293  0.50132560  0.00119149  1.0
  O  O123  1  0.06610858  0.06554855  0.32724159  1.0
  O  O124  1  0.96454920  0.86355231  0.43713075  1.0
  O  O125  1  0.07353227  0.32017932  0.05478698  1.0
  O  O126  1  0.94599147  0.17881661  0.60790976  1.0
  O  O127  1  0.04362473  0.90149435  0.31888912  1.0
  O  O128  1  0.05362020  0.05457822  0.62340009  1.0
  O  O129  1  0.07379345  0.87240397  0.60310975  1.0
  O  O130  1  0.91886309  0.18279671  0.45075307  1.0
  O  O131  1  0.76791996  0.05101456  0.59725840  1.0
  O  O132  1  0.22627667  0.87278198  0.32349246  1.0
  O  O133  1  0.76397139  0.61118142  0.04957410  1.0
  O  O134  1  0.93947932  0.61797865  0.88527877  1.0
  O  O135  1  0.75898153  0.61316084  0.17576365  1.0
  O  O136  1  0.23450544  0.44826693  0.87713334  1.0
  O  O137  1  0.91849959  0.62966659  0.18119187  1.0
  O  O138  1  0.06063713  0.32087461  0.88685332  1.0
  O  O139  1  0.07053557  0.59877755  0.06368721  1.0
  O  O140  1  0.94576410  0.44442108  0.87655529  1.0
  O  O141  1  0.23462153  0.32362528  0.88466513  1.0
  O  O142  1  0.93141841  0.44354899  0.17461100  1.0
  O  O143  1  0.05551602  0.62719406  0.89279856  1.0
  O  O144  1  0.99944998  0.00050179  0.49749961  1.0
  O  O145  1  0.76786560  0.17000277  0.63438411  1.0
  O  O146  1  0.23160609  0.90300620  0.44017343  1.0
  O  O147  1  0.93541813  0.88651531  0.61777930  1.0
