# generated using pymatgen
data_Zn4H54(C15N4)5
_symmetry_space_group_name_H-M   'P 1'
_cell_length_a   18.61829557
_cell_length_b   20.46927976
_cell_length_c   21.28781811
_cell_angle_alpha   102.85489652
_cell_angle_beta   107.39364091
_cell_angle_gamma   115.39285031
_symmetry_Int_Tables_number   1
_chemical_formula_structural   Zn4H54(C15N4)5
_chemical_formula_sum   'Zn4 H54 C75 N20'
_cell_volume   6389.15215816
_cell_formula_units_Z   1
loop_
 _symmetry_equiv_pos_site_id
 _symmetry_equiv_pos_as_xyz
  1  'x, y, z'
loop_
 _atom_site_type_symbol
 _atom_site_label
 _atom_site_symmetry_multiplicity
 _atom_site_fract_x
 _atom_site_fract_y
 _atom_site_fract_z
 _atom_site_occupancy
  Zn  Zn0  1  0.40764673  0.37093900  0.49289224  1.0
  Zn  Zn1  1  0.63471192  0.63291606  0.50305558  1.0
  Zn  Zn2  1  0.41173756  0.49929318  0.41220429  1.0
  Zn  Zn3  1  0.63967607  0.53387230  0.60940299  1.0
  H  H4  1  0.24113899  0.20885645  0.34080923  1.0
  H  H5  1  0.63127633  0.78268718  0.54210821  1.0
  H  H6  1  0.29574768  0.54495193  0.45844001  1.0
  H  H7  1  0.69540376  0.66293934  0.75145822  1.0
  H  H8  1  0.75008917  0.82039806  0.64285272  1.0
  H  H9  1  0.20879189  0.32358499  0.48335481  1.0
  H  H10  1  0.65446788  0.51753792  0.76294097  1.0
  H  H11  1  0.36636455  0.63366069  0.36508829  1.0
  H  H12  1  0.66583273  0.10121611  0.48366297  1.0
  H  H13  1  0.66042848  0.22182938  0.50405260  1.0
  H  H14  1  0.37593021  0.07926506  0.37701328  1.0
  H  H15  1  0.73333911  0.57099292  0.42487303  1.0
  H  H16  1  0.38131003  0.95878996  0.35669058  1.0
  H  H17  1  0.41624356  0.86741426  0.31566938  1.0
  H  H18  1  0.40537455  0.74763775  0.32878869  1.0
  H  H19  1  0.61864465  0.89101703  0.54462829  1.0
  H  H20  1  0.62976651  0.01023044  0.53113091  1.0
  H  H21  1  0.91447513  0.49141474  0.36377369  1.0
  H  H22  1  0.81294567  0.52708228  0.38801484  1.0
  H  H23  1  0.70209075  0.32564271  0.44018706  1.0
  H  H24  1  0.80366267  0.28958606  0.41483687  1.0
  H  H25  1  0.95106573  0.34387323  0.48329743  1.0
  H  H26  1  0.43084685  0.39351487  0.29401772  1.0
  H  H27  1  0.09989884  0.36401920  0.51711210  1.0
  H  H28  1  0.12055818  0.44851747  0.35157168  1.0
  H  H29  1  0.97089609  0.42742190  0.31674281  1.0
  H  H30  1  0.39857523  0.37825449  0.16080588  1.0
  H  H31  1  0.39446557  0.34078671  0.03946042  1.0
  H  H32  1  0.34845137  0.37124966  0.85368976  1.0
  H  H33  1  0.36106818  0.39730856  0.74699808  1.0
  H  H34  1  0.68457178  0.52604718  0.25850920  1.0
  H  H35  1  0.61156327  0.41242063  0.93419784  1.0
  H  H36  1  0.67926869  0.48669939  0.13635299  1.0
  H  H37  1  0.62284656  0.29663549  0.58500113  1.0
  H  H38  1  0.62337791  0.43416875  0.82632831  1.0
  H  H39  1  0.82469695  0.78949689  0.85887234  1.0
  H  H40  1  0.92450285  0.02446007  0.17444867  1.0
  H  H41  1  0.06677906  0.13320012  0.28144426  1.0
  H  H42  1  0.71126726  0.89630084  0.74303807  1.0
  H  H43  1  0.96409370  0.16928730  0.05450792  1.0
  H  H44  1  0.76820989  0.00450097  0.86034766  1.0
  H  H45  1  0.10561364  0.27771112  0.16029573  1.0
  H  H46  1  0.65343940  0.61929312  0.33741925  1.0
  H  H47  1  0.39651048  0.22065459  0.38718535  1.0
  H  H48  1  0.66350522  0.39857216  0.51779671  1.0
  H  H49  1  0.21791016  0.38458363  0.27005748  1.0
  H  H50  1  0.37012124  0.37680715  0.62661028  1.0
  H  H51  1  0.02971997  0.97565188  0.13573298  1.0
  H  H52  1  0.04485369  0.90239881  0.08970914  1.0
  H  H53  1  0.12198245  0.00439391  0.11601393  1.0
  H  H54  1  0.01914231  0.94183458  0.98342050  1.0
  H  H55  1  0.00451486  0.01371334  0.03059091  1.0
  H  H56  1  0.87394034  0.90118166  0.03434676  1.0
  H  H57  1  0.88734065  0.83354608  0.97857609  1.0
  C  C58  1  0.25020500  0.26186548  0.33253512  1.0
  C  C59  1  0.71270545  0.46717047  0.45420644  1.0
  C  C60  1  0.54334089  0.49051303  0.28701024  1.0
  C  C61  1  0.51270497  0.22961110  0.47110542  1.0
  C  C62  1  0.44211917  0.41381293  0.65027207  1.0
  C  C63  1  0.56571787  0.73502584  0.50026801  1.0
  C  C64  1  0.28852994  0.49251233  0.46698199  1.0
  C  C65  1  0.70601796  0.69134278  0.71483608  1.0
  C  C66  1  0.73167656  0.77085826  0.65858232  1.0
  C  C67  1  0.24467643  0.38024418  0.48078447  1.0
  C  C68  1  0.58717153  0.48471976  0.71989291  1.0
  C  C69  1  0.71286209  0.53625239  0.45485363  1.0
  C  C70  1  0.43122228  0.65910807  0.40935686  1.0
  C  C71  1  0.50597614  0.43826874  0.72034279  1.0
  C  C72  1  0.50183628  0.73876012  0.44840090  1.0
  C  C73  1  0.21356123  0.42800583  0.46193420  1.0
  C  C74  1  0.73503214  0.77016524  0.72544548  1.0
  C  C75  1  0.60177379  0.09591713  0.46045388  1.0
  C  C76  1  0.59873857  0.16403790  0.47177424  1.0
  C  C77  1  0.51719453  0.15984285  0.44475287  1.0
  C  C78  1  0.44012018  0.08460420  0.39925364  1.0
  C  C79  1  0.44327559  0.01644813  0.38776589  1.0
  C  C80  1  0.48575134  0.45428011  0.31541036  1.0
  C  C81  1  0.52344763  0.02029151  0.42119040  1.0
  C  C82  1  0.46045206  0.87297477  0.36641369  1.0
  C  C83  1  0.45406333  0.80510737  0.37394318  1.0
  C  C84  1  0.50966258  0.80942914  0.43839350  1.0
  C  C85  1  0.57458800  0.88515334  0.49364248  1.0
  C  C86  1  0.58129366  0.95283154  0.48591936  1.0
  C  C87  1  0.52301256  0.94844563  0.42280555  1.0
  C  C88  1  0.86699208  0.45384407  0.37935591  1.0
  C  C89  1  0.80969294  0.47436001  0.39370173  1.0
  C  C90  1  0.75416502  0.43284332  0.42153826  1.0
  C  C91  1  0.56721742  0.28990757  0.54204168  1.0
  C  C92  1  0.74935001  0.36301108  0.42423664  1.0
  C  C93  1  0.80684826  0.34256585  0.40985603  1.0
  C  C94  1  0.87140444  0.39080672  0.39206727  1.0
  C  C95  1  0.98703291  0.36521257  0.45296801  1.0
  C  C96  1  0.07136877  0.37715739  0.47249858  1.0
  C  C97  1  0.12284058  0.41091362  0.43883108  1.0
  C  C98  1  0.08375952  0.42670224  0.38128864  1.0
  C  C99  1  0.99920868  0.41442916  0.36155153  1.0
  C  C100  1  0.95029300  0.38633975  0.39895415  1.0
  C  C101  1  0.49408048  0.41947456  0.77991251  1.0
  C  C102  1  0.59979291  0.56963044  0.33831227  1.0
  C  C103  1  0.56364568  0.42196247  0.83298578  1.0
  C  C104  1  0.55719543  0.40881159  0.89254685  1.0
  C  C105  1  0.47948835  0.39162388  0.90059552  1.0
  C  C106  1  0.40801912  0.38478646  0.84637305  1.0
  C  C107  1  0.41545035  0.39916166  0.78707812  1.0
  C  C108  1  0.45743502  0.38077911  0.08791838  1.0
  C  C109  1  0.46035429  0.40201937  0.15561190  1.0
  C  C110  1  0.53679610  0.41442799  0.08097239  1.0
  C  C111  1  0.54165082  0.45795848  0.21783273  1.0
  C  C112  1  0.62088019  0.48587779  0.21057423  1.0
  C  C113  1  0.45067198  0.24888234  0.44106832  1.0
  C  C114  1  0.61861857  0.46372018  0.14310860  1.0
  C  C115  1  0.09880481  0.21166913  0.22719813  1.0
  C  C116  1  0.06526667  0.22262237  0.16399202  1.0
  C  C117  1  0.98635492  0.16273223  0.10490687  1.0
  C  C118  1  0.93744471  0.08917129  0.10735190  1.0
  C  C119  1  0.96472488  0.08087280  0.17269939  1.0
  C  C120  1  0.04457020  0.14125506  0.23178109  1.0
  C  C121  1  0.83914077  0.89351598  0.92554631  1.0
  C  C122  1  0.80913001  0.83525685  0.85890841  1.0
  C  C123  1  0.82274018  0.95545891  0.92513766  1.0
  C  C124  1  0.67688559  0.44738132  0.50135223  1.0
  C  C125  1  0.76354522  0.83419896  0.79236306  1.0
  C  C126  1  0.74770240  0.89566445  0.79344692  1.0
  C  C127  1  0.77813711  0.95546853  0.85872518  1.0
  C  C128  1  0.23818818  0.35082494  0.29541509  1.0
  C  C129  1  0.18896737  0.27066378  0.28275523  1.0
  C  C130  1  0.89588804  0.89242462  0.99255325  1.0
  C  C131  1  0.99554193  0.95536250  0.02331756  1.0
  C  C132  1  0.05116813  0.95957258  0.09506457  1.0
  N  N133  1  0.32928314  0.33109801  0.37157569  1.0
  N  N134  1  0.53631133  0.65932041  0.49222753  1.0
  N  N135  1  0.35902785  0.48333973  0.48624782  1.0
  N  N136  1  0.68777714  0.64911210  0.64757051  1.0
  N  N137  1  0.70423607  0.69850041  0.61238066  1.0
  N  N138  1  0.33043508  0.41344077  0.49430079  1.0
  N  N139  1  0.57111475  0.48573268  0.65435500  1.0
  N  N140  1  0.45288385  0.61275934  0.43590435  1.0
  N  N141  1  0.47011986  0.38676379  0.96291503  1.0
  N  N142  1  0.54209916  0.40880241  0.01571053  1.0
  N  N143  1  0.87316935  0.01801518  0.04588940  1.0
  N  N144  1  0.68103022  0.55679332  0.49939104  1.0
  N  N145  1  0.86128473  0.02488421  0.98627304  1.0
  N  N146  1  0.50655106  0.50787097  0.37842589  1.0
  N  N147  1  0.54062068  0.34049130  0.55441442  1.0
  N  N148  1  0.57670503  0.57972913  0.39210428  1.0
  N  N149  1  0.46868527  0.31518784  0.49165895  1.0
  N  N150  1  0.65854973  0.50160716  0.52808524  1.0
  N  N151  1  0.32061805  0.38575745  0.34825977  1.0
  N  N152  1  0.48198076  0.44173654  0.61072528  1.0
