# generated using pymatgen
data_Zn4H25C52NO17
_symmetry_space_group_name_H-M   'P 1'
_cell_length_a   15.30953339
_cell_length_b   15.59504383
_cell_length_c   17.96442111
_cell_angle_alpha   70.07029209
_cell_angle_beta   89.55644826
_cell_angle_gamma   67.99984855
_symmetry_Int_Tables_number   1
_chemical_formula_structural   Zn4H25C52NO17
_chemical_formula_sum   'Zn4 H25 C52 N1 O17'
_cell_volume   3703.01067053
_cell_formula_units_Z   1
loop_
 _symmetry_equiv_pos_site_id
 _symmetry_equiv_pos_as_xyz
  1  'x, y, z'
loop_
 _atom_site_type_symbol
 _atom_site_label
 _atom_site_symmetry_multiplicity
 _atom_site_fract_x
 _atom_site_fract_y
 _atom_site_fract_z
 _atom_site_occupancy
  Zn  Zn0  1  0.42956564  0.57506517  0.56707007  1.0
  Zn  Zn1  1  0.54987734  0.57453034  0.41898535  1.0
  Zn  Zn2  1  0.40569192  0.47144139  0.44824645  1.0
  Zn  Zn3  1  0.60282384  0.37613817  0.56802822  1.0
  H  H4  1  0.79155008  0.34183184  0.04399164  1.0
  H  H5  1  0.57938397  0.46482583  0.19664570  1.0
  H  H6  1  0.30485293  0.67739423  0.19837781  1.0
  H  H7  1  0.30720985  0.70526021  0.92735800  1.0
  H  H8  1  0.80976849  0.28151050  0.93066292  1.0
  H  H9  1  0.74803670  0.30070523  0.79535706  1.0
  H  H10  1  0.48538219  0.52806706  0.80004089  1.0
  H  H11  1  0.41151145  0.61081511  0.85407591  1.0
  H  H12  1  0.26758892  0.72764295  0.05093494  1.0
  H  H13  1  0.88298460  0.27741851  0.48526610  1.0
  H  H14  1  0.19339221  0.28043589  0.51841862  1.0
  H  H15  1  0.82867664  0.56407888  0.49347354  1.0
  H  H16  1  0.11522501  0.72672021  0.54152836  1.0
  H  H17  1  0.87657105  0.65451155  0.51190378  1.0
  H  H18  1  0.94050335  0.76767579  0.53359817  1.0
  H  H19  1  0.38291994  0.89761025  0.30780901  1.0
  H  H20  1  0.36400655  0.20958277  0.30919978  1.0
  H  H21  1  0.35389936  0.07642459  0.27238482  1.0
  H  H22  1  0.48388430  0.83533037  0.54977892  1.0
  H  H23  1  0.59442979  0.10468340  0.66957096  1.0
  H  H24  1  0.54081683  0.87638719  0.62144894  1.0
  H  H25  1  0.60853640  0.92929324  0.71260753  1.0
  H  H26  1  0.41718542  0.26660257  0.40441469  1.0
  H  H27  1  0.31207999  0.33512933  0.54082648  1.0
  H  H28  1  0.66731367  0.49473506  0.14288831  1.0
  C  C29  1  0.74208276  0.44654380  0.48617001  1.0
  C  C30  1  0.24981082  0.57369031  0.52041968  1.0
  C  C31  1  0.45065392  0.75134636  0.45377917  1.0
  C  C32  1  0.50777629  0.25374585  0.53766086  1.0
  C  C33  1  0.46638682  0.54096362  0.29204047  1.0
  C  C34  1  0.57556985  0.43317446  0.70848422  1.0
  C  C35  1  0.61252678  0.41720789  0.79050985  1.0
  C  C36  1  0.44697169  0.57080985  0.20354248  1.0
  C  C37  1  0.73831447  0.33536810  0.90225770  1.0
  C  C38  1  0.70469558  0.34577060  0.82743349  1.0
  C  C39  1  0.55589013  0.47497362  0.83062846  1.0
  C  C40  1  0.58765470  0.46491703  0.90766928  1.0
  C  C41  1  0.68173619  0.39437664  0.94389974  1.0
  C  C42  1  0.52858640  0.52195031  0.95155966  1.0
  C  C43  1  0.56217224  0.50626313  0.03073182  1.0
  C  C44  1  0.66158589  0.44475902  0.05930712  1.0
  C  C45  1  0.71741677  0.38866842  0.01861336  1.0
  C  C46  1  0.43585811  0.59544762  0.91577370  1.0
  C  C47  1  0.37717589  0.64813130  0.95647458  1.0
  C  C48  1  0.40372450  0.62616534  0.03864098  1.0
  C  C49  1  0.49625093  0.55295497  0.07763867  1.0
  C  C50  1  0.33706018  0.67179725  0.08266502  1.0
  C  C51  1  0.35717645  0.64436194  0.16403099  1.0
  C  C52  1  0.51468753  0.52657280  0.16156706  1.0
  C  C53  1  0.00486197  0.31246174  0.49059051  1.0
  C  C54  1  0.84559287  0.42417059  0.48936751  1.0
  C  C55  1  0.08716441  0.67407590  0.53607122  1.0
  C  C56  1  0.98896958  0.69728031  0.53058200  1.0
  C  C57  1  0.95327301  0.63282018  0.51870429  1.0
  C  C58  1  0.01426168  0.54017944  0.51573592  1.0
  C  C59  1  0.11420045  0.51469165  0.52551015  1.0
  C  C60  1  0.97814875  0.47112063  0.50350432  1.0
  C  C61  1  0.04414508  0.37834024  0.50071665  1.0
  C  C62  1  0.14313028  0.35283627  0.51582562  1.0
  C  C63  1  0.17654384  0.41598563  0.53183054  1.0
  C  C64  1  0.88029240  0.49295391  0.49455687  1.0
  C  C65  1  0.90891018  0.33215779  0.48895401  1.0
  C  C66  1  0.14929912  0.58527916  0.53116738  1.0
  C  C67  1  0.38409898  0.02297330  0.33289801  1.0
  C  C68  1  0.43425284  0.85776157  0.43178606  1.0
  C  C69  1  0.56251754  0.08113883  0.63036068  1.0
  C  C70  1  0.57076572  0.98286940  0.65403537  1.0
  C  C71  1  0.53214212  0.95361498  0.60244990  1.0
  C  C72  1  0.48417706  0.02076170  0.52565207  1.0
  C  C73  1  0.47296427  0.12231176  0.50166872  1.0
  C  C74  1  0.45003257  0.98792477  0.46946622  1.0
  C  C75  1  0.40949792  0.05642145  0.39014523  1.0
  C  C76  1  0.39734807  0.15738104  0.36943540  1.0
  C  C77  1  0.42711059  0.18925178  0.42250961  1.0
  C  C78  1  0.45761497  0.88958520  0.48925545  1.0
  C  C79  1  0.39900942  0.92464278  0.35226126  1.0
  C  C80  1  0.51316693  0.15084335  0.55621130  1.0
  N  N81  1  0.06479208  0.21814739  0.48196346  1.0
  O  O82  1  0.49668156  0.49744140  0.50271629  1.0
  O  O83  1  0.71832061  0.37277024  0.51574278  1.0
  O  O84  1  0.29666566  0.58675720  0.57102203  1.0
  O  O85  1  0.47343310  0.71522032  0.39876905  1.0
  O  O86  1  0.43188454  0.32712235  0.49529753  1.0
  O  O87  1  0.53875173  0.54834469  0.31964115  1.0
  O  O88  1  0.62702992  0.37367727  0.67561668  1.0
  O  O89  1  0.40658722  0.51272671  0.33215621  1.0
  O  O90  1  0.49550609  0.50535137  0.67685794  1.0
  O  O91  1  0.44216680  0.70422249  0.52531238  1.0
  O  O92  1  0.57868853  0.26121745  0.56710521  1.0
  O  O93  1  0.68465817  0.53789701  0.45440707  1.0
  O  O94  1  0.27787262  0.55829225  0.45728663  1.0
  O  O95  1  0.13912630  0.21281247  0.45164170  1.0
  O  O96  1  0.03650635  0.14960124  0.50390749  1.0
  O  O97  1  0.26937239  0.38733020  0.55846189  1.0
  O  O98  1  0.70670435  0.43998014  0.12703922  1.0
