# generated using pymatgen
data_AlH6C12ClO6
_symmetry_space_group_name_H-M   'P 1'
_cell_length_a   6.65155309
_cell_length_b   11.08000971
_cell_length_c   17.75453263
_cell_angle_alpha   78.92726748
_cell_angle_beta   80.42956114
_cell_angle_gamma   73.50400198
_symmetry_Int_Tables_number   1
_chemical_formula_structural   AlH6C12ClO6
_chemical_formula_sum   'Al2 H12 C24 Cl2 O12'
_cell_volume   1222.57198166
_cell_formula_units_Z   2
loop_
 _symmetry_equiv_pos_site_id
 _symmetry_equiv_pos_as_xyz
  1  'x, y, z'
loop_
 _atom_site_type_symbol
 _atom_site_label
 _atom_site_symmetry_multiplicity
 _atom_site_fract_x
 _atom_site_fract_y
 _atom_site_fract_z
 _atom_site_occupancy
  Al  Al0  1  0.49919628  0.49959027  0.50019785  1.0
  Al  Al1  1  0.99946532  0.49951852  0.49978324  1.0
  H  H2  1  0.24075431  0.42869217  0.59558616  1.0
  H  H3  1  0.75667482  0.57034154  0.40444090  1.0
  H  H4  1  0.36925108  0.88323716  0.52109368  1.0
  H  H5  1  0.62847307  0.11568620  0.47942318  1.0
  H  H6  1  0.40074317  0.42375106  0.73302677  1.0
  H  H7  1  0.32201088  0.41331947  0.87570167  1.0
  H  H8  1  0.79390024  0.61493885  0.87065242  1.0
  H  H9  1  0.21521132  0.38314978  0.12830776  1.0
  H  H10  1  0.59440326  0.58071538  0.26747445  1.0
  H  H11  1  0.67540883  0.59229897  0.12482802  1.0
  H  H12  1  0.20780190  0.21231332  0.52965860  1.0
  H  H13  1  0.79030325  0.78677315  0.47031512  1.0
  C  C14  1  0.68842069  0.51241981  0.63666344  1.0
  C  C15  1  0.84902883  0.26857327  0.50649728  1.0
  C  C16  1  0.31071589  0.48720256  0.36321127  1.0
  C  C17  1  0.14925152  0.73051990  0.49363820  1.0
  C  C18  1  0.92811608  0.13080968  0.50328484  1.0
  C  C19  1  0.06971820  0.86814829  0.49720650  1.0
  C  C20  1  0.13976761  0.06369980  0.51608048  1.0
  C  C21  1  0.85798355  0.93521385  0.48449985  1.0
  C  C22  1  0.20631632  0.93346228  0.51288532  1.0
  C  C23  1  0.79133769  0.06545327  0.48775070  1.0
  C  C24  1  0.64483618  0.51951830  0.72112080  1.0
  C  C25  1  0.48734929  0.46397095  0.76427026  1.0
  C  C26  1  0.44291643  0.45834406  0.84366649  1.0
  C  C27  1  0.55589792  0.51117595  0.88350318  1.0
  C  C28  1  0.70924103  0.57092847  0.84098700  1.0
  C  C29  1  0.75395890  0.57486078  0.76113527  1.0
  C  C30  1  0.51749174  0.50463552  0.96477092  1.0
  C  C31  1  0.48643773  0.49773951  0.03500203  1.0
  C  C32  1  0.44741487  0.49063088  0.11628531  1.0
  C  C33  1  0.29676736  0.42841170  0.15838746  1.0
  C  C34  1  0.25084469  0.42372464  0.23825419  1.0
  C  C35  1  0.35605641  0.48077432  0.27869690  1.0
  C  C36  1  0.51117581  0.53872239  0.23595564  1.0
  C  C37  1  0.55669774  0.54519901  0.15652821  1.0
  Cl  Cl38  1  0.94072541  0.65452808  0.71562394  1.0
  Cl  Cl39  1  0.06725179  0.34140938  0.28330805  1.0
  O  O40  1  0.54356782  0.49328047  0.60518285  1.0
  O  O41  1  0.98360129  0.32574445  0.51830610  1.0
  O  O42  1  0.13100109  0.47755470  0.39741720  1.0
  O  O43  1  0.34132102  0.67478167  0.50163410  1.0
  O  O44  1  0.45462409  0.50635228  0.39516511  1.0
  O  O45  1  0.01524917  0.67333811  0.48135010  1.0
  O  O46  1  0.86795887  0.52156003  0.60206393  1.0
  O  O47  1  0.65684761  0.32438074  0.49874439  1.0
  O  O48  1  0.25821714  0.44269603  0.53949485  1.0
  O  O49  1  0.74023737  0.55643021  0.46052890  1.0
  O  O50  1  0.28130506  0.12012019  0.53157227  1.0
  O  O51  1  0.71655105  0.87884113  0.46886388  1.0
