# generated using pymatgen
data_Zn4H7C17ClO13
_symmetry_space_group_name_H-M   'P 1'
_cell_length_a   10.93344646
_cell_length_b   11.01070691
_cell_length_c   16.13653870
_cell_angle_alpha   90.24533125
_cell_angle_beta   98.46333577
_cell_angle_gamma   98.93399651
_symmetry_Int_Tables_number   1
_chemical_formula_structural   Zn4H7C17ClO13
_chemical_formula_sum   'Zn4 H7 C17 Cl1 O13'
_cell_volume   1897.39903323
_cell_formula_units_Z   1
loop_
 _symmetry_equiv_pos_site_id
 _symmetry_equiv_pos_as_xyz
  1  'x, y, z'
loop_
 _atom_site_type_symbol
 _atom_site_label
 _atom_site_symmetry_multiplicity
 _atom_site_fract_x
 _atom_site_fract_y
 _atom_site_fract_z
 _atom_site_occupancy
  Zn  Zn0  1  0.40746217  0.59120390  0.56870199  1.0
  Zn  Zn1  1  0.60646962  0.61986375  0.44018828  1.0
  Zn  Zn2  1  0.37924239  0.38705827  0.41849607  1.0
  Zn  Zn3  1  0.60090488  0.40238654  0.57242756  1.0
  H  H4  1  0.59614205  0.40742057  0.01014192  1.0
  H  H5  1  0.40507617  0.58903004  0.99022026  1.0
  H  H6  1  0.03390134  0.59506570  0.56698579  1.0
  H  H7  1  0.39545279  0.98578684  0.43216505  1.0
  H  H8  1  0.69643831  0.94450610  0.62599376  1.0
  H  H9  1  0.72105221  0.08531252  0.57176151  1.0
  H  H10  1  0.61665291  0.06926778  0.64551474  1.0
  C  C11  1  0.83388410  0.52686934  0.51862183  1.0
  C  C12  1  0.52597392  0.83237697  0.51675812  1.0
  C  C13  1  0.47558518  0.16816790  0.48390934  1.0
  C  C14  1  0.48122142  0.51508019  0.27557230  1.0
  C  C15  1  0.51726892  0.48527681  0.72514989  1.0
  C  C16  1  0.47550022  0.51991525  0.18577996  1.0
  C  C17  1  0.46719619  0.52978238  0.02272381  1.0
  C  C18  1  0.53411421  0.46660367  0.97760217  1.0
  C  C19  1  0.65090602  0.01905696  0.59698377  1.0
  C  C20  1  0.52722544  0.47379368  0.89033262  1.0
  C  C21  1  0.47265152  0.52379918  0.10994194  1.0
  C  C22  1  0.52308827  0.47854248  0.81441263  1.0
  C  C23  1  0.02326851  0.46146386  0.47272057  1.0
  C  C24  1  0.97154707  0.53114388  0.52186672  1.0
  C  C25  1  0.46873056  0.03369000  0.47952207  1.0
  C  C26  1  0.54514725  0.96979099  0.52899207  1.0
  C  C27  1  0.16308289  0.47128011  0.47965909  1.0
  Cl  Cl28  1  0.93355259  0.35779325  0.39932410  1.0
  O  O29  1  0.49775756  0.50117979  0.49850524  1.0
  O  O30  1  0.56450683  0.59452872  0.31800008  1.0
  O  O31  1  0.58314193  0.41861885  0.69114601  1.0
  O  O32  1  0.40305911  0.43248822  0.30265302  1.0
  O  O33  1  0.44680137  0.55740882  0.68839367  1.0
  O  O34  1  0.44931693  0.77091244  0.55885450  1.0
  O  O35  1  0.55859780  0.22901533  0.53927907  1.0
  O  O36  1  0.78441378  0.60310289  0.47079005  1.0
  O  O37  1  0.20536796  0.40443025  0.42989791  1.0
  O  O38  1  0.78077640  0.44931405  0.56523791  1.0
  O  O39  1  0.22595173  0.54728348  0.53594637  1.0
  O  O40  1  0.59178140  0.79093621  0.46767667  1.0
  O  O41  1  0.39648741  0.21394797  0.43124168  1.0
