# generated using pymatgen
data_Zr3H22C22(NO8)2
_symmetry_space_group_name_H-M   'P 1'
_cell_length_a   12.83538629
_cell_length_b   17.46543634
_cell_length_c   17.50637200
_cell_angle_alpha   85.23958635
_cell_angle_beta   70.96178840
_cell_angle_gamma   70.89956775
_symmetry_Int_Tables_number   1
_chemical_formula_structural   Zr3H22C22(NO8)2
_chemical_formula_sum   'Zr6 H44 C44 N4 O32'
_cell_volume   3504.35733160
_cell_formula_units_Z   2
loop_
 _symmetry_equiv_pos_site_id
 _symmetry_equiv_pos_as_xyz
  1  'x, y, z'
loop_
 _atom_site_type_symbol
 _atom_site_label
 _atom_site_symmetry_multiplicity
 _atom_site_fract_x
 _atom_site_fract_y
 _atom_site_fract_z
 _atom_site_occupancy
  Zr  Zr0  1  0.02820197  0.01474082  0.89606748  1.0
  Zr  Zr1  1  0.02418365  0.87240452  0.05095649  1.0
  Zr  Zr2  1  0.84864270  0.17041177  0.04432860  1.0
  Zr  Zr3  1  0.83822414  0.02498371  0.19944145  1.0
  Zr  Zr4  1  0.75980063  0.00147357  0.02687736  1.0
  Zr  Zr5  1  0.11114458  0.04110872  0.06691999  1.0
  H  H6  1  0.80105992  0.99859327  0.59559898  1.0
  H  H7  1  0.67574833  0.00734856  0.49740420  1.0
  H  H8  1  0.07146887  0.02879881  0.49749535  1.0
  H  H9  1  0.19645331  0.02078471  0.59700168  1.0
  H  H10  1  0.81302163  0.56497068  0.00476967  1.0
  H  H11  1  0.68423158  0.46740645  0.01906451  1.0
  H  H12  1  0.06151436  0.47634971  0.07826927  1.0
  H  H13  1  0.18897164  0.57436320  0.06859820  1.0
  H  H14  1  0.21478819  0.90931381  0.93149401  1.0
  H  H15  1  0.79532830  0.88779830  0.15157089  1.0
  H  H16  1  0.91596815  0.15646429  0.18836335  1.0
  H  H17  1  0.80471985  0.13346861  0.91224718  1.0
  H  H18  1  0.96398830  0.75834884  0.15047224  1.0
  H  H19  1  0.92904409  0.85663852  0.22521660  1.0
  H  H20  1  0.66795752  0.13005914  0.30391767  1.0
  H  H21  1  0.77425217  0.31433023  0.12661880  1.0
  H  H22  1  0.88208769  0.28362252  0.94182285  1.0
  H  H23  1  0.00909434  0.09014214  0.75688220  1.0
  H  H24  1  0.11266533  0.90598342  0.78025755  1.0
  H  H25  1  0.20485543  0.73597679  0.97344195  1.0
  H  H26  1  0.66577055  0.28667094  0.13247085  1.0
  H  H27  1  0.10633141  0.11077287  0.78115442  1.0
  H  H28  1  0.08625792  0.74012180  0.95917360  1.0
  H  H29  1  0.92218811  0.91337611  0.29560865  1.0
  H  H30  1  0.24909314  0.24758801  0.08414755  1.0
  H  H31  1  0.03801258  0.36164478  0.03986200  1.0
  H  H32  1  0.49934785  0.33429735  0.07371110  1.0
  H  H33  1  0.41758447  0.20716866  0.01893812  1.0
  H  H34  1  0.45032466  0.83636481  0.08339719  1.0
  H  H35  1  0.36423256  0.70639032  0.03946700  1.0
  H  H36  1  0.61721391  0.79546361  0.02198273  1.0
  H  H37  1  0.85458650  0.67583351  0.02194920  1.0
  H  H38  1  0.35025355  0.60558503  0.07885873  1.0
  H  H39  1  0.51990812  0.43465840  0.02404830  1.0
  H  H40  1  0.24894601  0.05818559  0.27336136  1.0
  H  H41  1  0.05641037  0.99062112  0.37937646  1.0
  H  H42  1  0.41713556  0.98891298  0.23227995  1.0
  H  H43  1  0.50535985  0.03881921  0.35806829  1.0
  H  H44  1  0.44445350  0.06930326  0.85948851  1.0
  H  H45  1  0.35858961  0.00894806  0.73820677  1.0
  H  H46  1  0.61156567  0.99396200  0.82425996  1.0
  H  H47  1  0.83888800  0.01368389  0.70640800  1.0
  H  H48  1  0.34939674  0.02668415  0.63414099  1.0
  H  H49  1  0.51741879  0.01508415  0.46137872  1.0
  C  C50  1  0.63734122  0.00965938  0.69477601  1.0
  C  C51  1  0.70903585  0.00570526  0.61414654  1.0
  C  C52  1  0.64430411  0.00892396  0.56298479  1.0
  C  C53  1  0.53047318  0.01479217  0.61097499  1.0
  C  C54  1  0.23191437  0.02821763  0.39991890  1.0
  C  C55  1  0.16191454  0.02605585  0.47989048  1.0
  C  C56  1  0.22590474  0.02391507  0.53159802  1.0
  C  C57  1  0.33710507  0.02479741  0.48445456  1.0
  C  C58  1  0.64690328  0.66475216  0.02831890  1.0
  C  C59  1  0.71949885  0.58384450  0.01780874  1.0
  C  C60  1  0.65273867  0.53310493  0.02449814  1.0
  C  C61  1  0.53660547  0.58179664  0.03994641  1.0
  C  C62  1  0.22540858  0.37690214  0.06568816  1.0
  C  C63  1  0.15374814  0.45770134  0.07055542  1.0
  C  C64  1  0.21958566  0.50858516  0.06685949  1.0
  C  C65  1  0.33379601  0.45994379  0.05901188  1.0
  C  C66  1  0.81831304  0.99772896  0.83314338  1.0
  C  C67  1  0.27992019  0.85636889  0.06914628  1.0
  C  C68  1  0.82451303  0.80504647  0.01854658  1.0
  C  C69  1  0.27337813  0.05291072  0.88512721  1.0
  C  C70  1  0.05585218  0.23501044  0.06136637  1.0
  C  C71  1  0.58599708  0.00723347  0.20822149  1.0
  C  C72  1  0.06294231  0.02614302  0.25727584  1.0
  C  C73  1  0.58277603  0.18351897  0.04245548  1.0
  C  C74  1  0.19367803  0.30503645  0.06939945  1.0
  C  C75  1  0.09482065  0.30591744  0.05639778  1.0
  C  C76  1  0.43616681  0.31537054  0.05769702  1.0
  C  C77  1  0.46738830  0.23610011  0.03926662  1.0
  C  C78  1  0.39810714  0.80529418  0.06889324  1.0
  C  C79  1  0.43063836  0.72596496  0.05013843  1.0
  C  C80  1  0.68002282  0.73606756  0.02330699  1.0
  C  C81  1  0.78853950  0.73344289  0.01980320  1.0
  C  C82  1  0.43458145  0.55901844  0.05572373  1.0
  C  C83  1  0.43591650  0.48193822  0.04587390  1.0
  C  C84  1  0.19982759  0.03473034  0.32797280  1.0
  C  C85  1  0.10667268  0.01527412  0.32631820  1.0
  C  C86  1  0.46990976  0.00620093  0.26083006  1.0
  C  C87  1  0.44012043  0.02473594  0.33988654  1.0
  C  C88  1  0.39061247  0.05184513  0.83199535  1.0
  C  C89  1  0.42314284  0.02545737  0.75505886  1.0
  C  C90  1  0.67099184  0.00273634  0.76597239  1.0
  C  C91  1  0.77714731  0.00470909  0.76342825  1.0
  C  C92  1  0.43193684  0.02115875  0.58708742  1.0
  C  C93  1  0.43491063  0.02038254  0.50843210  1.0
  N  N94  1  0.52666484  0.01566341  0.69224474  1.0
  N  N95  1  0.33989831  0.02759119  0.40308930  1.0
  N  N96  1  0.53368783  0.66295094  0.04164886  1.0
  N  N97  1  0.33615337  0.37885665  0.05943394  1.0
  O  O98  1  0.92207396  0.00148988  0.81713692  1.0
  O  O99  1  0.75185805  0.99003507  0.90390227  1.0
  O  O100  1  0.21083199  0.82164400  0.05998433  1.0
  O  O101  1  0.25713417  0.93251995  0.07771051  1.0
  O  O102  1  0.92897957  0.79029514  0.02116554  1.0
  O  O103  1  0.75272985  0.87562717  0.01834609  1.0
  O  O104  1  0.19671331  0.05571624  0.85238418  1.0
  O  O105  1  0.25942887  0.04868264  0.96091874  1.0
  O  O106  1  0.14588857  0.93312496  0.80783885  1.0
  O  O107  1  0.02311893  0.11671656  0.79780699  1.0
  O  O108  1  0.14332675  0.76864782  0.95214748  1.0
  O  O109  1  0.00749217  0.79463075  0.15041816  1.0
  O  O110  1  0.93783036  0.94608006  0.97434527  1.0
  O  O111  1  0.13919959  0.94083160  0.96690236  1.0
  O  O112  1  0.95518822  0.25010846  0.05298357  1.0
  O  O113  1  0.12134918  0.16512523  0.07257112  1.0
  O  O114  1  0.65508504  0.01796375  0.24174985  1.0
  O  O115  1  0.60855180  0.99605627  0.13239078  1.0
  O  O116  1  0.96733511  0.01142998  0.27072517  1.0
  O  O117  1  0.12014175  0.04936464  0.18974898  1.0
  O  O118  1  0.64576469  0.21467254  0.06465417  1.0
  O  O119  1  0.61180547  0.10954029  0.02005466  1.0
  O  O120  1  0.73719800  0.27277393  0.14728360  1.0
  O  O121  1  0.82266152  0.25723575  0.96075147  1.0
  O  O122  1  0.75223071  0.11117768  0.28792426  1.0
  O  O123  1  0.87427061  0.90275779  0.26674284  1.0
  O  O124  1  0.92383888  0.12019019  0.14618666  1.0
  O  O125  1  0.78594955  0.07473619  0.10052483  1.0
  O  O126  1  0.01273961  0.09108584  0.99198835  1.0
  O  O127  1  0.83540152  0.92507197  0.12261256  1.0
  O  O128  1  0.84087122  0.09757578  0.94840924  1.0
  O  O129  1  0.01097793  0.96666777  0.11633719  1.0
