# generated using pymatgen
data_Al6H73C95N7O32
_symmetry_space_group_name_H-M   'P 1'
_cell_length_a   12.33733262
_cell_length_b   12.36835443
_cell_length_c   27.82336139
_cell_angle_alpha   89.54394630
_cell_angle_beta   89.56209099
_cell_angle_gamma   118.61373275
_symmetry_Int_Tables_number   1
_chemical_formula_structural   Al6H73C95N7O32
_chemical_formula_sum   'Al6 H73 C95 N7 O32'
_cell_volume   3726.67382704
_cell_formula_units_Z   1
loop_
 _symmetry_equiv_pos_site_id
 _symmetry_equiv_pos_as_xyz
  1  'x, y, z'
loop_
 _atom_site_type_symbol
 _atom_site_label
 _atom_site_symmetry_multiplicity
 _atom_site_fract_x
 _atom_site_fract_y
 _atom_site_fract_z
 _atom_site_occupancy
  Al  Al0  1  0.59962708  0.40184407  0.49290704  1.0
  Al  Al1  1  0.59135421  0.65709775  0.49811190  1.0
  Al  Al2  1  0.35038965  0.42316578  0.49894052  1.0
  Al  Al3  1  0.08112741  0.91309419  0.98669923  1.0
  Al  Al4  1  0.33748656  0.90879998  0.98499787  1.0
  Al  Al5  1  0.10292254  0.66689329  0.98555747  1.0
  H  H6  1  0.50663789  0.88258287  0.22100386  1.0
  H  H7  1  0.57099485  0.76346697  0.71818354  1.0
  H  H8  1  0.44557887  0.87738539  0.86383661  1.0
  H  H9  1  0.17590142  0.54629040  0.71258232  1.0
  H  H10  1  0.50425402  0.19019438  0.62167390  1.0
  H  H11  1  0.53227868  0.23971271  0.77953090  1.0
  H  H12  1  0.51644132  0.16568245  0.86420807  1.0
  H  H13  1  0.53319454  0.69508390  0.27089728  1.0
  H  H14  1  0.48214430  0.14959060  0.70973095  1.0
  H  H15  1  0.13072434  0.05925021  0.86624061  1.0
  H  H16  1  0.23673823  0.30531044  0.71894186  1.0
  H  H17  1  0.54802253  0.31296735  0.20676820  1.0
  H  H18  1  0.25124653  0.33504611  0.63034637  1.0
  H  H19  1  0.69013511  0.43473103  0.62413672  1.0
  H  H20  1  0.04280854  0.80331840  0.74735226  1.0
  H  H21  1  0.11276012  0.84110231  0.83170098  1.0
  H  H22  1  0.73012950  0.44688855  0.71226667  1.0
  H  H23  1  0.35462913  0.51659462  0.21052303  1.0
  H  H24  1  0.76009406  0.54601701  0.87776182  1.0
  H  H25  1  0.91777338  0.84196415  0.70033529  1.0
  H  H26  1  0.14012245  0.67505671  0.22638033  1.0
  H  H27  1  0.18966598  0.21923211  0.20183303  1.0
  H  H28  1  0.49412576  0.12729118  0.27799374  1.0
  H  H29  1  0.13551309  0.03143836  0.27185089  1.0
  H  H30  1  0.39067460  0.38518916  0.25780915  1.0
  H  H31  1  0.67930109  0.32869404  0.27424387  1.0
  H  H32  1  0.84179166  0.38638248  0.28044981  1.0
  H  H33  1  0.75425827  0.25522443  0.24336304  1.0
  H  H34  1  0.66026236  0.74634714  0.16294254  1.0
  H  H35  1  0.60597732  0.54207722  0.12639423  1.0
  H  H36  1  0.48246206  0.57825803  0.13261968  1.0
  H  H37  1  0.49855848  0.47853637  0.17507509  1.0
  H  H38  1  0.79945196  0.86361340  0.29301708  1.0
  H  H39  1  0.29073809  0.96106771  0.22250511  1.0
  H  H40  1  0.82288732  0.03412925  0.24487132  1.0
  H  H41  1  0.69321497  0.90066111  0.22205632  1.0
  H  H42  1  0.84024517  0.96202688  0.19286305  1.0
  H  H43  1  0.09271877  0.79168735  0.19075179  1.0
  H  H44  1  0.12811928  0.96721947  0.15088290  1.0
  H  H45  1  0.01987718  0.98458020  0.18796327  1.0
  H  H46  1  0.96877119  0.87518518  0.14027629  1.0
  H  H47  1  0.19299888  0.32527536  0.83816047  1.0
  H  H48  1  0.06546826  0.35437409  0.82766862  1.0
  H  H49  1  0.07561715  0.28607861  0.88351552  1.0
  H  H50  1  0.96942376  0.62469870  0.27672000  1.0
  H  H51  1  0.54438194  0.96323713  0.79555456  1.0
  H  H52  1  0.52632624  0.01386807  0.71408486  1.0
  H  H53  1  0.38200883  0.96199990  0.74564344  1.0
  H  H54  1  0.40615807  0.86273505  0.70596637  1.0
  H  H55  1  0.02867200  0.51355609  0.65750864  1.0
  H  H56  1  0.04819196  0.38037438  0.66871249  1.0
  H  H57  1  0.98619682  0.39730814  0.61269534  1.0
  H  H58  1  0.12256361  0.12493832  0.73890238  1.0
  H  H59  1  0.92836169  0.04974896  0.77109648  1.0
  H  H60  1  0.98811916  0.09936103  0.82935790  1.0
  H  H61  1  0.60387244  0.48601496  0.26082141  1.0
  H  H62  1  0.97221730  0.95775208  0.80748400  1.0
  H  H63  1  0.61648956  0.44943599  0.82504962  1.0
  H  H64  1  0.47717176  0.45223052  0.77290017  1.0
  H  H65  1  0.59337874  0.54998400  0.73161898  1.0
  H  H66  1  0.57065012  0.61122392  0.78642003  1.0
  H  H67  1  0.04839608  0.96929749  0.64121789  1.0
  H  H68  1  0.91464787  0.98840928  0.65263885  1.0
  H  H69  1  0.99205343  0.03121294  0.59522287  1.0
  H  H70  1  0.11326163  0.46238116  0.31305008  1.0
  H  H71  1  0.00188222  0.29032285  0.26276632  1.0
  H  H72  1  0.58366610  0.73785549  0.62993108  1.0
  H  H73  1  0.11664402  0.36093896  0.21708175  1.0
  H  H74  1  0.01271604  0.41918503  0.22901755  1.0
  H  H75  1  0.31880561  0.85237509  0.28768125  1.0
  H  H76  1  0.23758431  0.47591378  0.78308778  1.0
  H  H77  1  0.74352128  0.33619744  0.51099674  1.0
  H  H78  1  0.03123516  0.07094886  0.97369817  1.0
  C  C79  1  0.71774413  0.62072339  0.42309482  1.0
  C  C80  1  0.35035692  0.66424423  0.34809043  1.0
  C  C81  1  0.22724230  0.09511756  0.25755197  1.0
  C  C82  1  0.39074090  0.62072617  0.43689269  1.0
  C  C83  1  0.25719537  0.19894141  0.21916955  1.0
  C  C84  1  0.32974883  0.10594112  0.09913556  1.0
  C  C85  1  0.34960317  0.23137340  0.38149506  1.0
  C  C86  1  0.31407441  0.05573849  0.23086965  1.0
  C  C87  1  0.34430583  0.15929334  0.19096356  1.0
  C  C88  1  0.42683918  0.14785694  0.26056536  1.0
  C  C89  1  0.34007861  0.18779964  0.28877934  1.0
  C  C90  1  0.36246441  0.65323799  0.39104301  1.0
  C  C91  1  0.45675664  0.25157338  0.22206589  1.0
  C  C92  1  0.36983510  0.29127125  0.24899410  1.0
  C  C93  1  0.34214365  0.13628828  0.14120001  1.0
  C  C94  1  0.38037720  0.28050754  0.42907976  1.0
  C  C95  1  0.34184678  0.20854525  0.33872096  1.0
  C  C96  1  0.89841755  0.63291545  0.25621395  1.0
  C  C97  1  0.79727126  0.53210977  0.22347653  1.0
  C  C98  1  0.87344733  0.64299801  0.09176182  1.0
  C  C99  1  0.75953584  0.65007064  0.37388167  1.0
  C  C100  1  0.92279153  0.73523237  0.21810014  1.0
  C  C101  1  0.22736753  0.67956338  0.23672828  1.0
  C  C102  1  0.81976955  0.62961369  0.18341388  1.0
  C  C103  1  0.81799668  0.75874861  0.24180536  1.0
  C  C104  1  0.79502619  0.65535326  0.28037058  1.0
  C  C105  1  0.71682318  0.65653055  0.20820954  1.0
  C  C106  1  0.73567082  0.61006707  0.56189162  1.0
  C  C107  1  0.69392021  0.55555085  0.24713643  1.0
  C  C108  1  0.84322568  0.62894214  0.13430182  1.0
  C  C109  1  0.77788551  0.65867560  0.33050229  1.0
  C  C110  1  0.38876242  0.62786103  0.62095882  1.0
  C  C111  1  0.49451493  0.69636265  0.64855013  1.0
  C  C112  1  0.33244024  0.69501322  0.19976252  1.0
  C  C113  1  0.48763820  0.70943922  0.69776315  1.0
  C  C114  1  0.37198373  0.65452576  0.72125848  1.0
  C  C115  1  0.26530580  0.58540764  0.69435907  1.0
  C  C116  1  0.27189565  0.57090556  0.64468943  1.0
  C  C117  1  0.28227886  0.56410947  0.80118515  1.0
  C  C118  1  0.40813494  0.61005813  0.56961339  1.0
  C  C119  1  0.26442413  0.56896480  0.85067873  1.0
  C  C120  1  0.40353125  0.78865561  0.84587128  1.0
  C  C121  1  0.42254146  0.78438696  0.79651370  1.0
  C  C122  1  0.35974845  0.66892965  0.77353275  1.0
  C  C123  1  0.24253101  0.57398257  0.26429057  1.0
  C  C124  1  0.32553099  0.68479855  0.87356691  1.0
  C  C125  1  0.37513735  0.26032655  0.62051943  1.0
  C  C126  1  0.44336469  0.21180980  0.64337903  1.0
  C  C127  1  0.43145385  0.19046822  0.69259731  1.0
  C  C128  1  0.35315811  0.21810390  0.72111279  1.0
  C  C129  1  0.29027710  0.27315033  0.69782989  1.0
  C  C130  1  0.39315579  0.28972656  0.56820740  1.0
  C  C131  1  0.29964346  0.29220108  0.64820162  1.0
  C  C132  1  0.44313351  0.19753464  0.79819654  1.0
  C  C133  1  0.43582662  0.15852411  0.84570198  1.0
  C  C134  1  0.34122405  0.67455738  0.29802040  1.0
  C  C135  1  0.21799106  0.10041841  0.84640449  1.0
  C  C136  1  0.22369302  0.13625047  0.79787415  1.0
  C  C137  1  0.33999605  0.18678574  0.77297778  1.0
  C  C138  1  0.32157671  0.10931553  0.86980178  1.0
  C  C139  1  0.77941987  0.62931977  0.61230404  1.0
  C  C140  1  0.74134474  0.52370449  0.64138799  1.0
  C  C141  1  0.76373302  0.53051908  0.69042747  1.0
  C  C142  1  0.32647342  0.77811745  0.26967838  1.0
  C  C143  1  0.82783566  0.64607951  0.71224838  1.0
  C  C144  1  0.86886661  0.75257294  0.68334972  1.0
  C  C145  1  0.34732101  0.59147989  0.22797248  1.0
  C  C146  1  0.84650777  0.74611970  0.63391444  1.0
  C  C147  1  0.97930679  0.74896348  0.77626167  1.0
  C  C148  1  0.02014082  0.76899094  0.82332900  1.0
  C  C149  1  0.82244339  0.60229714  0.84882011  1.0
  C  C150  1  0.77801384  0.58528765  0.80146657  1.0
  C  C151  1  0.85925371  0.65930465  0.76389381  1.0
  C  C152  1  0.94038189  0.69404857  0.85998619  1.0
  C  C153  1  0.29200156  0.04521117  0.05370262  1.0
  C  C154  1  0.43151539  0.79448998  0.23381343  1.0
  C  C155  1  0.29387242  0.72949045  0.05682417  1.0
  C  C156  1  0.44619117  0.69091709  0.26062929  1.0
  C  C157  1  0.93814236  0.67997841  0.04688968  1.0
  C  C158  1  0.30280310  0.05486945  0.91909715  1.0
  C  C159  1  0.29699154  0.70760751  0.92294914  1.0
  C  C160  1  0.98270377  0.72012203  0.91081507  1.0
  C  C161  1  0.31610894  0.70952134  0.10584373  1.0
  C  C162  1  0.76421475  0.34361527  0.25539517  1.0
  C  C163  1  0.54950608  0.56121253  0.15238581  1.0
  C  C164  1  0.79359333  0.94443260  0.22805826  1.0
  C  C165  1  0.03775834  0.91758947  0.16867457  1.0
  C  C166  1  0.12875306  0.35238294  0.85499489  1.0
  C  C167  1  0.32497115  0.70271024  0.14929369  1.0
  C  C168  1  0.45036141  0.93503278  0.73261762  1.0
  C  C169  1  0.05208677  0.44657311  0.64106676  1.0
  C  C170  1  0.99614408  0.05281440  0.79706920  1.0
  C  C171  1  0.57068707  0.53038344  0.76991203  1.0
  C  C172  1  0.96508723  0.96528021  0.62524134  1.0
  C  C173  1  0.06628867  0.37895845  0.24595899  1.0
  N  N174  1  0.62319946  0.66700487  0.18303142  1.0
  N  N175  1  0.83028332  0.87131713  0.25842416  1.0
  N  N176  1  0.03908224  0.82779865  0.20322923  1.0
  N  N177  1  0.50189388  0.89416164  0.77152038  1.0
  N  N178  1  0.11820540  0.12051679  0.77529034  1.0
  N  N179  1  0.65529812  0.49591993  0.79384192  1.0
  N  N180  1  0.15394458  0.45770568  0.28166623  1.0
  O  O181  1  0.48387756  0.29981376  0.44473587  1.0
  O  O182  1  0.19517961  0.64779185  0.03771817  1.0
  O  O183  1  0.97385760  0.60575057  0.02877910  1.0
  O  O184  1  0.69768478  0.51689174  0.43906357  1.0
  O  O185  1  0.00877487  0.82554987  0.92614222  1.0
  O  O186  1  0.20991034  0.04111722  0.94328013  1.0
  O  O187  1  0.38038135  0.01877801  0.93292021  1.0
  O  O188  1  0.37140078  0.81073130  0.94197958  1.0
  O  O189  1  0.19495572  0.62872665  0.94274697  1.0
  O  O190  1  0.99242663  0.63545070  0.93440650  1.0
  O  O191  1  0.17506786  0.82907386  0.98580862  1.0
  O  O192  1  0.51172965  0.68772486  0.55038819  1.0
  O  O193  1  0.70001884  0.70163006  0.44589619  1.0
  O  O194  1  0.49319380  0.69545667  0.45601139  1.0
  O  O195  1  0.31334265  0.51449600  0.45387688  1.0
  O  O196  1  0.30258900  0.30546731  0.45093698  1.0
  O  O197  1  0.49150521  0.30341504  0.54860864  1.0
  O  O198  1  0.71085615  0.50812569  0.54290121  1.0
  O  O199  1  0.71730008  0.69377264  0.54153382  1.0
  O  O200  1  0.78635981  0.41846940  0.21298961  1.0
  O  O201  1  0.19315178  0.46821842  0.87824696  1.0
  O  O202  1  0.17032631  0.50594241  0.61763294  1.0
  O  O203  1  0.32655274  0.51547475  0.54812530  1.0
  O  O204  1  0.88806444  0.84751858  0.60494967  1.0
  O  O205  1  0.30832708  0.30485953  0.54702544  1.0
  O  O206  1  0.51309178  0.49468634  0.49637701  1.0
  O  O207  1  0.96060867  0.78340911  0.02906130  1.0
  O  O208  1  0.17869737  0.00059799  0.04396242  1.0
  O  O209  1  0.37482478  0.03723031  0.02761788  1.0
  O  O210  1  0.37266205  0.83140591  0.03694365  1.0
  O  O211  1  0.67595171  0.31356639  0.48903429  1.0
  O  O212  1  0.99205910  0.98898691  0.98766675  1.0
