# generated using pymatgen
data_Cu4SiH24(C9N2)4
_symmetry_space_group_name_H-M   'P 1'
_cell_length_a   26.13288628
_cell_length_b   26.27307469
_cell_length_c   26.28884509
_cell_angle_alpha   89.94324398
_cell_angle_beta   90.55140577
_cell_angle_gamma   89.80030294
_symmetry_Int_Tables_number   1
_chemical_formula_structural   Cu4SiH24(C9N2)4
_chemical_formula_sum   'Cu12 Si3 H72 C108 N24'
_cell_volume   18048.73666527
_cell_formula_units_Z   3
loop_
 _symmetry_equiv_pos_site_id
 _symmetry_equiv_pos_as_xyz
  1  'x, y, z'
loop_
 _atom_site_type_symbol
 _atom_site_label
 _atom_site_symmetry_multiplicity
 _atom_site_fract_x
 _atom_site_fract_y
 _atom_site_fract_z
 _atom_site_occupancy
  Cu  Cu0  1  0.78074829  0.78426720  0.86816491  1.0
  Cu  Cu1  1  0.85209750  0.77261796  0.77208113  1.0
  Cu  Cu2  1  0.77217888  0.86456072  0.77919927  1.0
  Cu  Cu3  1  0.77748438  0.23003612  0.13932802  1.0
  Cu  Cu4  1  0.86923873  0.22150266  0.21786040  1.0
  Cu  Cu5  1  0.77009814  0.15364174  0.23232168  1.0
  Cu  Cu6  1  0.22701997  0.77383468  0.14191469  1.0
  Cu  Cu7  1  0.13957145  0.77045332  0.22464985  1.0
  Cu  Cu8  1  0.22237660  0.85937168  0.22680696  1.0
  Cu  Cu9  1  0.22680522  0.22546838  0.85327214  1.0
  Cu  Cu10  1  0.13874254  0.22171587  0.76957856  1.0
  Cu  Cu11  1  0.22494561  0.13537840  0.77300963  1.0
  Si  Si12  1  0.99503173  0.99308919  0.49934860  1.0
  Si  Si13  1  0.00458786  0.49955305  0.99395826  1.0
  Si  Si14  1  0.49967344  0.00215358  0.00763434  1.0
  H  H15  1  0.82349772  0.69627070  0.93800369  1.0
  H  H16  1  0.91321772  0.67166871  0.80236931  1.0
  H  H17  1  0.67654228  0.92963227  0.81588163  1.0
  H  H18  1  0.69109046  0.82066361  0.93909630  1.0
  H  H19  1  0.91060481  0.80311151  0.67171619  1.0
  H  H20  1  0.80654149  0.93097852  0.68564187  1.0
  H  H21  1  0.81124922  0.32674214  0.07565025  1.0
  H  H22  1  0.94143516  0.30948374  0.17762226  1.0
  H  H23  1  0.67035155  0.09240902  0.20190104  1.0
  H  H24  1  0.68784801  0.18869445  0.06934053  1.0
  H  H25  1  0.94163379  0.17325135  0.30242900  1.0
  H  H26  1  0.79964829  0.09497229  0.33371089  1.0
  H  H27  1  0.19550788  0.68032890  0.07285412  1.0
  H  H28  1  0.07621194  0.67466691  0.18598617  1.0
  H  H29  1  0.31487670  0.92939802  0.19289410  1.0
  H  H30  1  0.32229370  0.81052514  0.07904017  1.0
  H  H31  1  0.07092459  0.80263444  0.31800277  1.0
  H  H32  1  0.18398047  0.92284125  0.32139236  1.0
  H  H33  1  0.19425693  0.32371735  0.91456273  1.0
  H  H34  1  0.07188263  0.31720421  0.80243101  1.0
  H  H35  1  0.31753137  0.06800898  0.81380942  1.0
  H  H36  1  0.31948452  0.19095821  0.92351326  1.0
  H  H37  1  0.07013647  0.18180901  0.67818898  1.0
  H  H38  1  0.18923097  0.06670676  0.68040237  1.0
  H  H39  1  0.87165320  0.63553008  0.97966831  1.0
  H  H40  1  0.94604989  0.59695573  0.83898670  1.0
  H  H41  1  0.99485070  0.52981261  0.88312785  1.0
  H  H42  1  0.92015573  0.56847549  0.02358866  1.0
  H  H43  1  0.98855247  0.35899982  0.11990552  1.0
  H  H44  1  0.84570463  0.40863608  0.05260244  1.0
  H  H45  1  0.89132343  0.47435612  0.00438949  1.0
  H  H46  1  0.03390491  0.42537595  0.07288142  1.0
  H  H47  1  0.13449662  0.63647180  0.01788387  1.0
  H  H48  1  0.06083057  0.58707535  0.15532294  1.0
  H  H49  1  0.01325512  0.52234502  0.10653115  1.0
  H  H50  1  0.08807138  0.57117892  0.96934518  1.0
  H  H51  1  0.02220690  0.36630747  0.86059159  1.0
  H  H52  1  0.16361897  0.40887857  0.93476915  1.0
  H  H53  1  0.11770279  0.47376146  0.98415017  1.0
  H  H54  1  0.97662476  0.43181971  0.90884461  1.0
  H  H55  1  0.62652490  0.86196802  0.98166036  1.0
  H  H56  1  0.60602017  0.96453049  0.85471196  1.0
  H  H57  1  0.53842572  0.00941625  0.90103480  1.0
  H  H58  1  0.55885594  0.90675150  0.02783256  1.0
  H  H59  1  0.39134466  0.15422766  0.96225842  1.0
  H  H60  1  0.37651593  0.02431439  0.86290975  1.0
  H  H61  1  0.44298061  0.97960655  0.91200505  1.0
  H  H62  1  0.45774357  0.10923405  0.01156503  1.0
  H  H63  1  0.60345359  0.05094993  0.16195311  1.0
  H  H64  1  0.62393115  0.14420848  0.02853375  1.0
  H  H65  1  0.55799753  0.09512481  0.98356529  1.0
  H  H66  1  0.53773918  0.00156727  0.11674989  1.0
  H  H67  1  0.37606458  0.97467397  0.14858541  1.0
  H  H68  1  0.39522726  0.84764929  0.04646414  1.0
  H  H69  1  0.46181106  0.89457818  0.00110712  1.0
  H  H70  1  0.44277616  0.02137569  0.10340901  1.0
  H  H71  1  0.86371279  0.97770481  0.63454889  1.0
  H  H72  1  0.93194879  0.83553114  0.58852598  1.0
  H  H73  1  0.98184377  0.88063836  0.52385465  1.0
  H  H74  1  0.91243109  0.02254253  0.56927106  1.0
  H  H75  1  0.01606535  0.86328432  0.36270396  1.0
  H  H76  1  0.15550028  0.93763412  0.40982644  1.0
  H  H77  1  0.10815316  0.98466683  0.47533024  1.0
  H  H78  1  0.96898535  0.90925740  0.42870422  1.0
  H  H79  1  0.05190811  0.15202754  0.59073675  1.0
  H  H80  1  0.12583337  0.01257245  0.63786834  1.0
  H  H81  1  0.07831138  0.96577742  0.57192583  1.0
  H  H82  1  0.00335248  0.10501191  0.52530622  1.0
  H  H83  1  0.83797498  0.05987598  0.40712955  1.0
  H  H84  1  0.98303470  0.12155780  0.36055839  1.0
  H  H85  1  0.02660590  0.07129811  0.42645611  1.0
  H  H86  1  0.88178640  0.00901580  0.47285526  1.0
  C  C87  1  0.84167934  0.69683628  0.90108338  1.0
  C  C88  1  0.87922337  0.66446672  0.88081802  1.0
  C  C89  1  0.88722387  0.68419641  0.83179322  1.0
  C  C90  1  0.68663049  0.89922872  0.84210081  1.0
  C  C91  1  0.66447133  0.88550352  0.88863828  1.0
  C  C92  1  0.69408683  0.84376211  0.90504450  1.0
  C  C93  1  0.88116168  0.83048000  0.68162608  1.0
  C  C94  1  0.86884089  0.87758937  0.65916258  1.0
  C  C95  1  0.82851360  0.89599818  0.68906131  1.0
  C  C96  1  0.83911735  0.31618401  0.10468397  1.0
  C  C97  1  0.88743682  0.33697776  0.11574439  1.0
  C  C98  1  0.90577484  0.30695192  0.15632618  1.0
  C  C99  1  0.68099212  0.12013617  0.17332914  1.0
  C  C100  1  0.66019893  0.12897541  0.12459509  1.0
  C  C101  1  0.68988234  0.16918927  0.10569362  1.0
  C  C102  1  0.90309947  0.15811856  0.30365228  1.0
  C  C103  1  0.88158380  0.12240796  0.33703003  1.0
  C  C104  1  0.83065149  0.11838046  0.31980866  1.0
  C  C105  1  0.16974768  0.68579714  0.10452716  1.0
  C  C106  1  0.12573940  0.65851871  0.11794553  1.0
  C  C107  1  0.10937207  0.68246123  0.16274266  1.0
  C  C108  1  0.31012546  0.89635075  0.16863365  1.0
  C  C109  1  0.33787379  0.88120771  0.12562610  1.0
  C  C110  1  0.31409091  0.83562207  0.11069852  1.0
  C  C111  1  0.10247568  0.82863935  0.31195676  1.0
  C  C112  1  0.11627087  0.87278757  0.33886359  1.0
  C  C113  1  0.16063512  0.88949488  0.31418250  1.0
  C  C114  1  0.16830743  0.31565091  0.88315880  1.0
  C  C115  1  0.12235789  0.33991774  0.86883070  1.0
  C  C116  1  0.10552757  0.31187549  0.82637565  1.0
  C  C117  1  0.31155237  0.10191408  0.83653164  1.0
  C  C118  1  0.33728589  0.11852477  0.88067075  1.0
  C  C119  1  0.31274756  0.16470619  0.89236615  1.0
  C  C120  1  0.10355043  0.15802521  0.68496128  1.0
  C  C121  1  0.11868901  0.11287430  0.66067295  1.0
  C  C122  1  0.16382611  0.09881113  0.68663845  1.0
  C  C123  1  0.89828649  0.61215446  0.95802628  1.0
  C  C124  1  0.90547670  0.62204785  0.90592752  1.0
  C  C125  1  0.94006954  0.59086777  0.87956426  1.0
  C  C126  1  0.96756415  0.55264608  0.90459063  1.0
  C  C127  1  0.96156525  0.54356508  0.95685509  1.0
  C  C128  1  0.92583104  0.57397001  0.98281190  1.0
  C  C129  1  0.96682076  0.38477288  0.09526253  1.0
  C  C130  1  0.91359871  0.37838788  0.08966995  1.0
  C  C131  1  0.88712605  0.41200169  0.05704237  1.0
  C  C132  1  0.91303074  0.44949657  0.03004890  1.0
  C  C133  1  0.96628371  0.45542452  0.03484321  1.0
  C  C134  1  0.99239967  0.42238979  0.06844992  1.0
  C  C135  1  0.10863640  0.61082241  0.03770041  1.0
  C  C136  1  0.10081800  0.61713144  0.09023051  1.0
  C  C137  1  0.06670927  0.58387174  0.11439639  1.0
  C  C138  1  0.04015512  0.54698917  0.08677377  1.0
  C  C139  1  0.04679170  0.54142756  0.03408462  1.0
  C  C140  1  0.08213808  0.57386464  0.01036371  1.0
  C  C141  1  0.04362443  0.39036018  0.88701537  1.0
  C  C142  1  0.09641178  0.38192194  0.89445152  1.0
  C  C143  1  0.12244464  0.41357687  0.92910573  1.0
  C  C144  1  0.09640072  0.45061356  0.95676764  1.0
  C  C145  1  0.04340648  0.45805992  0.95066455  1.0
  C  C146  1  0.01789727  0.42750818  0.91454051  1.0
  C  C147  1  0.60714246  0.89416910  0.96354630  1.0
  C  C148  1  0.62208761  0.91013977  0.91479438  1.0
  C  C149  1  0.59584266  0.95156341  0.89272718  1.0
  C  C150  1  0.55737188  0.97682169  0.91896238  1.0
  C  C151  1  0.54313695  0.96177584  0.96814234  1.0
  C  C152  1  0.56865732  0.91956013  0.98959670  1.0
  C  C153  1  0.40251640  0.11586874  0.95087956  1.0
  C  C154  1  0.37841220  0.09281418  0.90876721  1.0
  C  C155  1  0.39443224  0.04347645  0.89525465  1.0
  C  C156  1  0.43216170  0.01817223  0.92320202  1.0
  C  C157  1  0.45588459  0.04082552  0.96574954  1.0
  C  C158  1  0.44027739  0.09034488  0.97874766  1.0
  C  C159  1  0.59349189  0.06109166  0.12282291  1.0
  C  C160  1  0.61907589  0.10138775  0.09879829  1.0
  C  C161  1  0.60482542  0.11324309  0.04837857  1.0
  C  C162  1  0.56733323  0.08539435  0.02300445  1.0
  C  C163  1  0.54219354  0.04453661  0.04663046  1.0
  C  C164  1  0.55607515  0.03321964  0.09717680  1.0
  C  C165  1  0.39503736  0.95656649  0.11651093  1.0
  C  C166  1  0.37991587  0.90763175  0.10080109  1.0
  C  C167  1  0.40552289  0.88578509  0.05931143  1.0
  C  C168  1  0.44344923  0.91238449  0.03375572  1.0
  C  C169  1  0.45777001  0.96178151  0.04855773  1.0
  C  C170  1  0.43295915  0.98296830  0.09085313  1.0
  C  C171  1  0.88890569  0.95596319  0.60975693  1.0
  C  C172  1  0.89455161  0.90314937  0.61718592  1.0
  C  C173  1  0.92765892  0.87669002  0.58459749  1.0
  C  C174  1  0.95558570  0.90230270  0.54764308  1.0
  C  C175  1  0.95134258  0.95525757  0.54118154  1.0
  C  C176  1  0.91670895  0.98128000  0.57271312  1.0
  C  C177  1  0.03669808  0.88919458  0.38795564  1.0
  C  C178  1  0.08933814  0.89739144  0.38070927  1.0
  C  C179  1  0.11442057  0.93150536  0.41365985  1.0
  C  C180  1  0.08756593  0.95779439  0.45102027  1.0
  C  C181  1  0.03469191  0.95087819  0.45743225  1.0
  C  C182  1  0.01014555  0.91544349  0.42537109  1.0
  C  C183  1  0.05758898  0.11102445  0.58692811  1.0
  C  C184  1  0.09227347  0.08585324  0.61961394  1.0
  C  C185  1  0.09964283  0.03322166  0.61261406  1.0
  C  C186  1  0.07248755  0.00685095  0.57531795  1.0
  C  C187  1  0.03688324  0.03164455  0.54317666  1.0
  C  C188  1  0.03042649  0.08437057  0.54967227  1.0
  C  C189  1  0.87947381  0.06266104  0.41117770  1.0
  C  C190  1  0.90696303  0.09449556  0.37828596  1.0
  C  C191  1  0.96035101  0.09742373  0.38542893  1.0
  C  C192  1  0.98497987  0.06885043  0.42292842  1.0
  C  C193  1  0.95777672  0.03604491  0.45523158  1.0
  C  C194  1  0.90439965  0.03399164  0.44866264  1.0
  N  N195  1  0.85690752  0.72511973  0.82376378  1.0
  N  N196  1  0.82857668  0.73284826  0.86681611  1.0
  N  N197  1  0.73090074  0.83367602  0.87094900  1.0
  N  N198  1  0.72630538  0.86810172  0.83185278  1.0
  N  N199  1  0.81791636  0.86250398  0.72635107  1.0
  N  N200  1  0.85072991  0.82181827  0.72185473  1.0
  N  N201  1  0.87109655  0.27112453  0.16826796  1.0
  N  N202  1  0.82975718  0.27675667  0.13607065  1.0
  N  N203  1  0.72548129  0.18290991  0.14042980  1.0
  N  N204  1  0.72001215  0.15239271  0.18246968  1.0
  N  N205  1  0.82274585  0.14908463  0.27934090  1.0
  N  N206  1  0.86776302  0.17388086  0.26939479  1.0
  N  N207  1  0.14107851  0.72111210  0.17477142  1.0
  N  N208  1  0.17869219  0.72303665  0.13869745  1.0
  N  N209  1  0.27526412  0.82478410  0.14224111  1.0
  N  N210  1  0.27281464  0.86247814  0.17829401  1.0
  N  N211  1  0.17210115  0.85782407  0.27555968  1.0
  N  N212  1  0.13607019  0.81989317  0.27429780  1.0
  N  N213  1  0.13881354  0.27389833  0.81648075  1.0
  N  N214  1  0.17775275  0.27615343  0.85186703  1.0
  N  N215  1  0.27538805  0.17453581  0.85797989  1.0
  N  N216  1  0.27465790  0.13550982  0.82326401  1.0
  N  N217  1  0.17455119  0.13295850  0.72347473  1.0
  N  N218  1  0.13699290  0.16966921  0.72253669  1.0
