# generated using pymatgen
data_ZnH10C19NClO4
_symmetry_space_group_name_H-M   'P 1'
_cell_length_a   10.94500743
_cell_length_b   16.53540898
_cell_length_c   17.92410444
_cell_angle_alpha   89.92009222
_cell_angle_beta   89.19244212
_cell_angle_gamma   89.48946523
_symmetry_Int_Tables_number   1
_chemical_formula_structural   ZnH10C19NClO4
_chemical_formula_sum   'Zn2 H20 C38 N2 Cl2 O8'
_cell_volume   3243.45395956
_cell_formula_units_Z   2
loop_
 _symmetry_equiv_pos_site_id
 _symmetry_equiv_pos_as_xyz
  1  'x, y, z'
loop_
 _atom_site_type_symbol
 _atom_site_label
 _atom_site_symmetry_multiplicity
 _atom_site_fract_x
 _atom_site_fract_y
 _atom_site_fract_z
 _atom_site_occupancy
  Zn  Zn0  1  0.50186545  0.58446639  0.49982007  1.0
  Zn  Zn1  1  0.49814831  0.41554314  0.50017743  1.0
  H  H2  1  0.06904680  0.64107861  0.50635956  1.0
  H  H3  1  0.64387241  0.13430720  0.41591177  1.0
  H  H4  1  0.64385804  0.86485609  0.41585163  1.0
  H  H5  1  0.35615293  0.13515343  0.58415146  1.0
  H  H6  1  0.36330768  0.71350693  0.58026645  1.0
  H  H7  1  0.63670509  0.28650381  0.41973831  1.0
  H  H8  1  0.63839076  0.71272613  0.41986369  1.0
  H  H9  1  0.36161473  0.28728400  0.58013832  1.0
  H  H10  1  0.50507774  0.62937026  0.26184072  1.0
  H  H11  1  0.49485334  0.37061816  0.73813048  1.0
  H  H12  1  0.50659392  0.62953331  0.73764879  1.0
  H  H13  1  0.93096584  0.35893998  0.49364909  1.0
  H  H14  1  0.49330029  0.37045692  0.26235999  1.0
  H  H15  1  0.92390280  0.57352294  0.39093833  1.0
  H  H16  1  0.07610803  0.42649444  0.60907034  1.0
  H  H17  1  0.50482467  0.63018779  0.12196213  1.0
  H  H18  1  0.49496132  0.36978013  0.87801658  1.0
  H  H19  1  0.50689545  0.63034624  0.87753245  1.0
  H  H20  1  0.49284739  0.36961867  0.12247663  1.0
  H  H21  1  0.35614399  0.86570292  0.58409687  1.0
  C  C22  1  0.49847288  0.49987704  0.64642881  1.0
  C  C23  1  0.57657654  0.24990344  0.45485137  1.0
  C  C24  1  0.57785730  0.74967064  0.45491449  1.0
  C  C25  1  0.42214910  0.25033949  0.54508751  1.0
  C  C26  1  0.49999459  0.87761647  0.49999397  1.0
  C  C27  1  0.50002001  0.12239366  0.50001133  1.0
  C  C28  1  0.49987407  0.96313344  0.50002070  1.0
  C  C29  1  0.50014509  0.03687547  0.49998626  1.0
  C  C30  1  0.26063996  0.50265451  0.50186682  1.0
  C  C31  1  0.73937368  0.49736046  0.49813681  1.0
  C  C32  1  0.03763095  0.57868874  0.50311428  1.0
  C  C33  1  0.50151629  0.50012766  0.35356492  1.0
  C  C34  1  0.96238444  0.42132925  0.49689380  1.0
  C  C35  1  0.95875668  0.54157359  0.43974577  1.0
  C  C36  1  0.04125688  0.45844500  0.56026176  1.0
  C  C37  1  0.95561888  0.53468168  0.56238521  1.0
  C  C38  1  0.04439560  0.46533631  0.43762232  1.0
  C  C39  1  0.87556838  0.49673902  0.49862598  1.0
  C  C40  1  0.12444428  0.50327897  0.50138157  1.0
  C  C41  1  0.50274077  0.57341329  0.15293289  1.0
  C  C42  1  0.49703146  0.42655766  0.84704869  1.0
  C  C43  1  0.50375894  0.57359164  0.84675735  1.0
  C  C44  1  0.49971561  0.49991386  0.03407731  1.0
  C  C45  1  0.49599483  0.42638174  0.15324330  1.0
  C  C46  1  0.50307698  0.57307021  0.23037938  1.0
  C  C47  1  0.49678557  0.42691158  0.76960168  1.0
  C  C48  1  0.50341111  0.57325737  0.76929140  1.0
  C  C49  1  0.49644210  0.42672865  0.23070869  1.0
  C  C50  1  0.50041424  0.49990990  0.27005025  1.0
  C  C51  1  0.49949472  0.50008033  0.72994227  1.0
  C  C52  1  0.49952103  0.49987334  0.11296146  1.0
  C  C53  1  0.50020458  0.50009461  0.88702707  1.0
  C  C54  1  0.50000271  0.50005167  0.96591238  1.0
  C  C55  1  0.41985266  0.83400493  0.54695925  1.0
  C  C56  1  0.58016283  0.16600520  0.45304772  1.0
  C  C57  1  0.58048293  0.83353491  0.45300473  1.0
  C  C58  1  0.41952712  0.16647522  0.54699781  1.0
  C  C59  1  0.42343531  0.75010729  0.54515339  1.0
  N  N60  1  0.50092684  0.70883553  0.50007541  1.0
  N  N61  1  0.49908138  0.29117521  0.49992658  1.0
  Cl  Cl62  1  0.89682117  0.57870408  0.64385467  1.0
  Cl  Cl63  1  0.10319332  0.42131331  0.35615286  1.0
  O  O64  1  0.49896124  0.56841205  0.61368529  1.0
  O  O65  1  0.50104707  0.43159325  0.38631503  1.0
  O  O66  1  0.50300788  0.56886015  0.38571233  1.0
  O  O67  1  0.49700511  0.43114394  0.61427569  1.0
  O  O68  1  0.31392811  0.57072830  0.50056546  1.0
  O  O69  1  0.68608926  0.42928183  0.49943648  1.0
  O  O70  1  0.68882681  0.56699617  0.49703093  1.0
  O  O71  1  0.31118142  0.43301336  0.50297106  1.0
