# generated using pymatgen
data_AlH12C21(NO4)3
_symmetry_space_group_name_H-M   'P 1'
_cell_length_a   3.97018186
_cell_length_b   27.89062030
_cell_length_c   27.89074223
_cell_angle_alpha   59.99969358
_cell_angle_beta   89.99910568
_cell_angle_gamma   90.00017718
_symmetry_Int_Tables_number   1
_chemical_formula_structural   AlH12C21(NO4)3
_chemical_formula_sum   'Al2 H24 C42 N6 O24'
_cell_volume   2674.59443428
_cell_formula_units_Z   2
loop_
 _symmetry_equiv_pos_site_id
 _symmetry_equiv_pos_as_xyz
  1  'x, y, z'
loop_
 _atom_site_type_symbol
 _atom_site_label
 _atom_site_symmetry_multiplicity
 _atom_site_fract_x
 _atom_site_fract_y
 _atom_site_fract_z
 _atom_site_occupancy
  Al  Al0  1  0.00546020  0.00000082  0.49999855  1.0
  Al  Al1  1  0.95044225  0.66667023  0.16666484  1.0
  H  H2  1  0.16005128  0.51057534  0.30184450  1.0
  H  H3  1  0.19291237  0.40651066  0.35282748  1.0
  H  H4  1  0.74436347  0.25123737  0.45574413  1.0
  H  H5  1  0.18909426  0.26088556  0.31748784  1.0
  H  H6  1  0.16007827  0.80184944  0.18758023  1.0
  H  H7  1  0.19292258  0.85282995  0.24066452  1.0
  H  H8  1  0.74439432  0.95574453  0.29301764  1.0
  H  H9  1  0.18909640  0.81748716  0.42162958  1.0
  H  H10  1  0.16008163  0.68758304  0.01057423  1.0
  H  H11  1  0.19292040  0.74066492  0.90650829  1.0
  H  H12  1  0.74438023  0.79302162  0.75123517  1.0
  H  H13  1  0.18908159  0.92162825  0.76088517  1.0
  H  H14  1  0.80907063  0.56105169  0.15050169  1.0
  H  H15  1  0.76140862  0.37040013  0.23698611  1.0
  H  H16  1  0.84675954  0.10686834  0.51481253  1.0
  H  H17  1  0.15659193  0.11516628  0.38184989  1.0
  H  H18  1  0.80906409  0.65050689  0.28844499  1.0
  H  H19  1  0.76137065  0.73698496  0.39261880  1.0
  H  H20  1  0.84678109  0.01481564  0.37831570  1.0
  H  H21  1  0.15657779  0.88185209  0.50298259  1.0
  H  H22  1  0.80909810  0.78845044  0.06104377  1.0
  H  H23  1  0.76140175  0.89262179  0.87039172  1.0
  H  H24  1  0.84677726  0.87832360  0.60686526  1.0
  H  H25  1  0.15657551  0.00298333  0.61516626  1.0
  C  C26  1  0.50239948  0.95393167  0.58662756  1.0
  C  C27  1  0.50240532  0.08662995  0.45943979  1.0
  C  C28  1  0.50240928  0.95944363  0.45392810  1.0
  C  C29  1  0.44845719  0.58087657  0.20513936  1.0
  C  C30  1  0.44847568  0.70514370  0.21398547  1.0
  C  C31  1  0.44848301  0.71399010  0.08087081  1.0
  C  C32  1  0.46601590  0.52038122  0.23350403  1.0
  C  C33  1  0.29845872  0.48862919  0.28498348  1.0
  C  C34  1  0.31420398  0.43178748  0.31287303  1.0
  C  C35  1  0.48270866  0.40516015  0.28795593  1.0
  C  C36  1  0.63840747  0.43567386  0.23575399  1.0
  C  C37  1  0.64325569  0.49425899  0.20892740  1.0
  C  C38  1  0.62920338  0.23066921  0.43545370  1.0
  C  C39  1  0.47180818  0.26143886  0.38393982  1.0
  C  C40  1  0.31987932  0.23633186  0.35666024  1.0
  C  C41  1  0.31680692  0.17890679  0.38228293  1.0
  C  C42  1  0.49332970  0.14610602  0.43342372  1.0
  C  C43  1  0.65765863  0.17367848  0.45870113  1.0
  C  C44  1  0.46600996  0.73350717  0.24611654  1.0
  C  C45  1  0.29847698  0.78498439  0.22639063  1.0
  C  C46  1  0.31420798  0.81287424  0.25534340  1.0
  C  C47  1  0.48269593  0.78795457  0.30688845  1.0
  C  C48  1  0.63838983  0.73575533  0.32857610  1.0
  C  C49  1  0.64325250  0.70892828  0.29681624  1.0
  C  C50  1  0.62922839  0.93545407  0.33387644  1.0
  C  C51  1  0.47181829  0.88393969  0.35462253  1.0
  C  C52  1  0.31988760  0.85666107  0.40700895  1.0
  C  C53  1  0.31680820  0.88228500  0.43881033  1.0
  C  C54  1  0.49334071  0.93342638  0.42046830  1.0
  C  C55  1  0.65767890  0.95870368  0.36761896  1.0
  C  C56  1  0.46602741  0.74612081  0.02037632  1.0
  C  C57  1  0.29847770  0.72639269  0.98862581  1.0
  C  C58  1  0.31421590  0.75534420  0.93178577  1.0
  C  C59  1  0.48270892  0.80688923  0.90515537  1.0
  C  C60  1  0.63841573  0.82858022  0.93566641  1.0
  C  C61  1  0.64327344  0.79682050  0.99425223  1.0
  C  C62  1  0.62921578  0.83387782  0.73066839  1.0
  C  C63  1  0.47180088  0.85462330  0.76143777  1.0
  C  C64  1  0.31987778  0.90700721  0.73633194  1.0
  C  C65  1  0.31679575  0.93881123  0.67890465  1.0
  C  C66  1  0.49333333  0.92046994  0.64610456  1.0
  C  C67  1  0.65767638  0.86762442  0.67367489  1.0
  N  N68  1  0.51243341  0.34801417  0.31059258  1.0
  N  N69  1  0.46230411  0.31906305  0.36235372  1.0
  N  N70  1  0.51242090  0.81059020  0.34139761  1.0
  N  N71  1  0.46231668  0.86235485  0.31858475  1.0
  N  N72  1  0.51243649  0.84139844  0.84801003  1.0
  N  N73  1  0.46231165  0.81858517  0.81906071  1.0
  O  O74  1  0.73750517  0.99539165  0.44526368  1.0
  O  O75  1  0.73748834  0.94526671  0.55934320  1.0
  O  O76  1  0.73748802  0.05934473  0.49538850  1.0
  O  O77  1  0.27558119  0.94696089  0.49209431  1.0
  O  O78  1  0.27557732  0.06094448  0.44695900  1.0
  O  O79  1  0.27557289  0.99209588  0.56094383  1.0
  O  O80  1  0.67682629  0.72307329  0.10888635  1.0
  O  O81  1  0.67681177  0.60889426  0.16803941  1.0
  O  O82  1  0.67680437  0.66804562  0.22306700  1.0
  O  O83  1  0.21084239  0.67897647  0.10399736  1.0
  O  O84  1  0.21083368  0.71703185  0.17897143  1.0
  O  O85  1  0.21082032  0.60400215  0.21702689  1.0
  O  O86  1  0.81297374  0.52136001  0.16087920  1.0
  O  O87  1  0.79777148  0.41041192  0.21180314  1.0
  O  O88  1  0.83167799  0.14573447  0.50645694  1.0
  O  O89  1  0.15401705  0.15567567  0.35642354  1.0
  O  O90  1  0.81296167  0.66088403  0.31776068  1.0
  O  O91  1  0.79774231  0.71180238  0.37778951  1.0
  O  O92  1  0.83170275  0.00645803  0.34780632  1.0
  O  O93  1  0.15400918  0.85642478  0.48790068  1.0
  O  O94  1  0.81299712  0.81776665  0.02135151  1.0
  O  O95  1  0.79777558  0.87779271  0.91040343  1.0
  O  O96  1  0.83172009  0.84781379  0.64573343  1.0
  O  O97  1  0.15400147  0.98790083  0.65567618  1.0
