# generated using pymatgen
data_Zn4H12C54N12O37
_symmetry_space_group_name_H-M   'P 1'
_cell_length_a   24.41778254
_cell_length_b   24.41786910
_cell_length_c   24.41780325
_cell_angle_alpha   60.00011245
_cell_angle_beta   90.00006525
_cell_angle_gamma   120.00004405
_symmetry_Int_Tables_number   1
_chemical_formula_structural   Zn4H12C54N12O37
_chemical_formula_sum   'Zn8 H24 C108 N24 O74'
_cell_volume   10294.52402246
_cell_formula_units_Z   2
loop_
 _symmetry_equiv_pos_site_id
 _symmetry_equiv_pos_as_xyz
  1  'x, y, z'
loop_
 _atom_site_type_symbol
 _atom_site_label
 _atom_site_symmetry_multiplicity
 _atom_site_fract_x
 _atom_site_fract_y
 _atom_site_fract_z
 _atom_site_occupancy
  Zn  Zn0  1  0.53283333  0.43433723  0.53283106  1.0
  Zn  Zn1  1  0.53283258  0.56566469  0.40150431  1.0
  Zn  Zn2  1  0.53283171  0.56566487  0.53283173  1.0
  Zn  Zn3  1  0.40149330  0.43432845  0.53283560  1.0
  Zn  Zn4  1  0.96716826  0.56566528  0.96716822  1.0
  Zn  Zn5  1  0.96716695  0.43433625  0.96716650  1.0
  Zn  Zn6  1  0.96716772  0.43433638  0.09849659  1.0
  Zn  Zn7  1  0.09850483  0.56567084  0.96716511  1.0
  H  H8  1  0.43645631  0.19775882  0.65195903  1.0
  H  H9  1  0.26130375  0.19775793  0.65028386  1.0
  H  H10  1  0.06354428  0.80224308  0.84971793  1.0
  H  H11  1  0.23869584  0.80224242  0.84804110  1.0
  H  H12  1  0.65028247  0.80224295  0.26130389  1.0
  H  H13  1  0.65195940  0.80224373  0.43645439  1.0
  H  H14  1  0.84804107  0.19776008  0.23869608  1.0
  H  H15  1  0.84971822  0.19775876  0.06354500  1.0
  H  H16  1  0.65195912  0.41326271  0.65028231  1.0
  H  H17  1  0.65028256  0.58673929  0.65195754  1.0
  H  H18  1  0.84971575  0.58841539  0.84804135  1.0
  H  H19  1  0.84804026  0.41158839  0.84971740  1.0
  H  H20  1  0.43645593  0.58674018  0.26130299  1.0
  H  H21  1  0.26130279  0.41326318  0.43645458  1.0
  H  H22  1  0.06354537  0.41158702  0.23869663  1.0
  H  H23  1  0.23869751  0.58841663  0.06354538  1.0
  H  H24  1  0.65196050  0.58841731  0.26130179  1.0
  H  H25  1  0.65028214  0.41158725  0.43645292  1.0
  H  H26  1  0.84971752  0.41326335  0.23869666  1.0
  H  H27  1  0.84804282  0.58673977  0.06354482  1.0
  H  H28  1  0.26130249  0.41158615  0.65196003  1.0
  H  H29  1  0.43645527  0.58841665  0.65028031  1.0
  H  H30  1  0.23869719  0.58673966  0.84971567  1.0
  H  H31  1  0.06354439  0.41326254  0.84804023  1.0
  C  C32  1  0.60449078  0.50000157  0.39550882  1.0
  C  C33  1  0.60449203  0.70898214  0.39550916  1.0
  C  C34  1  0.60449146  0.50000177  0.60448850  1.0
  C  C35  1  0.39550592  0.49999805  0.60448964  1.0
  C  C36  1  0.39550717  0.29102008  0.60448988  1.0
  C  C37  1  0.39550673  0.49999848  0.39551183  1.0
  C  C38  1  0.89550663  0.49999894  0.89551153  1.0
  C  C39  1  0.89550979  0.29102130  0.10449081  1.0
  C  C40  1  0.89550847  0.50000096  0.10448884  1.0
  C  C41  1  0.10449057  0.50000093  0.10449102  1.0
  C  C42  1  0.10449040  0.70898292  0.89550932  1.0
  C  C43  1  0.10449073  0.50000203  0.89550784  1.0
  C  C44  1  0.38202246  0.16454889  0.66834439  1.0
  C  C45  1  0.34224084  0.08339670  0.70815248  1.0
  C  C46  1  0.37019797  0.03952385  0.72996673  1.0
  C  C47  1  0.28252665  0.16454995  0.66710903  1.0
  C  C48  1  0.24115703  0.08339686  0.70845324  1.0
  C  C49  1  0.16932692  0.03952524  0.73051201  1.0
  C  C50  1  0.11797611  0.83545123  0.83289345  1.0
  C  C51  1  0.15775923  0.91660410  0.79154891  1.0
  C  C52  1  0.12980211  0.96047634  0.76949017  1.0
  C  C53  1  0.21747294  0.83545152  0.83165761  1.0
  C  C54  1  0.25884306  0.91660404  0.79184919  1.0
  C  C55  1  0.33067317  0.96047580  0.77003585  1.0
  C  C56  1  0.35215282  0.20430141  0.64785049  1.0
  C  C57  1  0.27061688  0.04123499  0.72938355  1.0
  C  C58  1  0.14784877  0.79569968  0.85215162  1.0
  C  C59  1  0.22938271  0.95876647  0.77061829  1.0
  C  C60  1  0.66710791  0.83545167  0.28252647  1.0
  C  C61  1  0.70845145  0.91660522  0.24115691  1.0
  C  C62  1  0.73050978  0.96047637  0.16932719  1.0
  C  C63  1  0.66834289  0.83545152  0.38202288  1.0
  C  C64  1  0.70815209  0.91660507  0.34223965  1.0
  C  C65  1  0.72996523  0.96047714  0.37019733  1.0
  C  C66  1  0.83165752  0.16455192  0.21747279  1.0
  C  C67  1  0.79184832  0.08339895  0.25884305  1.0
  C  C68  1  0.77003376  0.03952613  0.33067333  1.0
  C  C69  1  0.83289283  0.16455082  0.11797721  1.0
  C  C70  1  0.79154879  0.08339800  0.15775991  1.0
  C  C71  1  0.76948936  0.03952550  0.12980252  1.0
  C  C72  1  0.64784989  0.79569945  0.35215069  1.0
  C  C73  1  0.72938232  0.95876710  0.27061739  1.0
  C  C74  1  0.85215093  0.20430322  0.14784820  1.0
  C  C75  1  0.77061700  0.04123613  0.22938295  1.0
  C  C76  1  0.66834317  0.45087041  0.66710706  1.0
  C  C77  1  0.70815206  0.44930971  0.70845089  1.0
  C  C78  1  0.72996636  0.39929415  0.73050960  1.0
  C  C79  1  0.66710762  0.54913248  0.66834100  1.0
  C  C80  1  0.70845085  0.55069305  0.70815052  1.0
  C  C81  1  0.73051025  0.60070929  0.72996506  1.0
  C  C82  1  0.83289082  0.55036630  0.83165769  1.0
  C  C83  1  0.79154809  0.55039383  0.79184800  1.0
  C  C84  1  0.76948753  0.60016364  0.77003453  1.0
  C  C85  1  0.83165659  0.44963570  0.83289268  1.0
  C  C86  1  0.79184821  0.44961085  0.79154820  1.0
  C  C87  1  0.77003607  0.39983997  0.76948857  1.0
  C  C88  1  0.64785004  0.50000130  0.64784728  1.0
  C  C89  1  0.72938236  0.50000169  0.72938226  1.0
  C  C90  1  0.85214956  0.50000270  0.85215177  1.0
  C  C91  1  0.77061674  0.50000181  0.77061648  1.0
  C  C92  1  0.38202260  0.54913241  0.28252681  1.0
  C  C93  1  0.34224078  0.55069369  0.24115646  1.0
  C  C94  1  0.37019769  0.60070993  0.16932637  1.0
  C  C95  1  0.28252602  0.45087022  0.38202288  1.0
  C  C96  1  0.24115671  0.44930908  0.34224002  1.0
  C  C97  1  0.16932662  0.39929187  0.37019716  1.0
  C  C98  1  0.11797620  0.44963543  0.21747364  1.0
  C  C99  1  0.15776002  0.44960895  0.25884380  1.0
  C  C100  1  0.12980212  0.39983702  0.33067328  1.0
  C  C101  1  0.21747378  0.55036795  0.11797772  1.0
  C  C102  1  0.25884409  0.55039424  0.15775977  1.0
  C  C103  1  0.33067419  0.60016492  0.12980262  1.0
  C  C104  1  0.35215166  0.50000288  0.35214951  1.0
  C  C105  1  0.27061734  0.50000185  0.27061709  1.0
  C  C106  1  0.14785064  0.50000316  0.14784836  1.0
  C  C107  1  0.22938245  0.50000180  0.22938304  1.0
  C  C108  1  0.66834367  0.55036822  0.28252553  1.0
  C  C109  1  0.70815300  0.55039512  0.24115506  1.0
  C  C110  1  0.72996655  0.60016557  0.16932561  1.0
  C  C111  1  0.66710702  0.44963574  0.38202136  1.0
  C  C112  1  0.70845169  0.44961040  0.34223828  1.0
  C  C113  1  0.73051075  0.39983938  0.37019655  1.0
  C  C114  1  0.83289295  0.45087226  0.21747203  1.0
  C  C115  1  0.79154979  0.44931094  0.25884258  1.0
  C  C116  1  0.76949047  0.39929509  0.33067215  1.0
  C  C117  1  0.83165934  0.54913405  0.11797537  1.0
  C  C118  1  0.79185051  0.55069485  0.15775912  1.0
  C  C119  1  0.77003671  0.60071151  0.12980138  1.0
  C  C120  1  0.64784977  0.50000296  0.35214885  1.0
  C  C121  1  0.72938396  0.50000296  0.27061605  1.0
  C  C122  1  0.85215147  0.49999995  0.14785004  1.0
  C  C123  1  0.77061928  0.50000380  0.22938123  1.0
  C  C124  1  0.28252627  0.44963568  0.66834243  1.0
  C  C125  1  0.24115704  0.44961033  0.70815072  1.0
  C  C126  1  0.16932643  0.39983911  0.72996374  1.0
  C  C127  1  0.38202293  0.55036820  0.66710590  1.0
  C  C128  1  0.34224068  0.55039367  0.70845032  1.0
  C  C129  1  0.37019817  0.60016448  0.73050913  1.0
  C  C130  1  0.21747390  0.54913298  0.83288954  1.0
  C  C131  1  0.25884363  0.55069357  0.79154702  1.0
  C  C132  1  0.33067373  0.60070985  0.76948827  1.0
  C  C133  1  0.11797673  0.45087088  0.83165585  1.0
  C  C134  1  0.15775948  0.44930924  0.79184769  1.0
  C  C135  1  0.12980200  0.39929228  0.77003384  1.0
  C  C136  1  0.35215093  0.50000243  0.64784780  1.0
  C  C137  1  0.27061725  0.50000165  0.72938185  1.0
  C  C138  1  0.14784924  0.50000246  0.85214850  1.0
  C  C139  1  0.22938243  0.50000138  0.77061603  1.0
  N  N140  1  0.36236605  0.91822386  0.79049373  1.0
  N  N141  1  0.44414275  0.08177466  0.70951126  1.0
  N  N142  1  0.05585733  0.91822312  0.79128393  1.0
  N  N143  1  0.13763604  0.08177968  0.70871849  1.0
  N  N144  1  0.79128387  0.08177646  0.05585800  1.0
  N  N145  1  0.70871368  0.91822543  0.13763318  1.0
  N  N146  1  0.79048913  0.08177670  0.36236736  1.0
  N  N147  1  0.70951295  0.91822796  0.44414132  1.0
  N  N148  1  0.79049861  0.34635719  0.79128095  1.0
  N  N149  1  0.70951401  0.34714561  0.70871361  1.0
  N  N150  1  0.79128009  0.65364476  0.79049901  1.0
  N  N151  1  0.70871451  0.65285856  0.70950895  1.0
  N  N152  1  0.36236383  0.65364651  0.05585818  1.0
  N  N153  1  0.44414293  0.65285935  0.13763341  1.0
  N  N154  1  0.05585736  0.34635191  0.36236465  1.0
  N  N155  1  0.13763496  0.34713975  0.44414181  1.0
  N  N156  1  0.79049248  0.65286020  0.05585719  1.0
  N  N157  1  0.70950450  0.65364782  0.13763542  1.0
  N  N158  1  0.79128722  0.34714655  0.36236716  1.0
  N  N159  1  0.70871776  0.34635580  0.44414149  1.0
  N  N160  1  0.05585724  0.34714395  0.79048739  1.0
  N  N161  1  0.13763872  0.34635911  0.70949874  1.0
  N  N162  1  0.36236598  0.65285975  0.79128294  1.0
  N  N163  1  0.44414293  0.65364915  0.70871634  1.0
  O  O164  1  0.49999385  0.49999593  0.50000179  1.0
  O  O165  1  0.58737901  0.45275670  0.45868756  1.0
  O  O166  1  0.58738067  0.67593615  0.36537469  1.0
  O  O167  1  0.58737849  0.54606685  0.58855570  1.0
  O  O168  1  0.58855649  0.54724883  0.36537277  1.0
  O  O169  1  0.58855885  0.45393196  0.58737611  1.0
  O  O170  1  0.58855897  0.67593639  0.45868942  1.0
  O  O171  1  0.45868980  0.54724849  0.58737523  1.0
  O  O172  1  0.36537522  0.32406084  0.58737994  1.0
  O  O173  1  0.36537159  0.45275123  0.58856019  1.0
  O  O174  1  0.45869258  0.32406676  0.58855528  1.0
  O  O175  1  0.45869111  0.54606999  0.36537520  1.0
  O  O176  1  0.36537296  0.45393145  0.45868771  1.0
  O  O177  1  0.00000579  0.50000436  0.99999842  1.0
  O  O178  1  0.91261846  0.54724904  0.91144584  1.0
  O  O179  1  0.91262008  0.32406625  0.04130828  1.0
  O  O180  1  0.91261794  0.45392712  0.13462614  1.0
  O  O181  1  0.91144040  0.45275681  0.91262334  1.0
  O  O182  1  0.91144201  0.54606650  0.04131270  1.0
  O  O183  1  0.91144394  0.32406555  0.13462282  1.0
  O  O184  1  0.04131472  0.45276012  0.13461913  1.0
  O  O185  1  0.13462888  0.67593950  0.91144100  1.0
  O  O186  1  0.13463235  0.54725157  0.04130585  1.0
  O  O187  1  0.04131202  0.67593598  0.91262192  1.0
  O  O188  1  0.04131337  0.45393711  0.91144210  1.0
  O  O189  1  0.13463059  0.54607344  0.91261909  1.0
  O  O190  1  0.34759215  0.87237775  0.85137236  1.0
  O  O191  1  0.39980940  0.93154332  0.74486145  1.0
  O  O192  1  0.47521547  0.12762386  0.64862898  1.0
  O  O193  1  0.46826677  0.06845624  0.75513993  1.0
  O  O194  1  0.02478555  0.87237781  0.77625241  1.0
  O  O195  1  0.03173237  0.93154391  0.82359682  1.0
  O  O196  1  0.15241049  0.12762383  0.72375127  1.0
  O  O197  1  0.10019212  0.06846067  0.67640451  1.0
  O  O198  1  0.77625143  0.12762378  0.02478528  1.0
  O  O199  1  0.82359513  0.06845618  0.03173449  1.0
  O  O200  1  0.72374611  0.87237673  0.15240907  1.0
  O  O201  1  0.67640389  0.93154555  0.10019028  1.0
  O  O202  1  0.85136975  0.12762428  0.34759260  1.0
  O  O203  1  0.74485849  0.06845560  0.39981153  1.0
  O  O204  1  0.64862833  0.87237692  0.47521614  1.0
  O  O205  1  0.75514063  0.93154578  0.46826406  1.0
  O  O206  1  0.85137275  0.37616067  0.77625012  1.0
  O  O207  1  0.74486204  0.27659582  0.82359515  1.0
  O  O208  1  0.64862787  0.30103666  0.72374841  1.0
  O  O209  1  0.75513965  0.35533120  0.67640482  1.0
  O  O210  1  0.77625085  0.62384171  0.85137152  1.0
  O  O211  1  0.82359519  0.72340760  0.74486202  1.0
  O  O212  1  0.72374823  0.69896439  0.64862789  1.0
  O  O213  1  0.67640331  0.64467076  0.75513909  1.0
  O  O214  1  0.34759184  0.62384497  0.02478740  1.0
  O  O215  1  0.39981314  0.72341050  0.03173214  1.0
  O  O216  1  0.47521622  0.69896527  0.15240812  1.0
  O  O217  1  0.46826638  0.64467070  0.10019109  1.0
  O  O218  1  0.02478496  0.37615659  0.34759122  1.0
  O  O219  1  0.03173304  0.27659367  0.39980994  1.0
  O  O220  1  0.15240808  0.30103705  0.47521206  1.0
  O  O221  1  0.10019005  0.35532908  0.46826701  1.0
  O  O222  1  0.85137309  0.69896623  0.02478276  1.0
  O  O223  1  0.74486077  0.64467066  0.03173439  1.0
  O  O224  1  0.64863036  0.62384526  0.15240805  1.0
  O  O225  1  0.75514107  0.72341007  0.10018797  1.0
  O  O226  1  0.77625294  0.30103897  0.34759076  1.0
  O  O227  1  0.82359548  0.35533166  0.39980920  1.0
  O  O228  1  0.72374808  0.37615851  0.47521270  1.0
  O  O229  1  0.67640414  0.27659504  0.46826609  1.0
  O  O230  1  0.02478350  0.30103546  0.85137285  1.0
  O  O231  1  0.03173272  0.35532808  0.74486219  1.0
  O  O232  1  0.15240913  0.37615906  0.64862833  1.0
  O  O233  1  0.10018993  0.27659343  0.75513839  1.0
  O  O234  1  0.34759287  0.69896504  0.77624990  1.0
  O  O235  1  0.39980943  0.64467115  0.82359562  1.0
  O  O236  1  0.47521434  0.62384377  0.72374736  1.0
  O  O237  1  0.46826776  0.72340791  0.67640366  1.0
