# generated using pymatgen
data_CuSiH16C24S4N4(O2F)6
_symmetry_space_group_name_H-M   'P 1'
_cell_length_a   7.87663811
_cell_length_b   13.72874841
_cell_length_c   13.72837113
_cell_angle_alpha   89.10680971
_cell_angle_beta   87.63695682
_cell_angle_gamma   87.63552723
_symmetry_Int_Tables_number   1
_chemical_formula_structural   CuSiH16C24S4N4(O2F)6
_chemical_formula_sum   'Cu1 Si1 H16 C24 S4 N4 O12 F6'
_cell_volume   1481.86773707
_cell_formula_units_Z   1
loop_
 _symmetry_equiv_pos_site_id
 _symmetry_equiv_pos_as_xyz
  1  'x, y, z'
loop_
 _atom_site_type_symbol
 _atom_site_label
 _atom_site_symmetry_multiplicity
 _atom_site_fract_x
 _atom_site_fract_y
 _atom_site_fract_z
 _atom_site_occupancy
  Cu  Cu0  1  0.50004123  0.50040878  0.49958531  1.0
  Si  Si1  1  0.99999552  0.49899133  0.50106708  1.0
  H  H2  1  0.25478215  0.35263644  0.45408336  1.0
  H  H3  1  0.24707465  0.17397490  0.43858905  1.0
  H  H4  1  0.76087573  0.33525975  0.53719929  1.0
  H  H5  1  0.23845445  0.66584995  0.53422248  1.0
  H  H6  1  0.75683751  0.64878406  0.45474802  1.0
  H  H7  1  0.76945858  0.82733738  0.44030657  1.0
  H  H8  1  0.24310935  0.54521355  0.35118553  1.0
  H  H9  1  0.23054861  0.55968333  0.17260812  1.0
  H  H10  1  0.76151370  0.46576004  0.33418087  1.0
  H  H11  1  0.23913984  0.46280583  0.66473105  1.0
  H  H12  1  0.74521779  0.54592997  0.64733006  1.0
  H  H13  1  0.75296241  0.56142906  0.82600916  1.0
  H  H14  1  0.77319799  0.02066378  0.43564013  1.0
  H  H15  1  0.04887337  0.97473829  0.43221848  1.0
  H  H16  1  0.95115199  0.56775997  0.02528779  1.0
  H  H17  1  0.22685795  0.56439238  0.97933336  1.0
  C  C18  1  0.36745952  0.30670838  0.46914403  1.0
  C  C19  1  0.36365891  0.20618860  0.45952775  1.0
  C  C20  1  0.50884318  0.14791713  0.47911451  1.0
  C  C21  1  0.65413843  0.19621937  0.50737430  1.0
  C  C22  1  0.64958434  0.29705791  0.51575211  1.0
  C  C23  1  0.50783174  0.04539051  0.47147052  1.0
  C  C24  1  0.50428926  0.95663276  0.47084682  1.0
  C  C25  1  0.49994808  0.85392198  0.47755581  1.0
  C  C26  1  0.34956470  0.80542688  0.50459633  1.0
  C  C27  1  0.35326291  0.70430332  0.51322081  1.0
  C  C28  1  0.64229215  0.69476493  0.46865958  1.0
  C  C29  1  0.64816081  0.79549329  0.45967814  1.0
  C  C30  1  0.35769863  0.53134235  0.30522966  1.0
  C  C31  1  0.35181742  0.54029319  0.20449525  1.0
  C  C32  1  0.50005060  0.52248162  0.14607771  1.0
  C  C33  1  0.65040761  0.49537401  0.19457241  1.0
  C  C34  1  0.64674732  0.48678209  0.29570092  1.0
  C  C35  1  0.49575763  0.52916884  0.04335787  1.0
  C  C36  1  0.49220521  0.52854677  0.95459150  1.0
  C  C37  1  0.49121427  0.52091226  0.85206249  1.0
  C  C38  1  0.34590381  0.49261276  0.80378676  1.0
  C  C39  1  0.35044152  0.48426390  0.70292872  1.0
  C  C40  1  0.63253413  0.53086916  0.69325934  1.0
  C  C41  1  0.63637735  0.54047654  0.79378947  1.0
  S  S42  1  0.84047944  0.12725668  0.53945399  1.0
  S  S43  1  0.15490169  0.87164158  0.53397696  1.0
  S  S44  1  0.84513177  0.46600491  0.12838859  1.0
  S  S45  1  0.15956179  0.46051490  0.87275228  1.0
  N  N46  1  0.50722522  0.35096982  0.49656455  1.0
  N  N47  1  0.49768035  0.65024811  0.49499456  1.0
  N  N48  1  0.50230585  0.50496333  0.34974987  1.0
  N  N49  1  0.49278550  0.50342960  0.64902621  1.0
  O  O50  1  0.87382507  0.06130971  0.44029631  1.0
  O  O51  1  0.98297186  0.18807524  0.54004672  1.0
  O  O52  1  0.79532489  0.06278095  0.61853002  1.0
  O  O53  1  0.11773362  0.91228435  0.42609274  1.0
  O  O54  1  0.02923733  0.80324145  0.56353783  1.0
  O  O55  1  0.18853665  0.95253238  0.59478720  1.0
  O  O56  1  0.88234237  0.57387734  0.08775479  1.0
  O  O57  1  0.97076691  0.43641864  0.19680443  1.0
  O  O58  1  0.81152954  0.40521900  0.04746927  1.0
  O  O59  1  0.12619386  0.55969314  0.93867760  1.0
  O  O60  1  0.01707146  0.45991754  0.81191354  1.0
  O  O61  1  0.20479062  0.38148773  0.93725072  1.0
  F  F62  1  0.21833928  0.50881398  0.50940118  1.0
  F  F63  1  0.78164006  0.49060859  0.49124279  1.0
  F  F64  1  0.99997132  0.41099780  0.58908163  1.0
  F  F65  1  0.99992667  0.58831671  0.41165846  1.0
  F  F66  1  0.03351640  0.41300788  0.41350591  1.0
  F  F67  1  0.96654237  0.58656706  0.58700191  1.0
