# generated using pymatgen
data_MnH16C24(NO2)2
_symmetry_space_group_name_H-M   'P 1'
_cell_length_a   9.71216063
_cell_length_b   16.16380033
_cell_length_c   19.62338695
_cell_angle_alpha   90.00003339
_cell_angle_beta   90.00017672
_cell_angle_gamma   91.40922893
_symmetry_Int_Tables_number   1
_chemical_formula_structural   MnH16C24(NO2)2
_chemical_formula_sum   'Mn4 H64 C96 N8 O16'
_cell_volume   3079.65399445
_cell_formula_units_Z   4
loop_
 _symmetry_equiv_pos_site_id
 _symmetry_equiv_pos_as_xyz
  1  'x, y, z'
loop_
 _atom_site_type_symbol
 _atom_site_label
 _atom_site_symmetry_multiplicity
 _atom_site_fract_x
 _atom_site_fract_y
 _atom_site_fract_z
 _atom_site_occupancy
  Mn  Mn0  1  0.49997102  0.49999486  0.99999692  1.0
  Mn  Mn1  1  0.50001385  0.00000180  0.50000479  1.0
  Mn  Mn2  1  0.00000744  0.99999641  0.49999575  1.0
  Mn  Mn3  1  0.99998290  0.50001086  0.00000571  1.0
  H  H4  1  0.81990810  0.92874274  0.70478588  1.0
  H  H5  1  0.75659295  0.84000301  0.80393231  1.0
  H  H6  1  0.53243337  0.67374688  0.66933148  1.0
  H  H7  1  0.58704172  0.76770147  0.57221783  1.0
  H  H8  1  0.56124241  0.68855200  0.97440932  1.0
  H  H9  1  0.60751944  0.78893216  0.88004493  1.0
  H  H10  1  0.60418225  0.58015532  0.74202437  1.0
  H  H11  1  0.54799977  0.49039340  0.84186844  1.0
  H  H12  1  0.40142063  0.37657304  0.81441943  1.0
  H  H13  1  0.34121853  0.28745628  0.71498138  1.0
  H  H14  1  0.95135744  0.22368021  0.80927544  1.0
  H  H15  1  0.01179786  0.31688309  0.90661727  1.0
  H  H16  1  0.26272200  0.06588670  0.58227584  1.0
  H  H17  1  0.32157914  0.15453164  0.68181224  1.0
  H  H18  1  0.89053577  0.21201296  0.69558859  1.0
  H  H19  1  0.84975782  0.11801299  0.59598800  1.0
  H  H20  1  0.18009399  0.57125954  0.20478652  1.0
  H  H21  1  0.24340720  0.66000560  0.30393155  1.0
  H  H22  1  0.46755837  0.82625740  0.16932961  1.0
  H  H23  1  0.41295022  0.73230023  0.07221787  1.0
  H  H24  1  0.43875892  0.81144561  0.47440994  1.0
  H  H25  1  0.39247712  0.71106481  0.38005054  1.0
  H  H26  1  0.39580829  0.91984162  0.24202701  1.0
  H  H27  1  0.45199813  0.00961020  0.34186742  1.0
  H  H28  1  0.59857720  0.12343178  0.31442072  1.0
  H  H29  1  0.65878397  0.21255023  0.21498280  1.0
  H  H30  1  0.04864015  0.27632213  0.30927545  1.0
  H  H31  1  0.98820472  0.18312236  0.40662019  1.0
  H  H32  1  0.73728016  0.43411349  0.08227900  1.0
  H  H33  1  0.67842386  0.34547111  0.18181527  1.0
  H  H34  1  0.10946233  0.28799174  0.19559176  1.0
  H  H35  1  0.15024870  0.38198900  0.09598974  1.0
  H  H36  1  0.18009386  0.07126077  0.29521321  1.0
  H  H37  1  0.24340633  0.16000550  0.19606729  1.0
  H  H38  1  0.46756751  0.32625603  0.33066964  1.0
  H  H39  1  0.41296332  0.23230199  0.42778227  1.0
  H  H40  1  0.43875095  0.31144731  0.02559027  1.0
  H  H41  1  0.39247906  0.21106707  0.11995211  1.0
  H  H42  1  0.39582052  0.41984570  0.25797522  1.0
  H  H43  1  0.45199936  0.50961325  0.15813064  1.0
  H  H44  1  0.59857650  0.62343426  0.18557762  1.0
  H  H45  1  0.65878894  0.71255148  0.28501974  1.0
  H  H46  1  0.04863859  0.77631411  0.19072925  1.0
  H  H47  1  0.98820189  0.68311859  0.09338283  1.0
  H  H48  1  0.73728155  0.93411121  0.41772018  1.0
  H  H49  1  0.67842570  0.84546935  0.31818837  1.0
  H  H50  1  0.10945533  0.78798391  0.30440998  1.0
  H  H51  1  0.15025174  0.88198297  0.40401007  1.0
  H  H52  1  0.81990306  0.42873475  0.79521512  1.0
  H  H53  1  0.75659043  0.33999550  0.69606703  1.0
  H  H54  1  0.53242507  0.17374640  0.83066846  1.0
  H  H55  1  0.58703486  0.26769859  0.92777867  1.0
  H  H56  1  0.56124549  0.18855043  0.52558965  1.0
  H  H57  1  0.60752112  0.28893132  0.61995007  1.0
  H  H58  1  0.60418650  0.08015024  0.75797411  1.0
  H  H59  1  0.54800033  0.99038841  0.65812962  1.0
  H  H60  1  0.40142557  0.87656924  0.68557531  1.0
  H  H61  1  0.34121907  0.78745389  0.78501832  1.0
  H  H62  1  0.95136191  0.72368262  0.69072618  1.0
  H  H63  1  0.01180649  0.81688101  0.59337940  1.0
  H  H64  1  0.26271618  0.56588454  0.91772059  1.0
  H  H65  1  0.32157767  0.65452745  0.81818942  1.0
  H  H66  1  0.89054173  0.71201236  0.80441293  1.0
  H  H67  1  0.84974899  0.61801272  0.90401036  1.0
  C  C68  1  0.74466003  0.90763374  0.57244577  1.0
  C  C69  1  0.70674128  0.85371716  0.63248939  1.0
  C  C70  1  0.75386332  0.87378237  0.69810960  1.0
  C  C71  1  0.71851189  0.82353394  0.75328352  1.0
  C  C72  1  0.64117314  0.74951274  0.74391758  1.0
  C  C73  1  0.59609907  0.72934204  0.67765070  1.0
  C  C74  1  0.62600039  0.78165339  0.62309950  1.0
  C  C75  1  0.57080313  0.66768576  0.92177825  1.0
  C  C76  1  0.59782750  0.72298694  0.86890973  1.0
  C  C77  1  0.61017376  0.69370947  0.80167720  1.0
  C  C78  1  0.59300973  0.60777386  0.79231538  1.0
  C  C79  1  0.56412830  0.55696098  0.84787202  1.0
  C  C80  1  0.24967450  0.40349402  0.92774583  1.0
  C  C81  1  0.21075173  0.35134821  0.86696933  1.0
  C  C82  1  0.30271965  0.34319910  0.81242428  1.0
  C  C83  1  0.26919234  0.29252903  0.75735729  1.0
  C  C84  1  0.14273538  0.24817478  0.75526632  1.0
  C  C85  1  0.04987766  0.25763885  0.80959785  1.0
  C  C86  1  0.08342434  0.30869578  0.86461132  1.0
  C  C87  1  0.18299445  0.09859369  0.60935776  1.0
  C  C88  1  0.21522445  0.14950047  0.66438092  1.0
  C  C89  1  0.11090074  0.19257113  0.69753669  1.0
  C  C90  1  0.97628411  0.18004146  0.67265479  1.0
  C  C91  1  0.95252236  0.12810871  0.61722498  1.0
  C  C92  1  0.25533690  0.59236602  0.07244500  1.0
  C  C93  1  0.29326528  0.64628250  0.13248564  1.0
  C  C94  1  0.24614567  0.62621671  0.19810628  1.0
  C  C95  1  0.28148932  0.67646655  0.25328232  1.0
  C  C96  1  0.35881886  0.75048913  0.24391959  1.0
  C  C97  1  0.40389832  0.77065534  0.17764972  1.0
  C  C98  1  0.37400385  0.71834383  0.12309794  1.0
  C  C99  1  0.42920192  0.83231112  0.42177682  1.0
  C  C100  1  0.40217620  0.77700991  0.36890926  1.0
  C  C101  1  0.38982581  0.80629234  0.30168029  1.0
  C  C102  1  0.40699261  0.89222479  0.29231701  1.0
  C  C103  1  0.43587270  0.94304208  0.34787371  1.0
  C  C104  1  0.75031838  0.09650479  0.42774581  1.0
  C  C105  1  0.78925429  0.14865219  0.36697296  1.0
  C  C106  1  0.69728315  0.15680377  0.31242828  1.0
  C  C107  1  0.73080681  0.20747137  0.25735984  1.0
  C  C108  1  0.85725959  0.25182507  0.25526907  1.0
  C  C109  1  0.95012214  0.24236531  0.30959564  1.0
  C  C110  1  0.91658209  0.19130957  0.36461057  1.0
  C  C111  1  0.81700767  0.40140405  0.10935695  1.0
  C  C112  1  0.78477655  0.35050415  0.16438259  1.0
  C  C113  1  0.88910025  0.30743105  0.19754054  1.0
  C  C114  1  0.02371580  0.31996195  0.17265326  1.0
  C  C115  1  0.04747920  0.37189399  0.11722198  1.0
  C  C116  1  0.25533729  0.09236365  0.42755484  1.0
  C  C117  1  0.29326550  0.14628255  0.36751326  1.0
  C  C118  1  0.24614141  0.12621738  0.30189152  1.0
  C  C119  1  0.28149114  0.17647017  0.24671811  1.0
  C  C120  1  0.35882378  0.25049210  0.25608252  1.0
  C  C121  1  0.40390366  0.27065836  0.32235246  1.0
  C  C122  1  0.37400515  0.21834387  0.37690265  1.0
  C  C123  1  0.42919234  0.33231414  0.07822237  1.0
  C  C124  1  0.40217296  0.27701103  0.13109037  1.0
  C  C125  1  0.38983025  0.30629401  0.19832137  1.0
  C  C126  1  0.40699403  0.39222653  0.20768370  1.0
  C  C127  1  0.43587273  0.44304378  0.15212911  1.0
  C  C128  1  0.75031237  0.59650168  0.07225326  1.0
  C  C129  1  0.78923957  0.64865113  0.13302874  1.0
  C  C130  1  0.69727808  0.65680324  0.18757430  1.0
  C  C131  1  0.73080647  0.70747391  0.24263975  1.0
  C  C132  1  0.85726919  0.75182311  0.24473124  1.0
  C  C133  1  0.95012053  0.74235667  0.19040124  1.0
  C  C134  1  0.91657200  0.69130224  0.13538674  1.0
  C  C135  1  0.81701228  0.90140541  0.39064132  1.0
  C  C136  1  0.78478023  0.85049866  0.33561715  1.0
  C  C137  1  0.88909977  0.80742745  0.30246086  1.0
  C  C138  1  0.02371428  0.81995653  0.32734379  1.0
  C  C139  1  0.04748313  0.87188793  0.38277359  1.0
  C  C140  1  0.74466187  0.40763631  0.92755510  1.0
  C  C141  1  0.70673646  0.35371853  0.86751344  1.0
  C  C142  1  0.75385278  0.37378190  0.80189178  1.0
  C  C143  1  0.71850887  0.32352897  0.74671727  1.0
  C  C144  1  0.64117917  0.24950453  0.75608103  1.0
  C  C145  1  0.59609602  0.22934334  0.82235191  1.0
  C  C146  1  0.62598993  0.28166043  0.87690063  1.0
  C  C147  1  0.57080558  0.16768487  0.57822277  1.0
  C  C148  1  0.59782729  0.22298738  0.63109033  1.0
  C  C149  1  0.61017243  0.19370380  0.69832032  1.0
  C  C150  1  0.59300579  0.10777320  0.70768411  1.0
  C  C151  1  0.56412678  0.05695651  0.65212894  1.0
  C  C152  1  0.24968424  0.90349437  0.57225430  1.0
  C  C153  1  0.21075326  0.85134442  0.63302766  1.0
  C  C154  1  0.30272071  0.84319785  0.68757183  1.0
  C  C155  1  0.26919725  0.79253272  0.74264078  1.0
  C  C156  1  0.14274210  0.74817535  0.74473103  1.0
  C  C157  1  0.04987889  0.75763945  0.69040446  1.0
  C  C158  1  0.08342084  0.80869331  0.63538902  1.0
  C  C159  1  0.18298965  0.59859334  0.89064264  1.0
  C  C160  1  0.21522428  0.64949814  0.83561905  1.0
  C  C161  1  0.11090247  0.69256936  0.80246007  1.0
  C  C162  1  0.97628508  0.68004096  0.82734736  1.0
  C  C163  1  0.95252270  0.62810890  0.88277863  1.0
  N  N164  1  0.55363089  0.58576443  0.91189664  1.0
  N  N165  1  0.05391139  0.08791251  0.58539697  1.0
  N  N166  1  0.44637220  0.91423433  0.41190088  1.0
  N  N167  1  0.94608565  0.41208776  0.08539890  1.0
  N  N168  1  0.44636885  0.41423726  0.08810142  1.0
  N  N169  1  0.94609941  0.91208591  0.41460161  1.0
  N  N170  1  0.55363216  0.08576109  0.58809922  1.0
  N  N171  1  0.05390740  0.58790784  0.91460069  1.0
  O  O172  1  0.86304984  0.94240046  0.57455152  1.0
  O  O173  1  0.65679997  0.91278527  0.52454877  1.0
  O  O174  1  0.37393081  0.43146964  0.92942505  1.0
  O  O175  1  0.15987622  0.41517633  0.97357119  1.0
  O  O176  1  0.13695111  0.55759801  0.07454393  1.0
  O  O177  1  0.34320601  0.58721554  0.02454915  1.0
  O  O178  1  0.62606403  0.06852790  0.42942585  1.0
  O  O179  1  0.84012647  0.08482547  0.47356977  1.0
  O  O180  1  0.13695782  0.05759739  0.42545317  1.0
  O  O181  1  0.34320718  0.08721877  0.47545490  1.0
  O  O182  1  0.62606208  0.56852410  0.07056894  1.0
  O  O183  1  0.84012706  0.58481849  0.02643350  1.0
  O  O184  1  0.86304565  0.44240497  0.92545719  1.0
  O  O185  1  0.65678328  0.41278446  0.97544840  1.0
  O  O186  1  0.37393869  0.93147250  0.57057579  1.0
  O  O187  1  0.15986715  0.91517694  0.52643441  1.0
