# generated using pymatgen
data_CdH24C34N2O5
_symmetry_space_group_name_H-M   'P 1'
_cell_length_a   9.62656450
_cell_length_b   15.25805329
_cell_length_c   15.40757452
_cell_angle_alpha   61.61806230
_cell_angle_beta   88.47077400
_cell_angle_gamma   72.45106759
_symmetry_Int_Tables_number   1
_chemical_formula_structural   CdH24C34N2O5
_chemical_formula_sum   'Cd2 H48 C68 N4 O10'
_cell_volume   1879.96976441
_cell_formula_units_Z   2
loop_
 _symmetry_equiv_pos_site_id
 _symmetry_equiv_pos_as_xyz
  1  'x, y, z'
loop_
 _atom_site_type_symbol
 _atom_site_label
 _atom_site_symmetry_multiplicity
 _atom_site_fract_x
 _atom_site_fract_y
 _atom_site_fract_z
 _atom_site_occupancy
  Cd  Cd0  1  0.85405872  0.49248593  0.89932877  1.0
  Cd  Cd1  1  0.14594189  0.50751389  0.10067094  1.0
  H  H2  1  0.05903425  0.45656696  0.74841215  1.0
  H  H3  1  0.94096589  0.54343221  0.25159053  1.0
  H  H4  1  0.29721444  0.33924793  0.73859017  1.0
  H  H5  1  0.70278305  0.66075147  0.26141030  1.0
  H  H6  1  0.36344743  0.16369339  0.06088046  1.0
  H  H7  1  0.63655784  0.83630617  0.93912072  1.0
  H  H8  1  0.12863656  0.29162512  0.05667526  1.0
  H  H9  1  0.87136995  0.70837384  0.94332666  1.0
  H  H10  1  0.50990489  0.19183873  0.81554580  1.0
  H  H11  1  0.49009572  0.80815978  0.18445392  1.0
  H  H12  1  0.56969268  0.06966138  0.04458295  1.0
  H  H13  1  0.43030792  0.93033845  0.95541676  1.0
  H  H14  1  0.70438860  0.09635882  0.79941911  1.0
  H  H15  1  0.29561341  0.90363938  0.20058209  1.0
  H  H16  1  0.94232289  0.98432390  0.79292568  1.0
  H  H17  1  0.05768036  0.01567503  0.20707625  1.0
  H  H18  1  0.03007465  0.81467451  0.11384714  1.0
  H  H19  1  0.96992534  0.18532569  0.88615479  1.0
  H  H20  1  0.78920466  0.92922552  0.12058483  1.0
  H  H21  1  0.21079501  0.07077610  0.87941560  1.0
  H  H22  1  0.19718740  0.75510870  0.02661133  1.0
  H  H23  1  0.80281461  0.24489213  0.97338984  1.0
  H  H24  1  0.18701966  0.91351127  0.80502876  1.0
  H  H25  1  0.81298126  0.08648647  0.19497245  1.0
  H  H26  1  0.40635306  0.86572829  0.73209689  1.0
  H  H27  1  0.59364677  0.13427098  0.26790431  1.0
  H  H28  1  0.64399859  0.73254201  0.74422768  1.0
  H  H29  1  0.35600124  0.26745660  0.25577353  1.0
  H  H30  1  0.62191547  0.52702626  0.03603855  1.0
  H  H31  1  0.37808545  0.47297346  0.96396263  1.0
  H  H32  1  0.38652493  0.64823299  0.03879245  1.0
  H  H33  1  0.61347365  0.35176621  0.96120801  1.0
  H  H34  1  0.96412992  0.66198889  0.68447839  1.0
  H  H35  1  0.03586928  0.33801256  0.31551982  1.0
  H  H36  1  0.08364007  0.68044277  0.53376057  1.0
  H  H37  1  0.91636147  0.31955789  0.46623838  1.0
  H  H38  1  0.49620436  0.62508842  0.68592266  1.0
  H  H39  1  0.50379624  0.37491207  0.31407704  1.0
  H  H40  1  0.37374619  0.60975470  0.83554039  1.0
  H  H41  1  0.62625224  0.39024685  0.16445930  1.0
  H  H42  1  0.39491533  0.75323528  0.33706120  1.0
  H  H43  1  0.60508185  0.24676686  0.66293775  1.0
  H  H44  1  0.34467774  0.69660466  0.21447094  1.0
  H  H45  1  0.65531867  0.30339495  0.78552953  1.0
  H  H46  1  0.23404705  0.44026533  0.44879558  1.0
  H  H47  1  0.76595169  0.55973481  0.55120562  1.0
  H  H48  1  0.28206525  0.49677455  0.57042191  1.0
  H  H49  1  0.71793567  0.50322451  0.42957929  1.0
  C  C50  1  0.13112920  0.39100546  0.81561709  1.0
  C  C51  1  0.86887172  0.60899492  0.18438409  1.0
  C  C52  1  0.26299031  0.32494509  0.81092898  1.0
  C  C53  1  0.73700952  0.67505352  0.18907222  1.0
  C  C54  1  0.35284857  0.23999192  0.89908202  1.0
  C  C55  1  0.64715328  0.76000665  0.10091844  1.0
  C  C56  1  0.30149536  0.22765866  0.98926784  1.0
  C  C57  1  0.69850540  0.77234210  0.01073260  1.0
  C  C58  1  0.16912886  0.29756091  0.98792596  1.0
  C  C59  1  0.83087548  0.70243715  0.01207597  1.0
  C  C60  1  0.48953262  0.17164153  0.89175856  1.0
  C  C61  1  0.51046799  0.82835632  0.10824117  1.0
  C  C62  1  0.59032668  0.08902815  0.96854307  1.0
  C  C63  1  0.40967284  0.91097056  0.03145665  1.0
  C  C64  1  0.72871700  0.02253303  0.96090886  1.0
  C  C65  1  0.27128283  0.97746624  0.03909234  1.0
  C  C66  1  0.77529242  0.03558384  0.86897395  1.0
  C  C67  1  0.22470866  0.96441485  0.13102799  1.0
  C  C68  1  0.91040509  0.97265707  0.86513207  1.0
  C  C69  1  0.08959707  0.02734272  0.13486986  1.0
  C  C70  1  0.00617228  0.89269887  0.95324171  1.0
  C  C71  1  0.99382879  0.10729981  0.04676023  1.0
  C  C72  1  0.95820950  0.87734413  0.04511094  1.0
  C  C73  1  0.04179266  0.12265632  0.95489097  1.0
  C  C74  1  0.82339253  0.94136280  0.04868517  1.0
  C  C75  1  0.17660621  0.05863733  0.95131602  1.0
  C  C76  1  0.15022353  0.82548983  0.95434926  1.0
  C  C77  1  0.84977848  0.17451034  0.04565192  1.0
  C  C78  1  0.22967807  0.84231306  0.87744436  1.0
  C  C79  1  0.77032285  0.15768601  0.12255684  1.0
  C  C80  1  0.37262849  0.76946674  0.88421850  1.0
  C  C81  1  0.62737134  0.23053253  0.11578270  1.0
  C  C82  1  0.45090177  0.79184704  0.80182881  1.0
  C  C83  1  0.54909790  0.20815129  0.19817166  1.0
  C  C84  1  0.58283188  0.71803405  0.80759104  1.0
  C  C85  1  0.41716826  0.28196379  0.19241165  1.0
  C  C86  1  0.56951256  0.60333054  0.97057954  1.0
  C  C87  1  0.43048711  0.39666911  0.02942091  1.0
  C  C88  1  0.43823386  0.67226747  0.97120682  1.0
  C  C89  1  0.56176472  0.32773173  0.02879364  1.0
  C  C90  1  0.09160008  0.61803127  0.86201412  1.0
  C  C91  1  0.90839803  0.38197038  0.13798410  1.0
  C  C92  1  0.16165094  0.63433766  0.76988638  1.0
  C  C93  1  0.83834702  0.36566569  0.23011107  1.0
  C  C94  1  0.08018330  0.65506135  0.68412425  1.0
  C  C95  1  0.91981700  0.34493989  0.31587396  1.0
  C  C96  1  0.14695455  0.66445324  0.60029007  1.0
  C  C97  1  0.85304590  0.33554829  0.39970888  1.0
  C  C98  1  0.29722969  0.65230794  0.60254702  1.0
  C  C99  1  0.70277091  0.34769320  0.39745267  1.0
  C  C100  1  0.37979866  0.63322284  0.68656619  1.0
  C  C101  1  0.62020086  0.36677851  0.31343351  1.0
  C  C102  1  0.31117998  0.62461141  0.76944164  1.0
  C  C103  1  0.68881829  0.37539052  0.23055731  1.0
  C  C104  1  0.33738730  0.63008384  0.45886217  1.0
  C  C105  1  0.66261206  0.36991723  0.54113678  1.0
  C  C106  1  0.35826094  0.68542284  0.35950411  1.0
  C  C107  1  0.64173857  0.31457785  0.64049559  1.0
  C  C108  1  0.33109897  0.65366310  0.29257496  1.0
  C  C109  1  0.66889915  0.34633856  0.70742325  1.0
  C  C110  1  0.28382197  0.56610153  0.32406088  1.0
  C  C111  1  0.71617599  0.43390050  0.67593659  1.0
  C  C112  1  0.26763300  0.50958984  0.42464140  1.0
  C  C113  1  0.73236387  0.49041241  0.57535607  1.0
  C  C114  1  0.29411404  0.54079918  0.49226904  1.0
  C  C115  1  0.70588439  0.45920040  0.50773068  1.0
  C  C116  1  0.24747045  0.53558283  0.25065373  1.0
  C  C117  1  0.75252813  0.46441703  0.74934672  1.0
  N  N118  1  0.08434289  0.37837182  0.90272349  1.0
  N  N119  1  0.91565928  0.62162797  0.09727843  1.0
  N  N120  1  0.64096773  0.62396962  0.89012720  1.0
  N  N121  1  0.35903319  0.37602812  0.10987401  1.0
  O  O122  1  0.95729391  0.62257742  0.86104433  1.0
  O  O123  1  0.04270405  0.37742395  0.13895315  1.0
  O  O124  1  0.17231667  0.60015431  0.93692880  1.0
  O  O125  1  0.82768083  0.39984509  0.06307167  1.0
  O  O126  1  0.36995841  0.66523434  0.52073763  1.0
  O  O127  1  0.63004313  0.33476631  0.47926132  1.0
  O  O128  1  0.25735796  0.59347887  0.15880764  1.0
  O  O129  1  0.74263845  0.40652074  0.84119283  1.0
  O  O130  1  0.20467596  0.45576520  0.28056041  1.0
  O  O131  1  0.79532294  0.54423257  0.71944155  1.0
