# generated using pymatgen
data_AlC12S3(O2F)3
_symmetry_space_group_name_H-M   'P 1'
_cell_length_a   3.96270415
_cell_length_b   20.18132172
_cell_length_c   20.18127939
_cell_angle_alpha   60.00013318
_cell_angle_beta   89.99983373
_cell_angle_gamma   89.99979910
_symmetry_Int_Tables_number   1
_chemical_formula_structural   AlC12S3(O2F)3
_chemical_formula_sum   'Al2 C24 S6 O12 F6'
_cell_volume   1397.72317105
_cell_formula_units_Z   2
loop_
 _symmetry_equiv_pos_site_id
 _symmetry_equiv_pos_as_xyz
  1  'x, y, z'
loop_
 _atom_site_type_symbol
 _atom_site_label
 _atom_site_symmetry_multiplicity
 _atom_site_fract_x
 _atom_site_fract_y
 _atom_site_fract_z
 _atom_site_occupancy
  Al  Al0  1  0.00292097  0.99999853  0.50000072  1.0
  Al  Al1  1  0.00291757  0.66666422  0.16666770  1.0
  C  C2  1  0.50215797  0.94196003  0.61739329  1.0
  C  C3  1  0.50214008  0.11739178  0.44064350  1.0
  C  C4  1  0.50214416  0.94063994  0.44196638  1.0
  C  C5  1  0.50214796  0.54927356  0.22602285  1.0
  C  C6  1  0.50214893  0.72602025  0.22470304  1.0
  C  C7  1  0.50214017  0.72470072  0.04927635  1.0
  C  C8  1  0.48840170  0.25107402  0.32151686  1.0
  C  C9  1  0.48850857  0.41559361  0.34515430  1.0
  C  C10  1  0.49752663  0.20198711  0.39954501  1.0
  C  C11  1  0.49754801  0.46467766  0.26712609  1.0
  C  C12  1  0.50434930  0.33754895  0.36579866  1.0
  C  C13  1  0.50428425  0.32911753  0.30087356  1.0
  C  C14  1  0.48841228  0.82151401  0.42740911  1.0
  C  C15  1  0.48851443  0.84515277  0.23925157  1.0
  C  C16  1  0.49754193  0.89954091  0.39846939  1.0
  C  C17  1  0.49753904  0.76712472  0.26819384  1.0
  C  C18  1  0.50435905  0.86579586  0.29665269  1.0
  C  C19  1  0.50428842  0.80087034  0.37000926  1.0
  C  C20  1  0.48841142  0.92740602  0.75107605  1.0
  C  C21  1  0.48851027  0.73924995  0.91559601  1.0
  C  C22  1  0.49752704  0.89846602  0.70198961  1.0
  C  C23  1  0.49754388  0.76819396  0.96468094  1.0
  C  C24  1  0.50435307  0.79665038  0.83755108  1.0
  C  C25  1  0.50429444  0.87000788  0.82911884  1.0
  S  S26  1  0.51780994  0.25113245  0.44984868  1.0
  S  S27  1  0.51768406  0.41553230  0.21682192  1.0
  S  S28  1  0.51782889  0.94984536  0.29902011  1.0
  S  S29  1  0.51767902  0.71681911  0.36764419  1.0
  S  S30  1  0.51780158  0.79901621  0.75113471  1.0
  S  S31  1  0.51768618  0.86764376  0.91553533  1.0
  O  O32  1  0.73843956  0.98916896  0.42646688  1.0
  O  O33  1  0.73843388  0.92646522  0.58436570  1.0
  O  O34  1  0.73844077  0.08436196  0.48917166  1.0
  O  O35  1  0.26921965  0.92528434  0.49107025  1.0
  O  O36  1  0.26921369  0.08364226  0.42528695  1.0
  O  O37  1  0.26921080  0.99107049  0.58364299  1.0
  O  O38  1  0.73843549  0.74020056  0.08230624  1.0
  O  O39  1  0.73843365  0.58230154  0.17749548  1.0
  O  O40  1  0.73843234  0.67749338  0.24020232  1.0
  O  O41  1  0.26921355  0.67559783  0.08302299  1.0
  O  O42  1  0.26920470  0.74137711  0.17559619  1.0
  O  O43  1  0.26921317  0.58302148  0.24138033  1.0
  F  F44  1  0.48109668  0.22762220  0.26962291  1.0
  F  F45  1  0.48129320  0.43904773  0.39704661  1.0
  F  F46  1  0.48111412  0.76961950  0.50275460  1.0
  F  F47  1  0.48130481  0.89704614  0.16390467  1.0
  F  F48  1  0.48111793  0.00275293  0.72762423  1.0
  F  F49  1  0.48129599  0.66390362  0.93905052  1.0
