# generated using pymatgen
data_ZnH18C26(NO2)2
_symmetry_space_group_name_H-M   'P 1'
_cell_length_a   7.50084392
_cell_length_b   16.80212470
_cell_length_c   18.27725684
_cell_angle_alpha   62.69101125
_cell_angle_beta   89.80027101
_cell_angle_gamma   89.43319737
_symmetry_Int_Tables_number   1
_chemical_formula_structural   ZnH18C26(NO2)2
_chemical_formula_sum   'Zn2 H36 C52 N4 O8'
_cell_volume   2046.64891315
_cell_formula_units_Z   2
loop_
 _symmetry_equiv_pos_site_id
 _symmetry_equiv_pos_as_xyz
  1  'x, y, z'
loop_
 _atom_site_type_symbol
 _atom_site_label
 _atom_site_symmetry_multiplicity
 _atom_site_fract_x
 _atom_site_fract_y
 _atom_site_fract_z
 _atom_site_occupancy
  Zn  Zn0  1  0.75044212  0.08722673  0.82584489  1.0
  Zn  Zn1  1  0.24955615  0.91276935  0.17415320  1.0
  H  H2  1  0.86797791  0.24543858  0.85751418  1.0
  H  H3  1  0.63317457  0.89774455  0.85649037  1.0
  H  H4  1  0.13202495  0.75456168  0.14247174  1.0
  H  H5  1  0.36681981  0.10225212  0.14351134  1.0
  H  H6  1  0.92575352  0.26842303  0.98285065  1.0
  H  H7  1  0.57437325  0.74949635  0.98136535  1.0
  H  H8  1  0.07426195  0.73158614  0.01713145  1.0
  H  H9  1  0.42563707  0.25050190  0.01863721  1.0
  H  H10  1  0.78416844  0.99236976  0.13317397  1.0
  H  H11  1  0.71517913  0.87429271  0.13284628  1.0
  H  H12  1  0.21584456  0.00764264  0.86681884  1.0
  H  H13  1  0.28484421  0.12570778  0.86715196  1.0
  H  H14  1  0.30447890  0.06783394  0.73995179  1.0
  H  H15  1  0.19565283  0.19211739  0.73970613  1.0
  H  H16  1  0.69551090  0.93216869  0.26004528  1.0
  H  H17  1  0.80434842  0.80787736  0.26029742  1.0
  H  H18  1  0.54087715  0.04770461  0.65730530  1.0
  H  H19  1  0.95920385  0.29489156  0.65683750  1.0
  H  H20  1  0.45911298  0.95229401  0.34269344  1.0
  H  H21  1  0.04079065  0.70510574  0.34316832  1.0
  H  H22  1  0.64078342  0.01533139  0.55333882  1.0
  H  H23  1  0.85928893  0.43137371  0.55304907  1.0
  H  H24  1  0.35920676  0.98466787  0.44666239  1.0
  H  H25  1  0.14070414  0.56862687  0.44696032  1.0
  H  H26  1  0.15059722  0.96440121  0.53334235  1.0
  H  H27  1  0.34958854  0.50173872  0.53338721  1.0
  H  H28  1  0.84939242  0.03558865  0.46666333  1.0
  H  H29  1  0.65039887  0.49826646  0.46662140  1.0
  H  H30  1  0.91529888  0.97603761  0.62362304  1.0
  H  H31  1  0.58495521  0.39969654  0.62376544  1.0
  H  H32  1  0.08469021  0.02395896  0.37637985  1.0
  H  H33  1  0.41503633  0.60030604  0.37624203  1.0
  H  H34  1  0.87891188  0.13733782  0.12346985  1.0
  H  H35  1  0.62021887  0.73947446  0.12233099  1.0
  H  H36  1  0.12110347  0.86267534  0.87651606  1.0
  H  H37  1  0.37980614  0.26052270  0.87767027  1.0
  C  C38  1  0.94496827  0.03575429  0.73614704  1.0
  C  C39  1  0.55505158  0.22776377  0.73633108  1.0
  C  C40  1  0.05503258  0.96424581  0.26385537  1.0
  C  C41  1  0.44494772  0.77223766  0.26366806  1.0
  C  C42  1  0.09188271  0.02378245  0.68700290  1.0
  C  C43  1  0.40823036  0.28889507  0.68698880  1.0
  C  C44  1  0.90811048  0.97621351  0.31300130  1.0
  C  C45  1  0.59176649  0.71110496  0.31301368  1.0
  C  C46  1  0.85338491  0.19162704  0.92015973  1.0
  C  C47  1  0.64738190  0.88873366  0.91927335  1.0
  C  C48  1  0.14661654  0.80837651  0.07982975  1.0
  C  C49  1  0.35261891  0.11126512  0.08072579  1.0
  C  C50  1  0.88287900  0.20354560  0.98984103  1.0
  C  C51  1  0.61726036  0.80715129  0.98870082  1.0
  C  C52  1  0.11713046  0.79645741  0.01014751  1.0
  C  C53  1  0.38274867  0.19284561  0.01130068  1.0
  C  C54  1  0.80245674  0.04943760  0.07304416  1.0
  C  C55  1  0.69740419  0.87752146  0.07257647  1.0
  C  C56  1  0.19754493  0.95056591  0.92695081  1.0
  C  C57  1  0.30261128  0.12247822  0.92742381  1.0
  C  C58  1  0.26918478  0.04344860  0.69609599  1.0
  C  C59  1  0.23086828  0.26025964  0.69590303  1.0
  C  C60  1  0.73080689  0.95654802  0.30390467  1.0
  C  C61  1  0.76912880  0.73973772  0.30410056  1.0
  C  C62  1  0.40321060  0.03413287  0.64780855  1.0
  C  C63  1  0.09689382  0.31788695  0.64749215  1.0
  C  C64  1  0.59678104  0.96586442  0.35219238  1.0
  C  C65  1  0.90310201  0.68211102  0.35251502  1.0
  C  C66  1  0.36376475  0.00810429  0.58656443  1.0
  C  C67  1  0.13633130  0.40508215  0.58638857  1.0
  C  C68  1  0.63622718  0.99188965  0.41343844  1.0
  C  C69  1  0.86365652  0.59491702  0.41362036  1.0
  C  C70  1  0.50812416  0.00561279  0.53421077  1.0
  C  C71  1  0.99189650  0.46011185  0.53409373  1.0
  C  C72  1  0.49186228  0.99438307  0.46579134  1.0
  C  C73  1  0.00809401  0.53988802  0.46591708  1.0
  C  C74  1  0.18526017  0.98682452  0.57876044  1.0
  C  C75  1  0.31492055  0.43397908  0.57872265  1.0
  C  C76  1  0.81472678  0.01316729  0.42124774  1.0
  C  C77  1  0.68507536  0.56601955  0.42128753  1.0
  C  C78  1  0.05264157  0.99350617  0.62876364  1.0
  C  C79  1  0.44754725  0.37725498  0.62878127  1.0
  C  C80  1  0.94735289  0.00648851  0.37123671  1.0
  C  C81  1  0.55244407  0.62274897  0.37122290  1.0
  C  C82  1  0.77769865  0.04186525  0.00074571  1.0
  C  C83  1  0.72284913  0.95738843  0.00050010  1.0
  C  C84  1  0.22230962  0.95813904  0.99924888  1.0
  C  C85  1  0.27716207  0.04261387  0.99949803  1.0
  C  C86  1  0.85699511  0.13117594  0.06732393  1.0
  C  C87  1  0.64266144  0.80178991  0.06637835  1.0
  C  C88  1  0.14302004  0.86883989  0.93266141  1.0
  C  C89  1  0.35735798  0.19820984  0.93362078  1.0
  N  N90  1  0.80312830  0.11265267  0.92594790  1.0
  N  N91  1  0.69785630  0.96165331  0.92549565  1.0
  N  N92  1  0.19687366  0.88734616  0.07404683  1.0
  N  N93  1  0.30214445  0.03834614  0.07450321  1.0
  O  O94  1  0.98186843  0.08054920  0.77670655  1.0
  O  O95  1  0.51801985  0.14253179  0.77706600  1.0
  O  O96  1  0.01813108  0.91944891  0.22329233  1.0
  O  O97  1  0.48198873  0.85746980  0.22293190  1.0
  O  O98  1  0.79218283  0.00450459  0.73813855  1.0
  O  O99  1  0.70801108  0.25683776  0.73835066  1.0
  O  O100  1  0.20780338  0.99549527  0.26186463  1.0
  O  O101  1  0.29199041  0.74316841  0.26164429  1.0
