# generated using pymatgen
data_Mg3H8C14(NO5)2
_symmetry_space_group_name_H-M   'P 1'
_cell_length_a   11.04598640
_cell_length_b   11.11608287
_cell_length_c   11.11609547
_cell_angle_alpha   72.87138639
_cell_angle_beta   78.81041349
_cell_angle_gamma   78.81028017
_symmetry_Int_Tables_number   1
_chemical_formula_structural   Mg3H8C14(NO5)2
_chemical_formula_sum   'Mg6 H16 C28 N4 O20'
_cell_volume   1265.87064799
_cell_formula_units_Z   2
loop_
 _symmetry_equiv_pos_site_id
 _symmetry_equiv_pos_as_xyz
  1  'x, y, z'
loop_
 _atom_site_type_symbol
 _atom_site_label
 _atom_site_symmetry_multiplicity
 _atom_site_fract_x
 _atom_site_fract_y
 _atom_site_fract_z
 _atom_site_occupancy
  C  C44  1  0.22755620  0.20129259  0.41807708  1.0
  C  C45  1  0.28284568  0.07471018  0.43464919  1.0
  C  C46  1  0.21961135  0.99018140  0.40805678  1.0
  C  C47  1  0.10487300  0.03699461  0.36386882  1.0
  C  C48  1  0.05538645  0.16439881  0.35203924  1.0
  C  C49  1  0.29053901  0.30054117  0.43998246  1.0
  C  C50  1  0.27188418  0.85062122  0.42779607  1.0
  C  C51  1  0.72755523  0.41808437  0.20129272  1.0
  C  C52  1  0.78284412  0.43465938  0.07471052  1.0
  C  C53  1  0.71961160  0.40806952  0.99017975  1.0
  C  C54  1  0.60487705  0.36387921  0.03699179  1.0
  C  C55  1  0.55538776  0.35203975  0.16439939  1.0
  C  C56  1  0.79053817  0.43999056  0.30054207  1.0
  C  C57  1  0.77188046  0.42780633  0.85062124  1.0
  C  C58  1  0.27244598  0.58191812  0.79870741  1.0
  C  C59  1  0.21715661  0.56534443  0.92528791  1.0
  C  C60  1  0.28038681  0.59193454  0.00981969  1.0
  C  C61  1  0.39512466  0.63612593  0.96300722  1.0
  C  C62  1  0.44461112  0.64796198  0.83560226  1.0
  C  C63  1  0.20946216  0.56001460  0.69945847  1.0
  C  C64  1  0.22812163  0.57219196  0.14938000  1.0
  C  C65  1  0.77244261  0.79870682  0.58192301  1.0
  C  C66  1  0.71715222  0.92528870  0.56535340  1.0
  C  C67  1  0.78038372  0.00981682  0.59194514  1.0
  C  C68  1  0.89511882  0.96300366  0.63613467  1.0
  C  C69  1  0.94460959  0.83560074  0.64796325  1.0
  C  C70  1  0.70946162  0.69945607  0.56001696  1.0
  C  C71  1  0.72811735  0.14937767  0.57219971  1.0
  H  H12  1  0.37321717  0.04267369  0.46778330  1.0
  H  H13  1  0.05545906  0.97309433  0.34044296  1.0
  H  H14  1  0.96530842  0.20399781  0.31954930  1.0
  H  H15  1  0.52349596  0.39385096  0.69315817  1.0
  H  H16  1  0.97650437  0.30683833  0.60615007  1.0
  H  H17  1  0.87321555  0.46779622  0.04267249  1.0
  H  H18  1  0.55546116  0.34045030  0.97309299  1.0
  H  H19  1  0.46531318  0.31954590  0.20400098  1.0
  H  H20  1  0.12678560  0.53220308  0.95732749  1.0
  H  H21  1  0.44454188  0.65955116  0.02690535  1.0
  H  H22  1  0.53468660  0.68045446  0.79600006  1.0
  H  H25  1  0.62678061  0.95732224  0.53221557  1.0
  H  H26  1  0.94453373  0.02690528  0.65956110  1.0
  H  H27  1  0.03468714  0.79600155  0.68045300  1.0
  H  H31  1  0.47650370  0.60614760  0.30683802  1.0
  H  H32  1  0.02349537  0.69316120  0.39385014  1.0
  Mg  Mg0  1  0.04281000  0.44966303  0.37676900  1.0
  Mg  Mg1  1  0.75000053  0.40570265  0.59429718  1.0
  Mg  Mg2  1  0.54281165  0.37676553  0.44966134  1.0
  Mg  Mg3  1  0.45719035  0.62323330  0.55033438  1.0
  Mg  Mg5  1  0.95718978  0.55033668  0.62323215  1.0
  Mg  Mg7  1  0.25000061  0.59429487  0.40570404  1.0
  N  N100  1  0.11442721  0.24518377  0.37971888  1.0
  N  N101  1  0.61442998  0.37971875  0.24518446  1.0
  N  N102  1  0.38557495  0.62028361  0.75481403  1.0
  N  N103  1  0.88557069  0.75481511  0.62028370  1.0
  O  O108  1  0.22191187  0.40734296  0.43805833  1.0
  O  O109  1  0.40334510  0.27408107  0.45539351  1.0
  O  O110  1  0.36319945  0.80864576  0.48934810  1.0
  O  O111  1  0.21762803  0.78708689  0.38197286  1.0
  O  O112  1  0.55279650  0.43734036  0.60603332  1.0
  O  O113  1  0.94720370  0.39396532  0.56266036  1.0
  O  O114  1  0.72191191  0.43805279  0.40734651  1.0
  O  O115  1  0.90334199  0.45540564  0.27408485  1.0
  O  O116  1  0.86319608  0.48936078  0.80864388  1.0
  O  O117  1  0.71762333  0.38198055  0.78708814  1.0
  O  O118  1  0.27809067  0.56194713  0.59265407  1.0
  O  O119  1  0.09665834  0.54460180  0.72591342  1.0
  O  O120  1  0.13680744  0.51063897  0.19135656  1.0
  O  O121  1  0.28237646  0.61801783  0.21291545  1.0
  O  O124  1  0.77808746  0.59265397  0.56194685  1.0
  O  O125  1  0.59665780  0.72591299  0.54460501  1.0
  O  O126  1  0.63680485  0.19135451  0.51064374  1.0
  O  O127  1  0.78237261  0.21291166  0.61802636  1.0
  O  O132  1  0.44720505  0.56265834  0.39396378  1.0
  O  O133  1  0.05279608  0.60603504  0.43734069  1.0
