# generated using pymatgen
data_Zr6H26C57S10(ClO8)4
_symmetry_space_group_name_H-M   'P 1'
_cell_length_a   16.43771841
_cell_length_b   16.46676201
_cell_length_c   16.46588852
_cell_angle_alpha   61.91234943
_cell_angle_beta   60.05471296
_cell_angle_gamma   60.05332509
_symmetry_Int_Tables_number   1
_chemical_formula_structural   Zr6H26C57S10(ClO8)4
_chemical_formula_sum   'Zr6 H26 C57 S10 Cl4 O32'
_cell_volume   3197.20447365
_cell_formula_units_Z   1
loop_
 _symmetry_equiv_pos_site_id
 _symmetry_equiv_pos_as_xyz
  1  'x, y, z'
loop_
 _atom_site_type_symbol
 _atom_site_label
 _atom_site_symmetry_multiplicity
 _atom_site_fract_x
 _atom_site_fract_y
 _atom_site_fract_z
 _atom_site_occupancy
  Zr  Zr0  1  0.88580422  0.90236601  0.60860503  1.0
  Zr  Zr1  1  0.10054937  0.11112784  0.40038186  1.0
  Zr  Zr2  1  0.10100972  0.90184464  0.60872566  1.0
  Zr  Zr3  1  0.88640046  0.11009057  0.39975536  1.0
  Zr  Zr4  1  0.10345647  0.89677399  0.39545275  1.0
  Zr  Zr5  1  0.88431718  0.11545895  0.61381684  1.0
  H  H6  1  0.08229876  0.75617460  0.57893487  1.0
  H  H7  1  0.08137199  0.08065976  0.25463472  1.0
  H  H8  1  0.07629683  0.09263441  0.59066226  1.0
  H  H9  1  0.73799884  0.09255854  0.59026582  1.0
  H  H10  1  0.11762397  0.61625026  0.36769825  1.0
  H  H11  1  0.60109174  0.13509907  0.90336893  1.0
  H  H12  1  0.85814385  0.12147998  0.13008739  1.0
  H  H13  1  0.60921551  0.39125914  0.37642726  1.0
  H  H14  1  0.89682771  0.63435079  0.79725035  1.0
  H  H15  1  0.17280149  0.28695587  0.12147939  1.0
  H  H16  1  0.60536627  0.87917793  0.62803609  1.0
  H  H17  1  0.85325941  0.33400288  0.71051555  1.0
  H  H18  1  0.78887201  0.46233579  0.69592572  1.0
  H  H19  1  0.77751875  0.40255797  0.63725195  1.0
  H  H20  1  0.32571783  0.85906269  0.11729658  1.0
  H  H21  1  0.45705035  0.79659128  0.06936151  1.0
  H  H22  1  0.39563480  0.79170816  0.19592430  1.0
  H  H23  1  0.19906779  0.88054086  0.80434432  1.0
  H  H24  1  0.20011903  0.82187651  0.92699919  1.0
  H  H25  1  0.13381412  0.79813825  0.88631326  1.0
  H  H26  1  0.33659893  0.62234321  0.70367904  1.0
  H  H27  1  0.46478344  0.60906651  0.65900620  1.0
  H  H28  1  0.37524480  0.72309170  0.61721002  1.0
  H  H29  1  0.32202898  0.20443874  0.36204810  1.0
  H  H30  1  0.45315138  0.17735398  0.29566961  1.0
  H  H31  1  0.38576313  0.11999188  0.29479685  1.0
  C  C32  1  0.99163582  0.73864900  0.49560853  1.0
  C  C33  1  0.27246123  0.99823155  0.23710551  1.0
  C  C34  1  0.98692087  0.28178226  0.50604530  1.0
  C  C35  1  0.72348344  0.00787101  0.78000014  1.0
  C  C36  1  0.99781832  0.73538124  0.76336837  1.0
  C  C37  1  0.72445347  0.00202252  0.50130754  1.0
  C  C38  1  0.99942021  0.26504384  0.23385298  1.0
  C  C39  1  0.26950556  0.00351860  0.50087845  1.0
  C  C40  1  0.27391410  0.73974733  0.49550879  1.0
  C  C41  1  0.98934369  0.00540714  0.77976603  1.0
  C  C42  1  0.72519672  0.28255636  0.50213768  1.0
  C  C43  1  0.99308599  0.99739557  0.23611952  1.0
  C  C44  1  0.91692257  0.42752386  0.57048633  1.0
  C  C45  1  0.05506354  0.59646535  0.42996405  1.0
  C  C46  1  0.98436159  0.37258842  0.50452490  1.0
  C  C47  1  0.98909814  0.65079794  0.49558378  1.0
  C  C48  1  0.02938158  0.51520662  0.45628931  1.0
  C  C49  1  0.94401247  0.50893574  0.54168432  1.0
  C  C50  1  0.41869039  0.92833920  0.09724890  1.0
  C  C51  1  0.58261363  0.07123954  0.92499762  1.0
  C  C52  1  0.36300522  0.99643170  0.14990763  1.0
  C  C53  1  0.63702926  0.00469988  0.87156705  1.0
  C  C54  1  0.50299707  0.04419219  0.00739320  1.0
  C  C55  1  0.49839149  0.95707907  0.01570873  1.0
  C  C56  1  0.06236354  0.93745459  0.91439679  1.0
  C  C57  1  0.92225680  0.06270829  0.10165718  1.0
  C  C58  1  0.99105002  0.00292803  0.86893431  1.0
  C  C59  1  0.99244019  0.99735651  0.14731702  1.0
  C  C60  1  0.94671540  0.04169815  0.01678127  1.0
  C  C61  1  0.03547272  0.96063902  0.99907317  1.0
  C  C62  1  0.41948876  0.60975444  0.55730769  1.0
  C  C63  1  0.58822465  0.42060758  0.43378004  1.0
  C  C64  1  0.36585726  0.65395155  0.49414414  1.0
  C  C65  1  0.63950062  0.37474045  0.49849261  1.0
  C  C66  1  0.50795340  0.50627799  0.45434288  1.0
  C  C67  1  0.50003465  0.52486892  0.53383428  1.0
  C  C68  1  0.07457008  0.57483519  0.88290161  1.0
  C  C69  1  0.94042667  0.59418960  0.84547414  1.0
  C  C70  1  0.92821732  0.50957610  0.91787929  1.0
  C  C71  1  0.98298777  0.45768941  0.98397434  1.0
  C  C72  1  0.95541409  0.38945266  0.07898930  1.0
  C  C73  1  0.11802257  0.33914460  0.08539202  1.0
  C  C74  1  0.14305394  0.40952857  0.99879660  1.0
  C  C75  1  0.07017061  0.48119714  0.95255866  1.0
  C  C76  1  0.00696023  0.63335840  0.83271295  1.0
  C  C77  1  0.02093041  0.33367128  0.13147282  1.0
  C  C78  1  0.41539871  0.06432445  0.42836685  1.0
  C  C79  1  0.58484591  0.93678265  0.56545777  1.0
  C  C80  1  0.36095066  0.00199727  0.49709471  1.0
  C  C81  1  0.63779099  0.99984835  0.49864144  1.0
  C  C82  1  0.50388185  0.95930916  0.54047749  1.0
  C  C83  1  0.49687284  0.03890279  0.45466996  1.0
  C  C84  1  0.82932672  0.40580664  0.65833496  1.0
  C  C85  1  0.39868325  0.83897933  0.12091358  1.0
  C  C86  1  0.15398868  0.85507866  0.88138056  1.0
  C  C87  1  0.39818982  0.64314301  0.63837530  1.0
  C  C88  1  0.39328946  0.14586284  0.34034245  1.0
  S  S89  1  0.07760706  0.41980451  0.40989192  1.0
  S  S90  1  0.89558884  0.60388750  0.58917072  1.0
  S  S91  1  0.40754354  0.09238988  0.10112272  1.0
  S  S92  1  0.59247526  0.90895426  0.92129010  1.0
  S  S93  1  0.89471984  0.09077806  0.92796333  1.0
  S  S94  1  0.08820439  0.91023536  0.08778614  1.0
  S  S95  1  0.41448156  0.59419719  0.40732246  1.0
  S  S96  1  0.59112092  0.43556521  0.58391682  1.0
  S  S97  1  0.40889160  0.91435035  0.59025815  1.0
  S  S98  1  0.59036192  0.08604527  0.40524889  1.0
  Cl  Cl99  1  0.26760335  0.39979799  0.94485034  1.0
  Cl  Cl100  1  0.15456130  0.61944186  0.87418602  1.0
  Cl  Cl101  1  0.85275666  0.46500530  0.91750749  1.0
  Cl  Cl102  1  0.83484028  0.38942184  0.13309693  1.0
  O  O103  1  0.92248922  0.77500462  0.56576435  1.0
  O  O104  1  0.23454296  0.06954528  0.27221895  1.0
  O  O105  1  0.05820081  0.24407520  0.43731663  1.0
  O  O106  1  0.75884707  0.93948880  0.74202086  1.0
  O  O107  1  0.06303007  0.77192687  0.73531533  1.0
  O  O108  1  0.75863296  0.07050843  0.43470097  1.0
  O  O109  1  0.92630665  0.23579034  0.27152575  1.0
  O  O110  1  0.23311563  0.93743778  0.57083902  1.0
  O  O111  1  0.23810261  0.76983888  0.42854544  1.0
  O  O112  1  0.92040173  0.07592718  0.74617887  1.0
  O  O113  1  0.75703886  0.24816133  0.57286984  1.0
  O  O114  1  0.06470794  0.93018999  0.26752645  1.0
  O  O115  1  0.05833232  0.93661165  0.74135874  1.0
  O  O116  1  0.76000337  0.24355472  0.43484321  1.0
  O  O117  1  0.92278067  0.06585279  0.27376275  1.0
  O  O118  1  0.23473878  0.77702134  0.56519249  1.0
  O  O119  1  0.92271438  0.77780191  0.73503869  1.0
  O  O120  1  0.23202801  0.07136176  0.43519809  1.0
  O  O121  1  0.06114838  0.23805335  0.27487838  1.0
  O  O122  1  0.75777208  0.93649883  0.57041795  1.0
  O  O123  1  0.75549194  0.07847963  0.74487995  1.0
  O  O124  1  0.06239215  0.77058416  0.42796408  1.0
  O  O125  1  0.23691394  0.93046481  0.27068631  1.0
  O  O126  1  0.91952371  0.24588310  0.57589727  1.0
  O  O127  1  0.81053921  0.06829432  0.56592792  1.0
  O  O128  1  0.05256108  0.06794713  0.56656014  1.0
  O  O129  1  0.05561800  0.06138238  0.32570659  1.0
  O  O130  1  0.05565654  0.82724865  0.55956232  1.0
  O  O131  1  0.12833634  0.96119064  0.45924458  1.0
  O  O132  1  0.94985697  0.96062241  0.45901583  1.0
  O  O133  1  0.94831514  0.13737264  0.46329261  1.0
  O  O134  1  0.94843801  0.96518717  0.63549988  1.0
