# generated using pymatgen
data_AlH9(C3O)6
_symmetry_space_group_name_H-M   'P 1'
_cell_length_a   3.97486695
_cell_length_b   17.13219232
_cell_length_c   17.13226791
_cell_angle_alpha   119.99978217
_cell_angle_beta   90.00017369
_cell_angle_gamma   90.00010637
_symmetry_Int_Tables_number   1
_chemical_formula_structural   AlH9(C3O)6
_chemical_formula_sum   'Al2 H18 C36 O12'
_cell_volume   1010.37357469
_cell_formula_units_Z   2
loop_
 _symmetry_equiv_pos_site_id
 _symmetry_equiv_pos_as_xyz
  1  'x, y, z'
loop_
 _atom_site_type_symbol
 _atom_site_label
 _atom_site_symmetry_multiplicity
 _atom_site_fract_x
 _atom_site_fract_y
 _atom_site_fract_z
 _atom_site_occupancy
  Al  Al0  1  0.98313841  0.99999980  0.49999954  1.0
  Al  Al1  1  0.01686477  0.33333246  0.16666560  1.0
  H  H2  1  0.49685277  0.49880827  0.39670305  1.0
  H  H3  1  0.49409936  0.58258246  0.56283324  1.0
  H  H4  1  0.50329316  0.83472579  0.56467723  1.0
  H  H5  1  0.50522044  0.75092844  0.64701803  1.0
  H  H6  1  0.51412642  0.75094606  0.25189702  1.0
  H  H7  1  0.48550537  0.58251314  0.16769210  1.0
  H  H8  1  0.49684930  0.10329800  0.10210660  1.0
  H  H9  1  0.49409736  0.93716684  0.01975106  1.0
  H  H10  1  0.50328667  0.93532389  0.27005086  1.0
  H  H11  1  0.50522245  0.85298396  0.10391518  1.0
  H  H12  1  0.51413000  0.24810431  0.49904998  1.0
  H  H13  1  0.48550999  0.33230874  0.41482075  1.0
  H  H14  1  0.49684735  0.39789255  0.00118957  1.0
  H  H15  1  0.49409267  0.48024799  0.91741390  1.0
  H  H16  1  0.50328282  0.22994830  0.66527164  1.0
  H  H17  1  0.50521365  0.39608558  0.74906827  1.0
  H  H18  1  0.51412555  0.00094898  0.74905459  1.0
  H  H19  1  0.48549958  0.08517742  0.91748751  1.0
  C  C20  1  0.48818966  0.06718077  0.63846544  1.0
  C  C21  1  0.48819253  0.86153372  0.42871677  1.0
  C  C22  1  0.48819089  0.07128346  0.43281748  1.0
  C  C23  1  0.51187855  0.47189494  0.23392706  1.0
  C  C24  1  0.51187523  0.26607187  0.23796749  1.0
  C  C25  1  0.51187388  0.26203136  0.02810319  1.0
  C  C26  1  0.49817318  0.57218240  0.28723763  1.0
  C  C27  1  0.50262696  0.61835471  0.38348677  1.0
  C  C28  1  0.49326222  0.61936555  0.24117922  1.0
  C  C29  1  0.49878796  0.57216502  0.43303451  1.0
  C  C30  1  0.49766669  0.61916028  0.52587134  1.0
  C  C31  1  0.50210172  0.76127522  0.38177360  1.0
  C  C32  1  0.50673254  0.71407305  0.28852746  1.0
  C  C33  1  0.49790297  0.71512866  0.43186939  1.0
  C  C34  1  0.50146615  0.76135017  0.52762890  1.0
  C  C35  1  0.50215306  0.71435844  0.57346899  1.0
  C  C36  1  0.49817829  0.21276284  0.28494475  1.0
  C  C37  1  0.50262049  0.11651595  0.23487086  1.0
  C  C38  1  0.49326318  0.25882326  0.37818795  1.0
  C  C39  1  0.49878560  0.06696289  0.13913130  1.0
  C  C40  1  0.49766288  0.97413246  0.09329420  1.0
  C  C41  1  0.50209813  0.11823006  0.37950456  1.0
  C  C42  1  0.50673292  0.21147365  0.42554649  1.0
  C  C43  1  0.49789340  0.06813107  0.28326089  1.0
  C  C44  1  0.50145760  0.97237349  0.23372584  1.0
  C  C45  1  0.50214867  0.92652942  0.14088908  1.0
  C  C46  1  0.49816979  0.21505341  0.92781592  1.0
  C  C47  1  0.50261764  0.26513001  0.88164577  1.0
  C  C48  1  0.49325574  0.12181117  0.88063413  1.0
  C  C49  1  0.49877920  0.36086737  0.92783023  1.0
  C  C50  1  0.49765704  0.40670590  0.88083685  1.0
  C  C51  1  0.50209538  0.12049405  0.73872399  1.0
  C  C52  1  0.50672458  0.07445129  0.78592578  1.0
  C  C53  1  0.49788963  0.21673757  0.78486793  1.0
  C  C54  1  0.50145696  0.26627498  0.73864765  1.0
  C  C55  1  0.50214445  0.35910809  0.78563772  1.0
  O  O56  1  0.24550068  0.01654022  0.41620749  1.0
  O  O57  1  0.24549960  0.08379205  0.60033226  1.0
  O  O58  1  0.24550063  0.89966598  0.48345983  1.0
  O  O59  1  0.71545933  0.08939831  0.49225531  1.0
  O  O60  1  0.71545805  0.90285718  0.41060193  1.0
  O  O61  1  0.71545714  0.00774417  0.59714297  1.0
  O  O62  1  0.28449790  0.24394310  0.06942539  1.0
  O  O63  1  0.28449933  0.43057312  0.17451591  1.0
  O  O64  1  0.28450193  0.32548159  0.25605543  1.0
  O  O65  1  0.75446611  0.31680013  0.06629986  1.0
  O  O66  1  0.75446658  0.24949935  0.18319773  1.0
  O  O67  1  0.75447027  0.43369772  0.25049759  1.0
