# generated using pymatgen
data_ZnH19C23NO6
_symmetry_space_group_name_H-M   'P 1'
_cell_length_a   13.89857057
_cell_length_b   15.30749417
_cell_length_c   17.32031342
_cell_angle_alpha   89.40988039
_cell_angle_beta   84.07475390
_cell_angle_gamma   89.93843814
_symmetry_Int_Tables_number   1
_chemical_formula_structural   ZnH19C23NO6
_chemical_formula_sum   'Zn2 H38 C46 N2 O12'
_cell_volume   3665.05486455
_cell_formula_units_Z   2
loop_
 _symmetry_equiv_pos_site_id
 _symmetry_equiv_pos_as_xyz
  1  'x, y, z'
loop_
 _atom_site_type_symbol
 _atom_site_label
 _atom_site_symmetry_multiplicity
 _atom_site_fract_x
 _atom_site_fract_y
 _atom_site_fract_z
 _atom_site_occupancy
  Zn  Zn0  1  0.59857888  0.49116041  0.49746955  1.0
  Zn  Zn1  1  0.40032373  0.49466889  0.49798474  1.0
  H  H2  1  0.36594403  0.55179539  0.26720279  1.0
  H  H3  1  0.61889840  0.47463455  0.74211650  1.0
  H  H4  1  0.07787327  0.56857128  0.39383643  1.0
  H  H5  1  0.92787121  0.35343390  0.53129573  1.0
  H  H6  1  0.25817315  0.56587008  0.39595359  1.0
  H  H7  1  0.74762572  0.35810377  0.52823380  1.0
  H  H8  1  0.23707582  0.42041878  0.59942939  1.0
  H  H9  1  0.75257057  0.62213812  0.47493372  1.0
  H  H10  1  0.05607761  0.41439948  0.60557283  1.0
  H  H11  1  0.93370514  0.62851061  0.47170230  1.0
  H  H12  1  0.32623511  0.56290590  0.73938844  1.0
  H  H13  1  0.67588223  0.53880468  0.24640212  1.0
  H  H14  1  0.38178268  0.57122516  0.00419708  1.0
  H  H15  1  0.60452937  0.57158174  0.99012351  1.0
  H  H16  1  0.68043324  0.56423786  0.10343352  1.0
  H  H17  1  0.31682682  0.59314154  0.88141494  1.0
  H  H18  1  0.61115948  0.50375115  0.88341320  1.0
  H  H19  1  0.36880050  0.58141370  0.12646300  1.0
  H  H20  1  0.42193804  0.93116093  0.39761194  1.0
  H  H21  1  0.41555066  0.05732695  0.61015894  1.0
  H  H22  1  0.56950524  0.93917957  0.60480393  1.0
  H  H23  1  0.57060444  0.04902168  0.38041274  1.0
  H  H24  1  0.40255449  0.70199269  0.41389172  1.0
  H  H25  1  0.39001733  0.28601119  0.59314277  1.0
  H  H26  1  0.48520044  0.76725114  0.71335551  1.0
  H  H27  1  0.56410817  0.85957487  0.70517440  1.0
  H  H28  1  0.62827772  0.67156173  0.73393070  1.0
  H  H29  1  0.70301946  0.76535043  0.73040589  1.0
  H  H30  1  0.60015399  0.82574496  0.84827223  1.0
  H  H31  1  0.64989493  0.72243708  0.86893581  1.0
  H  H32  1  0.52706107  0.73025993  0.85125519  1.0
  H  H33  1  0.47169895  0.30742443  0.34434919  1.0
  H  H34  1  0.46265558  0.20525091  0.29649838  1.0
  H  H35  1  0.61530762  0.34784884  0.25625569  1.0
  H  H36  1  0.61790342  0.24381840  0.21241913  1.0
  H  H37  1  0.45850992  0.27325660  0.16070048  1.0
  H  H38  1  0.54021496  0.35951664  0.13161968  1.0
  H  H39  1  0.44894769  0.37521947  0.20921547  1.0
  C  C40  1  0.50392689  0.66441052  0.50315685  1.0
  C  C41  1  0.49906130  0.32307637  0.49070908  1.0
  C  C42  1  0.45669367  0.89802056  0.44332600  1.0
  C  C43  1  0.45155204  0.09006993  0.55893919  1.0
  C  C44  1  0.45458882  0.80681063  0.44718029  1.0
  C  C45  1  0.44645157  0.18120624  0.55341289  1.0
  C  C46  1  0.50152859  0.76118865  0.50470045  1.0
  C  C47  1  0.49465704  0.22610532  0.48858516  1.0
  C  C48  1  0.54230542  0.81030834  0.56197926  1.0
  C  C49  1  0.53831876  0.17649547  0.42623154  1.0
  C  C50  1  0.53776142  0.90151348  0.56084648  1.0
  C  C51  1  0.53759333  0.08557082  0.42990690  1.0
  C  C52  1  0.49722447  0.94533370  0.50045803  1.0
  C  C53  1  0.49646409  0.04207886  0.49709979  1.0
  C  C54  1  0.11014857  0.53523306  0.44073234  1.0
  C  C55  1  0.89203301  0.41449800  0.51868026  1.0
  C  C56  1  0.20997472  0.53395903  0.44130205  1.0
  C  C57  1  0.79223588  0.41639294  0.51724344  1.0
  C  C58  1  0.19820976  0.45124258  0.55487257  1.0
  C  C59  1  0.79539661  0.56430190  0.48555884  1.0
  C  C60  1  0.09801649  0.44824190  0.55771385  1.0
  C  C61  1  0.89547235  0.56705320  0.48417067  1.0
  C  C62  1  0.51700220  0.51557548  0.34873047  1.0
  C  C63  1  0.47812685  0.49828681  0.64752259  1.0
  C  C64  1  0.05205780  0.49137360  0.49984232  1.0
  C  C65  1  0.94574832  0.49090732  0.50101014  1.0
  C  C66  1  0.52062598  0.54125308  0.26514141  1.0
  C  C67  1  0.47286569  0.51656632  0.73237609  1.0
  C  C68  1  0.43463018  0.55569204  0.23084267  1.0
  C  C69  1  0.55339350  0.50119350  0.77332124  1.0
  C  C70  1  0.43667835  0.57174706  0.15182567  1.0
  C  C71  1  0.54889058  0.51856709  0.85202264  1.0
  C  C72  1  0.52513870  0.57183812  0.10382100  1.0
  C  C73  1  0.46377320  0.55213415  0.89268447  1.0
  C  C74  1  0.61130222  0.56271908  0.13965748  1.0
  C  C75  1  0.38338350  0.56733759  0.85090776  1.0
  C  C76  1  0.60932260  0.54805242  0.21913324  1.0
  C  C77  1  0.38799511  0.55036191  0.77190673  1.0
  C  C78  1  0.53093623  0.57253098  0.01952195  1.0
  C  C79  1  0.45576314  0.56713091  0.97593375  1.0
  C  C80  1  0.56069994  0.78831256  0.69719099  1.0
  C  C81  1  0.62887666  0.74170367  0.74696119  1.0
  C  C82  1  0.59984407  0.75601384  0.83347931  1.0
  C  C83  1  0.51378196  0.25596873  0.31189008  1.0
  C  C84  1  0.56924947  0.29427571  0.23941670  1.0
  C  C85  1  0.50039920  0.32724197  0.18208985  1.0
  N  N86  1  0.25305697  0.49304429  0.49754381  1.0
  N  N87  1  0.74508481  0.49004098  0.50102628  1.0
  O  O88  1  0.57635944  0.62283174  0.52283013  1.0
  O  O89  1  0.42044520  0.36207858  0.51804436  1.0
  O  O90  1  0.42933724  0.62722325  0.47824847  1.0
  O  O91  1  0.57801051  0.36184996  0.46962411  1.0
  O  O92  1  0.59368008  0.52490077  0.38210019  1.0
  O  O93  1  0.40236250  0.51508372  0.61391998  1.0
  O  O94  1  0.43650169  0.48512578  0.38064855  1.0
  O  O95  1  0.55726814  0.46843483  0.61424907  1.0
  O  O96  1  0.40700232  0.76386242  0.39449446  1.0
  O  O97  1  0.39580487  0.22498120  0.61233487  1.0
  O  O98  1  0.58724915  0.76554652  0.61724995  1.0
  O  O99  1  0.58142878  0.21595683  0.35956901  1.0
