# generated using pymatgen
data_ZnH15C31N(ClO2)2
_symmetry_space_group_name_H-M   'P 1'
_cell_length_a   14.82038818
_cell_length_b   16.11297358
_cell_length_c   16.11362072
_cell_angle_alpha   89.91853517
_cell_angle_beta   89.70267886
_cell_angle_gamma   89.69741054
_symmetry_Int_Tables_number   1
_chemical_formula_structural   ZnH15C31N(ClO2)2
_chemical_formula_sum   'Zn2 H30 C62 N2 Cl4 O8'
_cell_volume   3847.83184808
_cell_formula_units_Z   2
loop_
 _symmetry_equiv_pos_site_id
 _symmetry_equiv_pos_as_xyz
  1  'x, y, z'
loop_
 _atom_site_type_symbol
 _atom_site_label
 _atom_site_symmetry_multiplicity
 _atom_site_fract_x
 _atom_site_fract_y
 _atom_site_fract_z
 _atom_site_occupancy
  Zn  Zn0  1  0.40381162  0.49965434  0.49966075  1.0
  Zn  Zn1  1  0.59618978  0.50034507  0.50034000  1.0
  H  H2  1  0.05689953  0.39878614  0.39858691  1.0
  H  H3  1  0.94309985  0.60121389  0.60141509  1.0
  H  H4  1  0.42824405  0.62551698  0.05475755  1.0
  H  H5  1  0.57175599  0.37448367  0.94524383  1.0
  H  H6  1  0.57165264  0.94518986  0.37446730  1.0
  H  H7  1  0.42834674  0.05480956  0.62553035  1.0
  H  H8  1  0.94497763  0.53731809  0.36143168  1.0
  H  H9  1  0.05502242  0.46268194  0.63857032  1.0
  H  H10  1  0.05501942  0.63865194  0.46296144  1.0
  H  H11  1  0.94498197  0.36134934  0.53704055  1.0
  H  H12  1  0.72298368  0.48040786  0.91183182  1.0
  H  H13  1  0.88768571  0.47828361  0.93700447  1.0
  H  H14  1  0.94667024  0.49222909  0.08096777  1.0
  H  H15  1  0.83877130  0.50906241  0.19938107  1.0
  H  H16  1  0.67410173  0.51131820  0.17421746  1.0
  H  H17  1  0.27701705  0.51959341  0.08816893  1.0
  H  H18  1  0.11231502  0.52171643  0.06299752  1.0
  H  H19  1  0.05332914  0.50777157  0.91903423  1.0
  H  H20  1  0.16122740  0.49093824  0.80062155  1.0
  H  H21  1  0.32589562  0.48868246  0.82578268  1.0
  H  H22  1  0.27702289  0.08825765  0.51945667  1.0
  H  H23  1  0.11231854  0.06309942  0.52183195  1.0
  H  H24  1  0.05331328  0.91909779  0.50826642  1.0
  H  H25  1  0.16118512  0.80063636  0.49154333  1.0
  H  H26  1  0.32584983  0.82579221  0.48902547  1.0
  H  H27  1  0.72297716  0.91174176  0.48054595  1.0
  H  H28  1  0.88768219  0.93690000  0.47816880  1.0
  H  H29  1  0.94668543  0.08090286  0.49172751  1.0
  H  H30  1  0.83881292  0.19936492  0.50844563  1.0
  H  H31  1  0.67414821  0.17420721  0.51096660  1.0
  C  C32  1  0.49940906  0.66130082  0.49964783  1.0
  C  C33  1  0.50059168  0.33869797  0.50034920  1.0
  C  C34  1  0.50057064  0.50037968  0.33869565  1.0
  C  C35  1  0.49943212  0.49961725  0.66130758  1.0
  C  C36  1  0.49388216  0.49870103  0.82650125  1.0
  C  C37  1  0.50611992  0.50129776  0.17349888  1.0
  C  C38  1  0.50614709  0.17349915  0.50125988  1.0
  C  C39  1  0.49385162  0.82650089  0.49873654  1.0
  C  C40  1  0.81238742  0.49982549  0.49982148  1.0
  C  C41  1  0.18761331  0.50017455  0.50018299  1.0
  C  C42  1  0.02963071  0.57719387  0.47937744  1.0
  C  C43  1  0.97037069  0.42280616  0.52062641  1.0
  C  C44  1  0.97037053  0.52078621  0.42285744  1.0
  C  C45  1  0.02962885  0.47921259  0.57714394  1.0
  C  C46  1  0.46010425  0.56930995  0.03025075  1.0
  C  C47  1  0.53989513  0.43069133  0.96975001  1.0
  C  C48  1  0.53984352  0.96972453  0.43067773  1.0
  C  C49  1  0.46015655  0.03027303  0.56931992  1.0
  C  C50  1  0.54156442  0.56735464  0.96958622  1.0
  C  C51  1  0.45843630  0.43264602  0.03041701  1.0
  C  C52  1  0.45839553  0.03040738  0.43266003  1.0
  C  C53  1  0.54160319  0.96959017  0.56733515  1.0
  C  C54  1  0.49795329  0.49917246  0.75099874  1.0
  C  C55  1  0.50205286  0.50082322  0.24900137  1.0
  C  C56  1  0.50208069  0.24900808  0.50077524  1.0
  C  C57  1  0.49791869  0.75099258  0.49922117  1.0
  C  C58  1  0.41013958  0.50236186  0.97693332  1.0
  C  C59  1  0.58985845  0.49763756  0.02306930  1.0
  C  C60  1  0.58987314  0.02304604  0.49758416  1.0
  C  C61  1  0.41012692  0.97695276  0.50241474  1.0
  C  C62  1  0.49339645  0.49925569  0.91414207  1.0
  C  C63  1  0.50660294  0.50074372  0.08585682  1.0
  C  C64  1  0.50662264  0.08585747  0.50072378  1.0
  C  C65  1  0.49337674  0.91414195  0.49927326  1.0
  C  C66  1  0.96928958  0.55635106  0.55646531  1.0
  C  C67  1  0.03071046  0.44364960  0.44353793  1.0
  C  C68  1  0.90790739  0.49994294  0.49994918  1.0
  C  C69  1  0.09209266  0.50005710  0.50005406  1.0
  C  C70  1  0.68733554  0.49573787  0.04147689  1.0
  C  C71  1  0.74845561  0.48661435  0.97497340  1.0
  C  C72  1  0.84108522  0.48565527  0.98915046  1.0
  C  C73  1  0.87411241  0.49362319  0.06988690  1.0
  C  C74  1  0.81377137  0.50296595  0.13607994  1.0
  C  C75  1  0.72079704  0.50428588  0.12219547  1.0
  C  C76  1  0.31266248  0.50426341  0.95852387  1.0
  C  C77  1  0.25154376  0.51338569  0.02502798  1.0
  C  C78  1  0.15891483  0.51434539  0.01085029  1.0
  C  C79  1  0.12588764  0.50637746  0.93011572  1.0
  C  C80  1  0.18622598  0.49703409  0.86392145  1.0
  C  C81  1  0.27920300  0.49571540  0.87780404  1.0
  C  C82  1  0.31264594  0.95857361  0.50436164  1.0
  C  C83  1  0.25153719  0.02509861  0.51341064  1.0
  C  C84  1  0.15890465  0.01092801  0.51449734  1.0
  C  C85  1  0.12587965  0.93015201  0.50674130  1.0
  C  C86  1  0.18621141  0.86395544  0.49746310  1.0
  C  C87  1  0.27916892  0.87783040  0.49599816  1.0
  C  C88  1  0.68735480  0.04142643  0.49563414  1.0
  C  C89  1  0.74846354  0.97490018  0.48658949  1.0
  C  C90  1  0.84109203  0.98907203  0.48550218  1.0
  C  C91  1  0.87411905  0.06984865  0.49325511  1.0
  C  C92  1  0.81378797  0.13604398  0.50253270  1.0
  C  C93  1  0.72083046  0.12217088  0.50399825  1.0
  N  N94  1  0.73404553  0.49966247  0.49966195  1.0
  N  N95  1  0.26595587  0.50033818  0.50034376  1.0
  Cl  Cl96  1  0.59514487  0.65448161  0.93052180  1.0
  Cl  Cl97  1  0.40485451  0.34551843  0.06947834  1.0
  Cl  Cl98  1  0.40475399  0.06947175  0.34556092  1.0
  Cl  Cl99  1  0.59524270  0.93052643  0.65443613  1.0
  O  O100  1  0.42267782  0.62598659  0.49910508  1.0
  O  O101  1  0.57732899  0.37401282  0.50088882  1.0
  O  O102  1  0.57731613  0.50091807  0.37400071  1.0
  O  O103  1  0.42269135  0.49907947  0.62600250  1.0
  O  O104  1  0.57677635  0.62672341  0.50041719  1.0
  O  O105  1  0.42322708  0.37327476  0.49958231  1.0
  O  O106  1  0.42321689  0.49958898  0.37327695  1.0
  O  O107  1  0.57678724  0.50040485  0.62672255  1.0
