# generated using pymatgen
data_ZnH17C16NO4
_symmetry_space_group_name_H-M   'P 1'
_cell_length_a   9.98411085
_cell_length_b   11.21406304
_cell_length_c   16.13805217
_cell_angle_alpha   90.54587893
_cell_angle_beta   100.52808791
_cell_angle_gamma   95.68634680
_symmetry_Int_Tables_number   1
_chemical_formula_structural   ZnH17C16NO4
_chemical_formula_sum   'Zn2 H34 C32 N2 O8'
_cell_volume   1766.99157180
_cell_formula_units_Z   2
loop_
 _symmetry_equiv_pos_site_id
 _symmetry_equiv_pos_as_xyz
  1  'x, y, z'
loop_
 _atom_site_type_symbol
 _atom_site_label
 _atom_site_symmetry_multiplicity
 _atom_site_fract_x
 _atom_site_fract_y
 _atom_site_fract_z
 _atom_site_occupancy
  Zn  Zn0  1  0.64052169  0.48916770  0.52081199  1.0
  Zn  Zn1  1  0.36100127  0.51151128  0.48257607  1.0
  H  H2  1  0.55588541  0.30078618  0.05790575  1.0
  H  H3  1  0.11394901  0.59658856  0.41768470  1.0
  H  H4  1  0.31751230  0.18823902  0.02905045  1.0
  H  H5  1  0.18492014  0.28244864  0.02780268  1.0
  H  H6  1  0.16204098  0.15889597  0.95521181  1.0
  H  H7  1  0.21508437  0.34959208  0.88118982  1.0
  H  H8  1  0.34655029  0.25531996  0.88362880  1.0
  H  H9  1  0.77130917  0.74216561  0.96231709  1.0
  H  H10  1  0.65314046  0.82879862  0.99824830  1.0
  H  H11  1  0.82718477  0.84379258  0.04946707  1.0
  H  H12  1  0.67174652  0.72015497  0.13261709  1.0
  H  H13  1  0.44878756  0.69029431  0.94549044  1.0
  H  H14  1  0.80299503  0.64062555  0.10774617  1.0
  H  H15  1  0.98655996  0.63264375  0.02781606  1.0
  H  H16  1  0.09723900  0.75949799  0.00965014  1.0
  H  H17  1  0.97188457  0.69229855  0.92537595  1.0
  H  H18  1  0.20617659  0.63588609  0.91631010  1.0
  H  H19  1  0.09470489  0.50863473  0.92910309  1.0
  H  H20  1  0.20008877  0.49151053  0.07638320  1.0
  H  H21  1  0.27781659  0.63984334  0.08239495  1.0
  H  H22  1  0.91022832  0.35715995  0.84550127  1.0
  H  H23  1  0.95723954  0.28718934  0.94330297  1.0
  H  H24  1  0.38429795  0.89342747  0.50165113  1.0
  H  H25  1  0.86285228  0.20152434  0.85477294  1.0
  H  H26  1  0.70598684  0.24712935  0.95286149  1.0
  H  H27  1  0.66184572  0.32007079  0.85674367  1.0
  H  H28  1  0.79590540  0.51047648  0.92220463  1.0
  H  H29  1  0.83618968  0.43785299  0.01907873  1.0
  H  H30  1  0.61646809  0.10733084  0.52393847  1.0
  H  H31  1  0.69904906  0.90131960  0.52966638  1.0
  H  H32  1  0.30155314  0.09993023  0.48889667  1.0
  H  H33  1  0.88683304  0.57058747  0.44598058  1.0
  H  H34  1  0.11375360  0.42842009  0.55524959  1.0
  H  H35  1  0.88793766  0.40409898  0.58458426  1.0
  C  C36  1  0.43614410  0.26870326  0.49790320  1.0
  C  C37  1  0.47324382  0.60369845  0.97165964  1.0
  C  C38  1  0.40176390  0.40864309  0.96546803  1.0
  C  C39  1  0.60312044  0.58285090  0.03804479  1.0
  C  C40  1  0.48740209  0.49684057  0.75208682  1.0
  C  C41  1  0.51434963  0.50104367  0.25126119  1.0
  C  C42  1  0.62598219  0.47055120  0.98409781  1.0
  C  C43  1  0.37917559  0.52133448  0.01936563  1.0
  C  C44  1  0.49536059  0.49387385  0.91599166  1.0
  C  C45  1  0.50920316  0.49759672  0.08751604  1.0
  C  C46  1  0.48877218  0.49511417  0.82781001  1.0
  C  C47  1  0.56485866  0.73206129  0.51295679  1.0
  C  C48  1  0.51455612  0.49881770  0.17567480  1.0
  C  C49  1  0.40890621  0.13667472  0.50012784  1.0
  C  C50  1  0.59178915  0.86438620  0.51933476  1.0
  C  C51  1  0.29719787  0.31032217  0.92407529  1.0
  C  C52  1  0.23690019  0.23057638  0.98746337  1.0
  C  C53  1  0.70920704  0.68049367  0.07943965  1.0
  C  C54  1  0.74223070  0.77905268  0.01900991  1.0
  C  C55  1  0.24924252  0.55987927  0.03986867  1.0
  C  C56  1  0.14845320  0.59141729  0.96142318  1.0
  C  C57  1  0.04517795  0.67329150  0.98204460  1.0
  C  C58  1  0.51117429  0.06475188  0.51338961  1.0
  C  C59  1  0.75756923  0.43938924  0.96133227  1.0
  C  C60  1  0.74204528  0.31857497  0.91334988  1.0
  C  C61  1  0.87526197  0.28926031  0.88780139  1.0
  C  C62  1  0.48950689  0.93617443  0.51164147  1.0
  C  C63  1  0.07312171  0.48952911  0.50626990  1.0
  C  C64  1  0.92774137  0.51002482  0.49525692  1.0
  C  C65  1  0.49017154  0.49875443  0.66313238  1.0
  C  C66  1  0.51132900  0.50117777  0.34029931  1.0
  C  C67  1  0.53202292  0.38773204  0.03200689  1.0
  N  N68  1  0.15623917  0.53970853  0.46233274  1.0
  N  N69  1  0.84515183  0.46060968  0.53983456  1.0
  O  O70  1  0.56098386  0.31376397  0.51148118  1.0
  O  O71  1  0.44009851  0.68679817  0.49857507  1.0
  O  O72  1  0.33146047  0.32742081  0.48179316  1.0
  O  O73  1  0.66970851  0.67327287  0.52213683  1.0
  O  O74  1  0.60756752  0.49624046  0.64273570  1.0
  O  O75  1  0.39495632  0.50891150  0.36092818  1.0
  O  O76  1  0.37590881  0.50279774  0.61316811  1.0
  O  O77  1  0.62472012  0.49332956  0.39036387  1.0
