# generated using pymatgen
data_AlH12C27(NO4)3
_symmetry_space_group_name_H-M   'P 1'
_cell_length_a   4.14712267
_cell_length_b   15.74026123
_cell_length_c   15.77444003
_cell_angle_alpha   60.07330889
_cell_angle_beta   85.87244048
_cell_angle_gamma   87.47349617
_symmetry_Int_Tables_number   1
_chemical_formula_structural   AlH12C27(NO4)3
_chemical_formula_sum   'Al1 H12 C27 N3 O12'
_cell_volume   890.05415030
_cell_formula_units_Z   1
loop_
 _symmetry_equiv_pos_site_id
 _symmetry_equiv_pos_as_xyz
  1  'x, y, z'
loop_
 _atom_site_type_symbol
 _atom_site_label
 _atom_site_symmetry_multiplicity
 _atom_site_fract_x
 _atom_site_fract_y
 _atom_site_fract_z
 _atom_site_occupancy
  Al  Al0  1  0.01817360  0.49700796  0.50123262  1.0
  H  H1  1  0.44487164  0.95367256  0.13726351  1.0
  H  H2  1  0.70245121  0.39891875  0.94771402  1.0
  H  H3  1  0.78726397  0.15006782  0.39059383  1.0
  H  H4  1  0.33170255  0.48855267  0.24787984  1.0
  H  H5  1  0.34813252  0.40001301  0.15235709  1.0
  H  H6  1  0.25450811  0.24585008  0.77211638  1.0
  H  H7  1  0.26577975  0.15214415  0.95522537  1.0
  H  H8  1  0.50868730  0.76731480  0.49932490  1.0
  H  H9  1  0.50465502  0.95058022  0.41014253  1.0
  H  H10  1  0.08375477  0.67715330  0.29508129  1.0
  H  H11  1  0.39069395  0.20066179  0.57354093  1.0
  H  H12  1  0.33070193  0.57969664  0.71483922  1.0
  C  C13  1  0.50526391  0.64909930  0.42411227  1.0
  C  C14  1  0.54571753  0.42487076  0.42487301  1.0
  C  C15  1  0.48990637  0.42434295  0.64913054  1.0
  C  C16  1  0.47861959  0.75848789  0.36791002  1.0
  C  C17  1  0.47705256  0.37346261  0.75779288  1.0
  C  C18  1  0.55547543  0.36949294  0.37134502  1.0
  C  C19  1  0.45305929  0.81081277  0.26567420  1.0
  C  C20  1  0.45671729  0.91311813  0.21662874  1.0
  C  C21  1  0.60330979  0.41759542  0.80698534  1.0
  C  C22  1  0.60523519  0.36572173  0.90878484  1.0
  C  C23  1  0.68736932  0.27407511  0.41196841  1.0
  C  C24  1  0.69211936  0.22469622  0.35910114  1.0
  C  C25  1  0.43265547  0.41466343  0.27794937  1.0
  C  C26  1  0.44298067  0.36582312  0.22489775  1.0
  C  C27  1  0.35110587  0.27861232  0.81152922  1.0
  C  C28  1  0.35782978  0.22655300  0.91305234  1.0
  C  C29  1  0.49234590  0.80886969  0.41999907  1.0
  C  C30  1  0.49198867  0.91071783  0.37053035  1.0
  C  C31  1  0.47818303  0.96365347  0.26806131  1.0
  C  C32  1  0.49306058  0.07179431  0.21409640  1.0
  C  C33  1  0.48362609  0.27023682  0.96225096  1.0
  C  C34  1  0.49300941  0.21611772  0.07011210  1.0
  C  C35  1  0.56776606  0.26984250  0.26601599  1.0
  C  C36  1  0.55110549  0.21554066  0.21251677  1.0
  C  C37  1  0.43180156  0.76233406  0.20475081  1.0
  C  C38  1  0.81844276  0.22174355  0.51225539  1.0
  C  C39  1  0.74549362  0.51871484  0.75486505  1.0
  N  N40  1  0.45882105  0.11834865  0.11681746  1.0
  N  N41  1  0.53609847  0.26842433  0.11462566  1.0
  N  N42  1  0.54286872  0.11708689  0.26524849  1.0
  O  O43  1  0.26959770  0.40631156  0.60810194  1.0
  O  O44  1  0.27298379  0.60359663  0.48568263  1.0
  O  O45  1  0.31023717  0.48464496  0.41002994  1.0
  O  O46  1  0.72684158  0.48263784  0.60471147  1.0
  O  O47  1  0.77450853  0.40958891  0.48105152  1.0
  O  O48  1  0.76305508  0.61029926  0.40771475  1.0
  O  O49  1  0.23213756  0.68449736  0.24012284  1.0
  O  O50  1  0.58849361  0.79065461  0.12737611  1.0
  O  O51  1  0.62522830  0.19765340  0.59076625  1.0
  O  O52  1  0.10816457  0.19924552  0.51926485  1.0
  O  O53  1  0.57107768  0.59689747  0.70045790  1.0
  O  O54  1  0.03013894  0.52625747  0.76830462  1.0
