# generated using pymatgen
data_Dy2Cu3H24(C4O5)6
_symmetry_space_group_name_H-M   'P 1'
_cell_length_a   12.88186015
_cell_length_b   12.88043782
_cell_length_c   16.33286591
_cell_angle_alpha   89.99622698
_cell_angle_beta   89.99313347
_cell_angle_gamma   60.00540642
_symmetry_Int_Tables_number   1
_chemical_formula_structural   Dy2Cu3H24(C4O5)6
_chemical_formula_sum   'Dy4 Cu6 H48 C48 O60'
_cell_volume   2347.06916453
_cell_formula_units_Z   2
loop_
 _symmetry_equiv_pos_site_id
 _symmetry_equiv_pos_as_xyz
  1  'x, y, z'
loop_
 _atom_site_type_symbol
 _atom_site_label
 _atom_site_symmetry_multiplicity
 _atom_site_fract_x
 _atom_site_fract_y
 _atom_site_fract_z
 _atom_site_occupancy
  Dy  Dy0  1  0.66666667  0.66666667  0.24999057  1.0
  Dy  Dy1  1  0.33333333  0.33333333  0.25003652  1.0
  Dy  Dy2  1  0.33333333  0.33338198  0.75003083  1.0
  Dy  Dy3  1  0.66666667  0.66666667  0.74999101  1.0
  Cu  Cu4  1  0.50010643  0.99995137  0.50001933  1.0
  Cu  Cu5  1  0.50000276  0.49968323  0.49999355  1.0
  Cu  Cu6  1  0.99978776  0.49998813  0.49999683  1.0
  Cu  Cu7  1  0.99998292  0.49997684  0.00001965  1.0
  Cu  Cu8  1  0.50037182  0.50000609  0.00000108  1.0
  Cu  Cu9  1  0.49995981  0.00021271  0.00003532  1.0
  H  H10  1  0.34759037  0.80604902  0.35616496  1.0
  H  H11  1  0.30568081  0.93580531  0.29343928  1.0
  H  H12  1  0.84644011  0.34760092  0.35612332  1.0
  H  H13  1  0.75850676  0.30578061  0.29337503  1.0
  H  H14  1  0.80589403  0.84634309  0.35613581  1.0
  H  H15  1  0.93579398  0.75848246  0.29345604  1.0
  H  H16  1  0.65236558  0.19405373  0.35615739  1.0
  H  H17  1  0.69438169  0.06427005  0.29342316  1.0
  H  H18  1  0.15351180  0.65243728  0.35616046  1.0
  H  H19  1  0.24147563  0.69413164  0.29334781  1.0
  H  H20  1  0.19390731  0.15364413  0.35619695  1.0
  H  H21  1  0.06412172  0.24156491  0.29343578  1.0
  H  H22  1  0.19419473  0.65216741  0.14384965  1.0
  H  H23  1  0.06421627  0.69428322  0.20646511  1.0
  H  H24  1  0.65242359  0.15361790  0.14379621  1.0
  H  H25  1  0.69426821  0.24145277  0.20657724  1.0
  H  H26  1  0.15351202  0.19416505  0.14387968  1.0
  H  H27  1  0.24138406  0.06435687  0.20661918  1.0
  H  H28  1  0.80592434  0.34767407  0.14380075  1.0
  H  H29  1  0.93578284  0.30568436  0.20653193  1.0
  H  H30  1  0.34754490  0.84642184  0.14384501  1.0
  H  H31  1  0.30568974  0.75858293  0.20661083  1.0
  H  H32  1  0.84643981  0.80603351  0.14383134  1.0
  H  H33  1  0.75846227  0.93569713  0.20666257  1.0
  H  H34  1  0.65242957  0.19397075  0.64380930  1.0
  H  H35  1  0.69431296  0.06425538  0.70660111  1.0
  H  H36  1  0.15355771  0.65242907  0.64391461  1.0
  H  H37  1  0.24150381  0.69421190  0.70666535  1.0
  H  H38  1  0.19413955  0.15366235  0.64382620  1.0
  H  H39  1  0.06425456  0.24147353  0.70651944  1.0
  H  H40  1  0.34761662  0.80599168  0.64380830  1.0
  H  H41  1  0.30565833  0.93573260  0.70656273  1.0
  H  H42  1  0.84649641  0.34759405  0.64384319  1.0
  H  H43  1  0.75851815  0.30581157  0.70661727  1.0
  H  H44  1  0.80593561  0.84636052  0.64380731  1.0
  H  H45  1  0.93578272  0.75853578  0.70651889  1.0
  H  H46  1  0.80593650  0.34770352  0.85615277  1.0
  H  H47  1  0.93581424  0.30569679  0.79345098  1.0
  H  H48  1  0.34761383  0.84642649  0.85616581  1.0
  H  H49  1  0.30567228  0.75861415  0.79344049  1.0
  H  H50  1  0.84643792  0.80594508  0.85611969  1.0
  H  H51  1  0.75854719  0.93569246  0.79336365  1.0
  H  H52  1  0.19394934  0.65237859  0.85618209  1.0
  H  H53  1  0.06413822  0.69430827  0.79346253  1.0
  H  H54  1  0.65244510  0.15359362  0.85617088  1.0
  H  H55  1  0.69433289  0.24143330  0.79340506  1.0
  H  H56  1  0.15357809  0.19401588  0.85613680  1.0
  H  H57  1  0.24152180  0.06430103  0.79335516  1.0
  C  C58  1  0.46560473  0.87857222  0.36550790  1.0
  C  C59  1  0.38159930  0.85151484  0.31608730  1.0
  C  C60  1  0.65587192  0.46559811  0.36552375  1.0
  C  C61  1  0.76695396  0.38164764  0.31607707  1.0
  C  C62  1  0.87855000  0.65581809  0.36551549  1.0
  C  C63  1  0.85147955  0.76687163  0.31607996  1.0
  C  C64  1  0.53448915  0.12139988  0.36551233  1.0
  C  C65  1  0.61842973  0.14853313  0.31607337  1.0
  C  C66  1  0.34406052  0.53429100  0.36554485  1.0
  C  C67  1  0.23300123  0.61829777  0.31609951  1.0
  C  C68  1  0.12131478  0.34415907  0.36557025  1.0
  C  C69  1  0.14842754  0.23310606  0.31612418  1.0
  C  C70  1  0.12140251  0.53437515  0.13448196  1.0
  C  C71  1  0.14853076  0.61832795  0.18388805  1.0
  C  C72  1  0.53441325  0.34416509  0.13450005  1.0
  C  C73  1  0.61838223  0.23306724  0.18389240  1.0
  C  C74  1  0.34404644  0.12158101  0.13448048  1.0
  C  C75  1  0.23298191  0.14866700  0.18393343  1.0
  C  C76  1  0.87863353  0.46550195  0.13445525  1.0
  C  C77  1  0.85148226  0.38156878  0.18387933  1.0
  C  C78  1  0.46560461  0.65590258  0.13448431  1.0
  C  C79  1  0.38159643  0.76695235  0.18392091  1.0
  C  C80  1  0.65589349  0.87850206  0.13445244  1.0
  C  C81  1  0.76696713  0.85138355  0.18390437  1.0
  C  C82  1  0.53445000  0.12144263  0.63451105  1.0
  C  C83  1  0.61842460  0.14853129  0.68391941  1.0
  C  C84  1  0.34410956  0.53434653  0.63448234  1.0
  C  C85  1  0.23305802  0.61834793  0.68394555  1.0
  C  C86  1  0.12143293  0.34419633  0.63448081  1.0
  C  C87  1  0.14855709  0.23311478  0.68389736  1.0
  C  C88  1  0.46556704  0.87858950  0.63448458  1.0
  C  C89  1  0.38158902  0.85147269  0.68389660  1.0
  C  C90  1  0.65592835  0.46560898  0.63444410  1.0
  C  C91  1  0.76699896  0.38165691  0.68389373  1.0
  C  C92  1  0.87857836  0.65583614  0.63444136  1.0
  C  C93  1  0.85149114  0.76690315  0.68387825  1.0
  C  C94  1  0.87860144  0.46558028  0.86551067  1.0
  C  C95  1  0.85150854  0.38161045  0.81608866  1.0
  C  C96  1  0.46561094  0.65590834  0.86551829  1.0
  C  C97  1  0.38160224  0.76695991  0.81609104  1.0
  C  C98  1  0.65587725  0.87849535  0.86553174  1.0
  C  C99  1  0.76695810  0.85139149  0.81607451  1.0
  C  C100  1  0.12133572  0.53443785  0.86554350  1.0
  C  C101  1  0.14844295  0.61841708  0.81611513  1.0
  C  C102  1  0.53448760  0.34414032  0.86551445  1.0
  C  C103  1  0.61843036  0.23305711  0.81608764  1.0
  C  C104  1  0.34409777  0.12157981  0.86554631  1.0
  C  C105  1  0.23306607  0.14861515  0.81608030  1.0
  O  O106  1  0.57616059  0.82004256  0.35016221  1.0
  O  O107  1  0.41304836  0.95956194  0.41950752  1.0
  O  O108  1  0.60375806  0.57615429  0.35016809  1.0
  O  O109  1  0.62750382  0.41286409  0.41946332  1.0
  O  O110  1  0.82007677  0.60373866  0.35016552  1.0
  O  O111  1  0.95953180  0.62745595  0.41951727  1.0
  O  O112  1  0.42392897  0.17990145  0.35020265  1.0
  O  O113  1  0.58710198  0.04039688  0.41949988  1.0
  O  O114  1  0.39616786  0.42374095  0.35016861  1.0
  O  O115  1  0.37246865  0.58688820  0.41953979  1.0
  O  O116  1  0.17985886  0.39618260  0.35027036  1.0
  O  O117  1  0.04021504  0.37255431  0.41950423  1.0
  O  O118  1  0.17985495  0.42383079  0.14984309  1.0
  O  O119  1  0.04040063  0.58703930  0.08049464  1.0
  O  O120  1  0.42385544  0.39621981  0.14983017  1.0
  O  O121  1  0.58708496  0.37256044  0.08054466  1.0
  O  O122  1  0.39615216  0.18002937  0.14984912  1.0
  O  O123  1  0.37244207  0.04053718  0.08050917  1.0
  O  O124  1  0.82013846  0.57605391  0.14979111  1.0
  O  O125  1  0.95970454  0.41281720  0.08050192  1.0
  O  O126  1  0.57616461  0.60386738  0.14980159  1.0
  O  O127  1  0.41306967  0.62747159  0.08047395  1.0
  O  O128  1  0.60381048  0.82002004  0.14979122  1.0
  O  O129  1  0.62748226  0.95962569  0.08052904  1.0
  O  O130  1  0.42389214  0.17997337  0.64983041  1.0
  O  O131  1  0.58706603  0.04042793  0.58052796  1.0
  O  O132  1  0.39618033  0.42379454  0.64984719  1.0
  O  O133  1  0.37251783  0.58695108  0.58047971  1.0
  O  O134  1  0.17989340  0.39629101  0.64980935  1.0
  O  O135  1  0.04039781  0.37252022  0.58051700  1.0
  O  O136  1  0.57612536  0.82006218  0.64979732  1.0
  O  O137  1  0.41298141  0.95960664  0.58050438  1.0
  O  O138  1  0.60382486  0.57616147  0.64979891  1.0
  O  O139  1  0.62755091  0.41288984  0.58050793  1.0
  O  O140  1  0.82007585  0.60378143  0.64978900  1.0
  O  O141  1  0.95959575  0.62744375  0.58044922  1.0
  O  O142  1  0.82012676  0.57612521  0.85015076  1.0
  O  O143  1  0.95958834  0.41292111  0.91951023  1.0
  O  O144  1  0.57616815  0.60389427  0.85017960  1.0
  O  O145  1  0.41309442  0.62744814  0.91953552  1.0
  O  O146  1  0.60378194  0.82003405  0.85017290  1.0
  O  O147  1  0.62750131  0.95955182  0.91949571  1.0
  O  O148  1  0.17986123  0.42388435  0.85021070  1.0
  O  O149  1  0.04028334  0.58709444  0.91950968  1.0
  O  O150  1  0.42392156  0.39619303  0.85022532  1.0
  O  O151  1  0.58715905  0.37254092  0.91945378  1.0
  O  O152  1  0.39616720  0.18006987  0.85018672  1.0
  O  O153  1  0.37249505  0.04056069  0.91953767  1.0
  O  O154  1  0.44866827  0.77572016  0.24998950  1.0
  O  O155  1  0.77570292  0.44873181  0.24997193  1.0
  O  O156  1  0.77578181  0.77544412  0.24995456  1.0
  O  O157  1  0.55132567  0.22427310  0.24997085  1.0
  O  O158  1  0.22415992  0.55121175  0.25004536  1.0
  O  O159  1  0.22427415  0.22444885  0.25005661  1.0
  O  O160  1  0.55134667  0.22434994  0.75000374  1.0
  O  O161  1  0.22426720  0.55126764  0.75003723  1.0
  O  O162  1  0.22429202  0.22450654  0.75000806  1.0
  O  O163  1  0.44866595  0.77567579  0.74998259  1.0
  O  O164  1  0.77576040  0.44875311  0.74998033  1.0
  O  O165  1  0.77571579  0.77553640  0.74998684  1.0
