# generated using pymatgen
data_ZnSiH16C20(N4F3)2
_symmetry_space_group_name_H-M   'P 1'
_cell_length_a   7.79630927
_cell_length_b   13.36522788
_cell_length_c   13.36523942
_cell_angle_alpha   89.67991538
_cell_angle_beta   85.79860882
_cell_angle_gamma   85.79845683
_symmetry_Int_Tables_number   1
_chemical_formula_structural   ZnSiH16C20(N4F3)2
_chemical_formula_sum   'Zn1 Si1 H16 C20 N8 F6'
_cell_volume   1385.17540693
_cell_formula_units_Z   1
loop_
 _symmetry_equiv_pos_site_id
 _symmetry_equiv_pos_as_xyz
  1  'x, y, z'
loop_
 _atom_site_type_symbol
 _atom_site_label
 _atom_site_symmetry_multiplicity
 _atom_site_fract_x
 _atom_site_fract_y
 _atom_site_fract_z
 _atom_site_occupancy
  Zn  Zn0  1  0.50000023  0.49999970  0.50000032  1.0
  Si  Si1  1  0.99999959  0.49999863  0.50000205  1.0
  H  H2  1  0.25475149  0.50006356  0.33154007  1.0
  H  H3  1  0.26451722  0.50000289  0.14395737  1.0
  H  H4  1  0.81820148  0.50002282  0.14038662  1.0
  H  H5  1  0.78830139  0.50006100  0.32894994  1.0
  H  H6  1  0.18180295  0.49997582  0.85961236  1.0
  H  H7  1  0.73548473  0.49999500  0.85604171  1.0
  H  H8  1  0.74524908  0.49993508  0.66845908  1.0
  H  H9  1  0.21169918  0.49993764  0.67104995  1.0
  H  H10  1  0.25474865  0.33154118  0.50006250  1.0
  H  H11  1  0.26451404  0.14395806  0.50000043  1.0
  H  H12  1  0.81819624  0.14038626  0.50002554  1.0
  H  H13  1  0.78829883  0.32895005  0.50006089  1.0
  H  H14  1  0.18180046  0.85961238  0.49997601  1.0
  H  H15  1  0.73548369  0.85604283  0.49999508  1.0
  H  H16  1  0.74525164  0.66845971  0.49993514  1.0
  H  H17  1  0.21170165  0.67104934  0.49993750  1.0
  C  C18  1  0.37703339  0.50003430  0.28666288  1.0
  C  C19  1  0.38238520  0.49997912  0.18274990  1.0
  C  C20  1  0.54323461  0.49997093  0.12844606  1.0
  C  C21  1  0.69186122  0.50001998  0.18105202  1.0
  C  C22  1  0.67554335  0.50003829  0.28547623  1.0
  C  C23  1  0.30813925  0.49997941  0.81894787  1.0
  C  C24  1  0.45676596  0.50002771  0.87155458  1.0
  C  C25  1  0.61761517  0.50002102  0.81725074  1.0
  C  C26  1  0.62296708  0.49996509  0.71333701  1.0
  C  C27  1  0.32445981  0.49996036  0.71452056  1.0
  C  C28  1  0.37703006  0.28666296  0.50003271  1.0
  C  C29  1  0.38238201  0.18274927  0.49997571  1.0
  C  C30  1  0.54323225  0.12844347  0.49997205  1.0
  C  C31  1  0.69185625  0.18105241  0.50002086  1.0
  C  C32  1  0.67553896  0.28547620  0.50003842  1.0
  C  C33  1  0.30814036  0.81894698  0.49997844  1.0
  C  C34  1  0.45676427  0.87155667  0.50002725  1.0
  C  C35  1  0.61761581  0.81725088  0.50002055  1.0
  C  C36  1  0.62297024  0.71333794  0.49996418  1.0
  C  C37  1  0.32446033  0.71452245  0.49996003  1.0
  N  N38  1  0.52079856  0.50003346  0.33745776  1.0
  N  N39  1  0.56886642  0.49995713  0.02219280  1.0
  N  N40  1  0.43113415  0.50004152  0.97780559  1.0
  N  N41  1  0.47920439  0.49996669  0.66254202  1.0
  N  N42  1  0.52079401  0.33745877  0.50003292  1.0
  N  N43  1  0.56886300  0.02219268  0.49995795  1.0
  N  N44  1  0.43113371  0.97780596  0.50004135  1.0
  N  N45  1  0.47920499  0.66254212  0.49996628  1.0
  F  F46  1  0.22627938  0.50066301  0.50066404  1.0
  F  F47  1  0.77372266  0.49933413  0.49933804  1.0
  F  F48  1  0.99999971  0.59018351  0.40981311  1.0
  F  F49  1  0.00000341  0.40981513  0.59019116  1.0
  F  F50  1  0.02399550  0.40983261  0.40984142  1.0
  F  F51  1  0.97600396  0.59016453  0.59016301  1.0
