# generated using pymatgen
data_CuH7C9N2
_symmetry_space_group_name_H-M   'P 1'
_cell_length_a   33.69035149
_cell_length_b   34.31785406
_cell_length_c   34.46183119
_cell_angle_alpha   89.90816652
_cell_angle_beta   90.08882060
_cell_angle_gamma   89.99250705
_symmetry_Int_Tables_number   1
_chemical_formula_structural   CuH7C9N2
_chemical_formula_sum   'Cu12 H84 C108 N24'
_cell_volume   39844.00007066
_cell_formula_units_Z   12
loop_
 _symmetry_equiv_pos_site_id
 _symmetry_equiv_pos_as_xyz
  1  'x, y, z'
loop_
 _atom_site_type_symbol
 _atom_site_label
 _atom_site_symmetry_multiplicity
 _atom_site_fract_x
 _atom_site_fract_y
 _atom_site_fract_z
 _atom_site_occupancy
  Cu  Cu0  1  0.12443723  0.90918387  0.17418272  1.0
  Cu  Cu1  1  0.16051113  0.87502784  0.09659993  1.0
  Cu  Cu2  1  0.07662154  0.84492496  0.12770148  1.0
  Cu  Cu3  1  0.88224782  0.58215370  0.66610603  1.0
  Cu  Cu4  1  0.84109534  0.62318377  0.59409250  1.0
  Cu  Cu5  1  0.92492228  0.65323789  0.62514838  1.0
  Cu  Cu6  1  0.62538719  0.09294119  0.34921851  1.0
  Cu  Cu7  1  0.66081578  0.12762652  0.42703592  1.0
  Cu  Cu8  1  0.59612572  0.17543936  0.37907826  1.0
  Cu  Cu9  1  0.37398456  0.41035497  0.84988048  1.0
  Cu  Cu10  1  0.33696639  0.37441736  0.92664713  1.0
  Cu  Cu11  1  0.40129030  0.32676327  0.87860358  1.0
  H  H12  1  0.63930804  0.40073787  0.55153954  1.0
  H  H13  1  0.53880504  0.35750603  0.61533441  1.0
  H  H14  1  0.60205356  0.45865912  0.65616196  1.0
  H  H15  1  0.39747588  0.04262028  0.15657485  1.0
  H  H16  1  0.46073626  0.14260147  0.11325803  1.0
  H  H17  1  0.35608506  0.10206066  0.05393644  1.0
  H  H18  1  0.21192042  0.64907020  0.90570241  1.0
  H  H19  1  0.10875233  0.71021355  0.86363034  1.0
  H  H20  1  0.15119202  0.60865013  0.80332593  1.0
  H  H21  1  0.84939560  0.89487257  0.30472194  1.0
  H  H22  1  0.88809023  0.79070923  0.36342410  1.0
  H  H23  1  0.78828702  0.85535772  0.40728532  1.0
  H  H24  1  0.19546867  0.96312956  0.20203045  1.0
  H  H25  1  0.23994098  0.92524593  0.09037164  1.0
  H  H26  1  0.00016154  0.83638727  0.18116158  1.0
  H  H27  1  0.06129964  0.93110444  0.23890056  1.0
  H  H28  1  0.17006099  0.82249989  0.02185546  1.0
  H  H29  1  0.05373528  0.78554889  0.06076906  1.0
  H  H30  1  0.81511531  0.52250646  0.69076395  1.0
  H  H31  1  0.75997734  0.57563712  0.59006169  1.0
  H  H32  1  0.99890172  0.66468634  0.68156197  1.0
  H  H33  1  0.94722877  0.55930994  0.72907862  1.0
  H  H34  1  0.82947010  0.67832012  0.52130143  1.0
  H  H35  1  0.94625807  0.71482964  0.55950525  1.0
  H  H36  1  0.67422892  0.01410189  0.34324557  1.0
  H  H37  1  0.71465907  0.05661974  0.45485031  1.0
  H  H38  1  0.53694842  0.19897551  0.31052916  1.0
  H  H39  1  0.57268903  0.08346393  0.27383728  1.0
  H  H40  1  0.68294391  0.18988108  0.49169168  1.0
  H  H41  1  0.58775840  0.25031897  0.43207180  1.0
  H  H42  1  0.32586892  0.48940867  0.84409860  1.0
  H  H43  1  0.28070532  0.44417643  0.95288894  1.0
  H  H44  1  0.45805570  0.30218429  0.80913056  1.0
  H  H45  1  0.42751433  0.41997490  0.77477019  1.0
  H  H46  1  0.31555133  0.31216014  0.99163243  1.0
  H  H47  1  0.41002852  0.25162946  0.93148232  1.0
  H  H48  1  0.33231468  0.02542076  0.16003024  1.0
  H  H49  1  0.27937221  0.99094019  0.09441667  1.0
  H  H50  1  0.32615590  0.04051139  0.07210794  1.0
  H  H51  1  0.27442319  0.98777455  0.18360838  1.0
  H  H52  1  0.67303985  0.46834722  0.65739222  1.0
  H  H53  1  0.71617608  0.51316512  0.59104924  1.0
  H  H54  1  0.66584736  0.46653936  0.56834241  1.0
  H  H55  1  0.73551005  0.50022054  0.67749920  1.0
  H  H56  1  0.77397039  0.92029655  0.41174067  1.0
  H  H57  1  0.73913040  0.97353172  0.34686686  1.0
  H  H58  1  0.78758554  0.92609432  0.32356590  1.0
  H  H59  1  0.73778591  0.97844339  0.43610953  1.0
  H  H60  1  0.22227045  0.58080373  0.91050514  1.0
  H  H61  1  0.26428365  0.53273550  0.84595303  1.0
  H  H62  1  0.21685102  0.58117750  0.82129637  1.0
  H  H63  1  0.25601030  0.52119535  0.93424762  1.0
  H  H64  1  0.92110915  0.89662159  0.29674337  1.0
  H  H65  1  0.96147347  0.83194323  0.24724839  1.0
  H  H66  1  0.91254601  0.80732048  0.29562261  1.0
  H  H67  1  0.98231719  0.91764714  0.26415787  1.0
  H  H68  1  0.52461654  0.35157602  0.67899616  1.0
  H  H69  1  0.49146861  0.41532924  0.73427612  1.0
  H  H70  1  0.54044555  0.43952840  0.68775423  1.0
  H  H71  1  0.48645538  0.32567352  0.73473906  1.0
  H  H72  1  0.08166691  0.60346405  0.79400312  1.0
  H  H73  1  0.03577107  0.66717851  0.74773260  1.0
  H  H74  1  0.08282284  0.69313384  0.79705521  1.0
  H  H75  1  0.02357990  0.57884458  0.75841061  1.0
  H  H76  1  0.47154471  0.14954359  0.17988966  1.0
  H  H77  1  0.51124456  0.08596701  0.23146877  1.0
  H  H78  1  0.46277275  0.06031536  0.18435262  1.0
  H  H79  1  0.50759459  0.17553173  0.23669775  1.0
  H  H80  1  0.10261695  0.72039891  0.93070657  1.0
  H  H81  1  0.16782594  0.76113049  0.98022639  1.0
  H  H82  1  0.19373283  0.71347907  0.93317428  1.0
  H  H83  1  0.07684166  0.75606338  0.98757196  1.0
  H  H84  1  0.64571224  0.32981771  0.54661894  1.0
  H  H85  1  0.58115629  0.28594867  0.49887867  1.0
  H  H86  1  0.55438769  0.33342767  0.54675235  1.0
  H  H87  1  0.66948964  0.26933355  0.51512366  1.0
  H  H88  1  0.35203974  0.17280470  0.04725302  1.0
  H  H89  1  0.41651835  0.21451023  0.99758629  1.0
  H  H90  1  0.44318162  0.16657389  0.04523970  1.0
  H  H91  1  0.32909497  0.23338391  0.01565965  1.0
  H  H92  1  0.89563435  0.78112846  0.43046302  1.0
  H  H93  1  0.83081549  0.74089772  0.48082081  1.0
  H  H94  1  0.80471578  0.78969486  0.43416579  1.0
  H  H95  1  0.92198128  0.74520492  0.48667589  1.0
  C  C96  1  0.62507275  0.43248337  0.60382551  1.0
  C  C97  1  0.61972968  0.40239559  0.57670400  1.0
  C  C98  1  0.58934009  0.37468830  0.58102294  1.0
  C  C99  1  0.56328799  0.37813547  0.61256210  1.0
  C  C100  1  0.56806970  0.40763437  0.64048422  1.0
  C  C101  1  0.59887068  0.43483260  0.63542238  1.0
  C  C102  1  0.37213118  0.06966869  0.10544499  1.0
  C  C103  1  0.40000666  0.06645217  0.13570681  1.0
  C  C104  1  0.43144403  0.09307121  0.13955000  1.0
  C  C105  1  0.43560464  0.12260174  0.11147931  1.0
  C  C106  1  0.40822165  0.12669033  0.08099467  1.0
  C  C107  1  0.37682698  0.09987885  0.07821940  1.0
  C  C108  1  0.18412624  0.62428446  0.85482631  1.0
  C  C109  1  0.18735654  0.65146741  0.88514054  1.0
  C  C110  1  0.15993718  0.68204970  0.88924564  1.0
  C  C111  1  0.12946477  0.68583758  0.86155195  1.0
  C  C112  1  0.12542834  0.65915980  0.83092639  1.0
  C  C113  1  0.15327512  0.62882299  0.82770749  1.0
  C  C114  1  0.81636731  0.87982976  0.35631342  1.0
  C  C115  1  0.84674295  0.87444821  0.32889765  1.0
  C  C116  1  0.87314990  0.84282515  0.33136735  1.0
  C  C117  1  0.86842960  0.81595782  0.36178101  1.0
  C  C118  1  0.83863506  0.82070715  0.38993713  1.0
  C  C119  1  0.81238991  0.85232650  0.38637023  1.0
  C  C120  1  0.20080517  0.94978796  0.17397273  1.0
  C  C121  1  0.23273859  0.95520906  0.14828865  1.0
  C  C122  1  0.22315774  0.93108333  0.11658694  1.0
  C  C123  1  0.02061397  0.85858384  0.19132924  1.0
  C  C124  1  0.01661187  0.88510725  0.22222323  1.0
  C  C125  1  0.05155578  0.90745759  0.22029701  1.0
  C  C126  1  0.14231276  0.81718924  0.03690972  1.0
  C  C127  1  0.11061538  0.79234751  0.02693526  1.0
  C  C128  1  0.08266150  0.79883333  0.05652364  1.0
  C  C129  1  0.80714395  0.53959683  0.66539261  1.0
  C  C130  1  0.77250339  0.53804142  0.64262794  1.0
  C  C131  1  0.77921808  0.56617229  0.61354941  1.0
  C  C132  1  0.98079377  0.63965482  0.68912350  1.0
  C  C133  1  0.98697565  0.61100806  0.71783155  1.0
  C  C134  1  0.95475329  0.58543043  0.71287016  1.0
  C  C135  1  0.85740622  0.68342799  0.53616144  1.0
  C  C136  1  0.88886081  0.70858160  0.52626496  1.0
  C  C137  1  0.91732111  0.70155132  0.55536745  1.0
  C  C138  1  0.68077888  0.03035065  0.36948395  1.0
  C  C139  1  0.70526239  0.02027028  0.40111897  1.0
  C  C140  1  0.70075587  0.05174685  0.42683558  1.0
  C  C141  1  0.54990913  0.17024167  0.30688620  1.0
  C  C142  1  0.54320714  0.14251787  0.27754705  1.0
  C  C143  1  0.56764237  0.11101321  0.28842574  1.0
  C  C144  1  0.65920414  0.19954067  0.47264135  1.0
  C  C145  1  0.63668800  0.23401212  0.47396687  1.0
  C  C146  1  0.61000976  0.23006605  0.44273156  1.0
  C  C147  1  0.31833346  0.47261995  0.86975692  1.0
  C  C148  1  0.29225505  0.48179137  0.90032266  1.0
  C  C149  1  0.29582863  0.44975830  0.92563349  1.0
  C  C150  1  0.44641102  0.33154246  0.80611218  1.0
  C  C151  1  0.45421385  0.35958363  0.77728444  1.0
  C  C152  1  0.43142034  0.39194844  0.78889419  1.0
  C  C153  1  0.33907493  0.30247400  0.97243580  1.0
  C  C154  1  0.36151530  0.26793091  0.97366295  1.0
  C  C155  1  0.38787153  0.27186263  0.94222931  1.0
  C  C156  1  0.33893543  0.04272337  0.10126443  1.0
  C  C157  1  0.32160690  0.02194789  0.13020214  1.0
  C  C158  1  0.28831344  0.99648491  0.12447660  1.0
  C  C159  1  0.26665933  0.98045180  0.15362226  1.0
  C  C160  1  0.65749650  0.46021166  0.59840817  1.0
  C  C161  1  0.67926916  0.47651345  0.62726386  1.0
  C  C162  1  0.71206949  0.50244796  0.62073608  1.0
  C  C163  1  0.73876012  0.51274241  0.64843281  1.0
  C  C164  1  0.79000712  0.91336447  0.35264571  1.0
  C  C165  1  0.77011030  0.93100127  0.38200413  1.0
  C  C166  1  0.74514195  0.96452189  0.37681573  1.0
  C  C167  1  0.73005182  0.98625242  0.40621319  1.0
  C  C168  1  0.21170664  0.59170754  0.85086053  1.0
  C  C169  1  0.22923478  0.57230031  0.88065262  1.0
  C  C170  1  0.25503130  0.53937475  0.87567364  1.0
  C  C171  1  0.26698308  0.51548819  0.90490435  1.0
  C  C172  1  0.90497228  0.83743992  0.30305369  1.0
  C  C173  1  0.92668712  0.86666884  0.28721593  1.0
  C  C174  1  0.95828210  0.86109183  0.25978056  1.0
  C  C175  1  0.98462325  0.88930141  0.24978371  1.0
  C  C176  1  0.54209351  0.41076515  0.67413384  1.0
  C  C177  1  0.52152762  0.38107610  0.69072011  1.0
  C  C178  1  0.49649541  0.38552558  0.72406511  1.0
  C  C179  1  0.47982251  0.35549683  0.74394471  1.0
  C  C180  1  0.09289811  0.66338082  0.80312093  1.0
  C  C181  1  0.07356231  0.63332180  0.78591660  1.0
  C  C182  1  0.04175483  0.63770116  0.75846372  1.0
  C  C183  1  0.01861574  0.60782451  0.74597702  1.0
  C  C184  1  0.45873765  0.08961793  0.17233000  1.0
  C  C185  1  0.47737383  0.11982185  0.19006319  1.0
  C  C186  1  0.50326819  0.11573096  0.22295080  1.0
  C  C187  1  0.51715217  0.14601292  0.24439921  1.0
  C  C188  1  0.16368001  0.70892955  0.92185815  1.0
  C  C189  1  0.13299942  0.72677969  0.94013201  1.0
  C  C190  1  0.13748127  0.75265353  0.97254143  1.0
  C  C191  1  0.10689676  0.76611460  0.99439608  1.0
  C  C192  1  0.58476270  0.34261748  0.55347553  1.0
  C  C193  1  0.61538401  0.32253530  0.53766909  1.0
  C  C194  1  0.61083956  0.29067798  0.51099716  1.0
  C  C195  1  0.64048860  0.26581971  0.50115975  1.0
  C  C196  1  0.41275876  0.15833719  0.05287643  1.0
  C  C197  1  0.38230551  0.17912661  0.03751542  1.0
  C  C198  1  0.38704087  0.21063550  0.01039154  1.0
  C  C199  1  0.35777949  0.23619418  0.00101942  1.0
  C  C200  1  0.83466980  0.79371152  0.42251599  1.0
  C  C201  1  0.86531754  0.77521012  0.44032268  1.0
  C  C202  1  0.86109500  0.74916451  0.47270938  1.0
  C  C203  1  0.89201513  0.73526643  0.49397171  1.0
  N  N204  1  0.18828165  0.91298802  0.12303860  1.0
  N  N205  1  0.17419397  0.92489746  0.15853057  1.0
  N  N206  1  0.07459241  0.89494143  0.19092012  1.0
  N  N207  1  0.05518361  0.86480765  0.17271498  1.0
  N  N208  1  0.09678255  0.82507900  0.08213056  1.0
  N  N209  1  0.13374266  0.83668112  0.06974263  1.0
  N  N210  1  0.81500973  0.58290686  0.61876048  1.0
  N  N211  1  0.83250028  0.56617469  0.65079129  1.0
  N  N212  1  0.93116716  0.59810056  0.68386051  1.0
  N  N213  1  0.94754807  0.63160983  0.66890796  1.0
  N  N214  1  0.90370255  0.67469441  0.58064286  1.0
  N  N215  1  0.86657842  0.66324060  0.56850086  1.0
  N  N216  1  0.67602335  0.07854050  0.41146719  1.0
  N  N217  1  0.66334151  0.06505281  0.37600387  1.0
  N  N218  1  0.58711996  0.11946106  0.32149599  1.0
  N  N219  1  0.57591493  0.15615314  0.33318479  1.0
  N  N220  1  0.61628584  0.19595240  0.42444548  1.0
  N  N221  1  0.64660464  0.17680145  0.44323488  1.0
  N  N222  1  0.32158550  0.42354572  0.91103437  1.0
  N  N223  1  0.33577727  0.43793796  0.87646350  1.0
  N  N224  1  0.41181647  0.38364638  0.82192855  1.0
  N  N225  1  0.42138294  0.34623599  0.83283605  1.0
  N  N226  1  0.38147363  0.30601831  0.92394339  1.0
  N  N227  1  0.35140544  0.32522500  0.94290185  1.0
