# generated using pymatgen
data_ZnH8C20SNO7
_symmetry_space_group_name_H-M   'P 1'
_cell_length_a   13.86998149
_cell_length_b   14.47863447
_cell_length_c   15.20922365
_cell_angle_alpha   92.60691906
_cell_angle_beta   91.74015080
_cell_angle_gamma   91.08716357
_symmetry_Int_Tables_number   1
_chemical_formula_structural   ZnH8C20SNO7
_chemical_formula_sum   'Zn2 H16 C40 S2 N2 O14'
_cell_volume   3049.09007411
_cell_formula_units_Z   2
loop_
 _symmetry_equiv_pos_site_id
 _symmetry_equiv_pos_as_xyz
  1  'x, y, z'
loop_
 _atom_site_type_symbol
 _atom_site_label
 _atom_site_symmetry_multiplicity
 _atom_site_fract_x
 _atom_site_fract_y
 _atom_site_fract_z
 _atom_site_occupancy
  Zn  Zn0  1  0.39734805  0.50016658  0.49908912  1.0
  Zn  Zn1  1  0.60251705  0.50178405  0.50043242  1.0
  H  H2  1  0.45967635  0.62462965  0.23429365  1.0
  H  H3  1  0.74865840  0.41041573  0.38688369  1.0
  H  H4  1  0.09822921  0.64502352  0.68158248  1.0
  H  H5  1  0.90224494  0.34995126  0.31905358  1.0
  H  H6  1  0.08137323  0.35039952  0.31912688  1.0
  H  H7  1  0.91947148  0.64216417  0.68319222  1.0
  H  H8  1  0.59900341  0.33310383  0.36789529  1.0
  H  H9  1  0.57716093  0.71338752  0.68250211  1.0
  H  H10  1  0.53435487  0.36787049  0.76500105  1.0
  H  H11  1  0.43971396  0.71570314  0.10476203  1.0
  H  H12  1  0.54695173  0.27359655  0.89543930  1.0
  H  H13  1  0.44530369  0.73104011  0.94596108  1.0
  H  H14  1  0.54682897  0.25954120  0.05473454  1.0
  H  H15  1  0.24269629  0.41164305  0.38794887  1.0
  H  H16  1  0.75819898  0.58275437  0.61266340  1.0
  H  H17  1  0.25276482  0.58958533  0.60971397  1.0
  C  C18  1  0.50104009  0.50934141  0.66924382  1.0
  C  C19  1  0.53409174  0.32628602  0.02739230  1.0
  C  C20  1  0.20043556  0.44946480  0.43654650  1.0
  C  C21  1  0.80021700  0.54536605  0.56363954  1.0
  C  C22  1  0.20629212  0.55054606  0.56151033  1.0
  C  C23  1  0.79435933  0.44723718  0.43705700  1.0
  C  C24  1  0.10552288  0.55180429  0.56551201  1.0
  C  C25  1  0.89517522  0.44409481  0.43440832  1.0
  C  C26  1  0.09937701  0.44527170  0.43399759  1.0
  C  C27  1  0.90128295  0.54911978  0.56684122  1.0
  C  C28  1  0.05137924  0.49792637  0.50006203  1.0
  C  C29  1  0.49524396  0.48747200  0.33102625  1.0
  C  C30  1  0.94939777  0.49689721  0.50053697  1.0
  C  C31  1  0.05575044  0.60412013  0.63181261  1.0
  C  C32  1  0.94489716  0.39086870  0.36869607  1.0
  C  C33  1  0.04348331  0.39122242  0.36872084  1.0
  C  C34  1  0.95718474  0.60257216  0.63259476  1.0
  C  C35  1  0.49329797  0.31783032  0.49363579  1.0
  C  C36  1  0.50908576  0.68000263  0.49549692  1.0
  C  C37  1  0.49407333  0.21866691  0.49217128  1.0
  C  C38  1  0.50913496  0.77928042  0.49062942  1.0
  C  C39  1  0.49779169  0.13399452  0.49106587  1.0
  C  C40  1  0.49794414  0.49128676  0.04734850  1.0
  C  C41  1  0.50762350  0.86398424  0.49006926  1.0
  C  C42  1  0.50156723  0.04159507  0.49025544  1.0
  C  C43  1  0.50508877  0.95644489  0.48991878  1.0
  C  C44  1  0.51690280  0.40115957  0.17992790  1.0
  C  C45  1  0.48723118  0.59189836  0.82291870  1.0
  C  C46  1  0.49570287  0.48090666  0.23189377  1.0
  C  C47  1  0.50433241  0.51292273  0.76870807  1.0
  C  C48  1  0.47575227  0.56369158  0.19278434  1.0
  C  C49  1  0.52063067  0.42880791  0.80732994  1.0
  C  C50  1  0.47686138  0.57073763  0.10149324  1.0
  C  C51  1  0.49965216  0.49967297  0.95415954  1.0
  C  C52  1  0.51867815  0.42053816  0.89868998  1.0
  C  C53  1  0.51714987  0.40439548  0.08639096  1.0
  C  C54  1  0.48258074  0.58691550  0.91580895  1.0
  C  C55  1  0.45710128  0.65616031  0.06196989  1.0
  C  C56  1  0.53446984  0.33442179  0.93835859  1.0
  C  C57  1  0.46003033  0.66449044  0.97320516  1.0
  S  S58  1  0.53565213  0.29612578  0.23777055  1.0
  S  S59  1  0.46819240  0.70279418  0.77843989  1.0
  N  N60  1  0.25087957  0.50065789  0.49862843  1.0
  N  N61  1  0.74936089  0.49621979  0.50033825  1.0
  O  O62  1  0.41953328  0.52090544  0.63214149  1.0
  O  O63  1  0.57152552  0.22455388  0.17971312  1.0
  O  O64  1  0.62236294  0.32387145  0.30519894  1.0
  O  O65  1  0.36627798  0.71550514  0.76652347  1.0
  O  O66  1  0.52857111  0.77142618  0.82625376  1.0
  O  O67  1  0.50979595  0.69178297  0.68119323  1.0
  O  O68  1  0.57465643  0.51364697  0.36899806  1.0
  O  O69  1  0.41593056  0.47220687  0.36741190  1.0
  O  O70  1  0.57920579  0.48918921  0.63141217  1.0
  O  O71  1  0.41888230  0.35834179  0.51949891  1.0
  O  O72  1  0.58939312  0.64419874  0.51686948  1.0
  O  O73  1  0.42887655  0.63807304  0.47859807  1.0
  O  O74  1  0.57126606  0.35816804  0.46859752  1.0
  O  O75  1  0.45014988  0.27943855  0.28687496  1.0
