# generated using pymatgen
data_ZnH13C20NO7
_symmetry_space_group_name_H-M   'P 1'
_cell_length_a   10.98619037
_cell_length_b   16.37814458
_cell_length_c   17.61543233
_cell_angle_alpha   95.05903971
_cell_angle_beta   90.43021941
_cell_angle_gamma   92.53686313
_symmetry_Int_Tables_number   1
_chemical_formula_structural   ZnH13C20NO7
_chemical_formula_sum   'Zn2 H26 C40 N2 O14'
_cell_volume   3153.95557311
_cell_formula_units_Z   2
loop_
 _symmetry_equiv_pos_site_id
 _symmetry_equiv_pos_as_xyz
  1  'x, y, z'
loop_
 _atom_site_type_symbol
 _atom_site_label
 _atom_site_symmetry_multiplicity
 _atom_site_fract_x
 _atom_site_fract_y
 _atom_site_fract_z
 _atom_site_occupancy
  Zn  Zn0  1  0.50168262  0.41006792  0.50384620  1.0
  Zn  Zn1  1  0.50661051  0.58863279  0.50609452  1.0
  H  H2  1  0.34465005  0.71820943  0.49286488  1.0
  H  H3  1  0.34499343  0.86935969  0.49305377  1.0
  H  H4  1  0.73456005  0.87367424  0.53802443  1.0
  H  H5  1  0.28610744  0.12037737  0.46031180  1.0
  H  H6  1  0.66323010  0.13341567  0.53751176  1.0
  H  H7  1  0.66007799  0.28393086  0.53316321  1.0
  H  H8  1  0.64390689  0.00182249  0.53100201  1.0
  H  H9  1  0.37351839  0.99603015  0.48211735  1.0
  H  H10  1  0.52526580  0.62413562  0.26871520  1.0
  H  H11  1  0.51244693  0.62071655  0.12800208  1.0
  H  H12  1  0.50290390  0.35512383  0.11477275  1.0
  H  H13  1  0.49752472  0.66274279  0.89038092  1.0
  H  H14  1  0.47955100  0.39750454  0.88483608  1.0
  H  H15  1  0.47293728  0.38929982  0.74398755  1.0
  H  H16  1  0.49052187  0.41594421  0.00210059  1.0
  H  H17  1  0.50510562  0.60449506  0.00660182  1.0
  H  H18  1  0.76259505  0.58878989  0.40169873  1.0
  H  H19  1  0.21304663  0.59452596  0.37339340  1.0
  H  H20  1  0.12776654  0.40454160  0.56182539  1.0
  H  H21  1  0.90156832  0.40125594  0.57555348  1.0
  H  H22  1  0.72855618  0.65600845  0.53251514  1.0
  H  H23  1  0.28393166  0.33754175  0.46668678  1.0
  H  H24  1  0.51961156  0.36014326  0.31550331  1.0
  H  H25  1  0.48308568  0.65115819  0.68950569  1.0
  H  H26  1  0.76444829  0.67056941  0.30597563  1.0
  H  H27  1  0.17906432  0.67477956  0.27688787  1.0
  C  C28  1  0.52796981  0.49844819  0.35542169  1.0
  C  C29  1  0.26617424  0.49939873  0.48306297  1.0
  C  C30  1  0.48061185  0.51134907  0.65310623  1.0
  C  C31  1  0.74266326  0.49106434  0.51162434  1.0
  C  C32  1  0.42887704  0.75583165  0.50197088  1.0
  C  C33  1  0.43011409  0.83990571  0.50212572  1.0
  C  C34  1  0.54198284  0.88564542  0.51505479  1.0
  C  C35  1  0.64568447  0.84236904  0.52752622  1.0
  C  C36  1  0.63789483  0.75619116  0.52600551  1.0
  C  C37  1  0.55341280  0.97469868  0.51574877  1.0
  C  C38  1  0.46329408  0.02365446  0.49846004  1.0
  C  C39  1  0.37142809  0.15359331  0.47736700  1.0
  C  C40  1  0.47308330  0.11264250  0.49868084  1.0
  C  C41  1  0.58022574  0.16074213  0.51990014  1.0
  C  C42  1  0.57927546  0.24458163  0.51822748  1.0
  C  C43  1  0.37634155  0.23967167  0.47798039  1.0
  C  C44  1  0.52286299  0.49338424  0.27161467  1.0
  C  C45  1  0.52152741  0.56570779  0.23366286  1.0
  C  C46  1  0.51377132  0.56354610  0.15522450  1.0
  C  C47  1  0.50680955  0.48697800  0.11057681  1.0
  C  C48  1  0.50830305  0.41480403  0.14770588  1.0
  C  C49  1  0.51609996  0.41657948  0.22727895  1.0
  C  C50  1  0.49766069  0.47924375  0.02777235  1.0
  C  C51  1  0.49770467  0.54095947  0.98147393  1.0
  C  C52  1  0.49159623  0.60208427  0.85920836  1.0
  C  C53  1  0.48996554  0.53135536  0.89855128  1.0
  C  C54  1  0.48188889  0.45365337  0.85595145  1.0
  C  C55  1  0.47788700  0.44869212  0.77731892  1.0
  C  C56  1  0.48048952  0.51944302  0.73710774  1.0
  C  C57  1  0.48613808  0.59752761  0.77938542  1.0
  C  C58  1  0.87637093  0.49274857  0.49784104  1.0
  C  C59  1  0.93108930  0.54387295  0.44473489  1.0
  C  C60  1  0.94612278  0.44143732  0.53707203  1.0
  C  C61  1  0.86162465  0.59022445  0.39731651  1.0
  C  C62  1  0.91546336  0.63627316  0.34391136  1.0
  C  C63  1  0.13059037  0.49540332  0.48137249  1.0
  C  C64  1  0.07284522  0.44291080  0.52895147  1.0
  C  C65  1  0.06137720  0.54532531  0.43626490  1.0
  C  C66  1  0.11449132  0.59334485  0.38090845  1.0
  C  C67  1  0.04466312  0.63765449  0.33530040  1.0
  N  N68  1  0.53038019  0.71368826  0.51330030  1.0
  N  N69  1  0.47985685  0.28457896  0.49776238  1.0
  O  O70  1  0.52230411  0.43050754  0.38779335  1.0
  O  O71  1  0.53733336  0.56929422  0.39204964  1.0
  O  O72  1  0.32266462  0.56863413  0.48370950  1.0
  O  O73  1  0.31901971  0.43131288  0.48701611  1.0
  O  O74  1  0.47822022  0.57862988  0.61937013  1.0
  O  O75  1  0.48399739  0.44043480  0.61778223  1.0
  O  O76  1  0.68765036  0.42146809  0.51202487  1.0
  O  O77  1  0.69002850  0.55962794  0.52260242  1.0
  O  O78  1  0.73989753  0.71797439  0.53724802  1.0
  O  O79  1  0.27573916  0.27537181  0.45860142  1.0
  O  O80  1  0.51640546  0.34465441  0.25898537  1.0
  O  O81  1  0.48755028  0.66840554  0.74565610  1.0
  O  O82  1  0.85107402  0.68085461  0.29688097  1.0
  O  O83  1  0.09189714  0.68315120  0.28020593  1.0
