# generated using pymatgen
data_Zn4H36C34O19
_symmetry_space_group_name_H-M   'P 1'
_cell_length_a   18.96814753
_cell_length_b   19.00086026
_cell_length_c   19.02083783
_cell_angle_alpha   93.46510356
_cell_angle_beta   117.91623478
_cell_angle_gamma   118.02055832
_symmetry_Int_Tables_number   1
_chemical_formula_structural   Zn4H36C34O19
_chemical_formula_sum   'Zn8 H72 C68 O38'
_cell_volume   4990.11768852
_cell_formula_units_Z   2
loop_
 _symmetry_equiv_pos_site_id
 _symmetry_equiv_pos_as_xyz
  1  'x, y, z'
loop_
 _atom_site_type_symbol
 _atom_site_label
 _atom_site_symmetry_multiplicity
 _atom_site_fract_x
 _atom_site_fract_y
 _atom_site_fract_z
 _atom_site_occupancy
  Zn  Zn0  1  0.57675251  0.53545254  0.44617184  1.0
  Zn  Zn1  1  0.42613655  0.95821929  0.86833601  1.0
  Zn  Zn2  1  0.57946912  0.12576129  0.04093091  1.0
  Zn  Zn3  1  0.41858315  0.54641249  0.46127392  1.0
  Zn  Zn4  1  0.58422706  0.54774924  0.61921538  1.0
  Zn  Zn5  1  0.41417276  0.96297811  0.03365351  1.0
  Zn  Zn6  1  0.58007790  0.95577020  0.03270636  1.0
  Zn  Zn7  1  0.41988815  0.37619137  0.45312886  1.0
  H  H8  1  0.46958191  0.42595706  0.23176132  1.0
  H  H9  1  0.24598456  0.54199523  0.63349977  1.0
  H  H10  1  0.40621967  0.63201813  0.83505938  1.0
  H  H11  1  0.51410221  0.66259714  0.92856766  1.0
  H  H12  1  0.46831346  0.72637805  0.92057257  1.0
  H  H13  1  0.70232388  0.25047022  0.25389421  1.0
  H  H14  1  0.70277318  0.34232263  0.25129878  1.0
  H  H15  1  0.76307526  0.33248294  0.35105409  1.0
  H  H16  1  0.44370668  0.55841212  0.78706033  1.0
  H  H17  1  0.52368731  0.56118204  0.76245332  1.0
  H  H18  1  0.56578375  0.60902308  0.86863165  1.0
  H  H19  1  0.67276266  0.42548807  0.29352767  1.0
  H  H20  1  0.32928933  0.51947900  0.64067976  1.0
  H  H21  1  0.67778824  0.46444713  0.38291690  1.0
  H  H22  1  0.75726861  0.43470825  0.39410670  1.0
  H  H23  1  0.34376896  0.56652960  0.73330490  1.0
  H  H24  1  0.57229418  0.44162615  0.23947959  1.0
  H  H25  1  0.55193135  0.19530443  0.40181889  1.0
  H  H26  1  0.50082067  0.23688721  0.43312347  1.0
  H  H27  1  0.43396579  0.12636511  0.37684931  1.0
  H  H28  1  0.70588163  0.86430534  0.86535081  1.0
  H  H29  1  0.71660486  0.94553448  0.82100649  1.0
  H  H30  1  0.46122039  0.38991641  0.13857047  1.0
  H  H31  1  0.69153745  0.94147020  0.90044449  1.0
  H  H32  1  0.49190717  0.08344100  0.30757298  1.0
  H  H33  1  0.36653627  0.03090042  0.25721952  1.0
  H  H34  1  0.41121972  0.01759711  0.19801356  1.0
  H  H35  1  0.69007202  0.80431024  0.75188234  1.0
  H  H36  1  0.61457764  0.76134439  0.63880259  1.0
  H  H37  1  0.66827327  0.86944439  0.69317807  1.0
  H  H38  1  0.24036403  0.65379401  0.68122850  1.0
  H  H39  1  0.31712386  0.65337144  0.77973499  1.0
  H  H40  1  0.31580062  0.74531669  0.77409958  1.0
  H  H41  1  0.56925993  0.28349231  0.10896793  1.0
  H  H42  1  0.34556101  0.18348498  0.38071191  1.0
  H  H43  1  0.28542751  0.07831832  0.30980193  1.0
  H  H44  1  0.23361164  0.13818452  0.28042803  1.0
  H  H45  1  0.61190331  0.00280569  0.84819597  1.0
  H  H46  1  0.55491504  0.01370963  0.74813690  1.0
  H  H47  1  0.67018467  0.02934988  0.79324768  1.0
  H  H48  1  0.23202405  0.03040786  0.16712780  1.0
  H  H49  1  0.51392967  0.34017958  0.08919502  1.0
  H  H50  1  0.25226953  0.97364107  0.10763184  1.0
  H  H51  1  0.19382774  0.02522685  0.06061493  1.0
  H  H52  1  0.54078729  0.81597950  0.54724297  1.0
  H  H53  1  0.55356828  0.89838398  0.61438025  1.0
  H  H54  1  0.43839405  0.81819443  0.52009398  1.0
  H  H55  1  0.61482033  0.37215386  0.19108928  1.0
  H  H56  1  0.64408496  0.40384319  0.49998574  1.0
  H  H57  1  0.75709132  0.45658254  0.51034414  1.0
  H  H58  1  0.72784152  0.37708917  0.55646434  1.0
  H  H59  1  0.66453924  0.74317168  0.01926539  1.0
  H  H60  1  0.62464639  0.80924374  0.03156805  1.0
  H  H61  1  0.74129959  0.85612532  0.05077490  1.0
  H  H62  1  0.72727194  0.18753206  0.34342691  1.0
  H  H63  1  0.60479701  0.10809364  0.25618335  1.0
  H  H64  1  0.64395951  0.11022398  0.36195844  1.0
  H  H65  1  0.68968458  0.64880754  0.84589072  1.0
  H  H66  1  0.71781919  0.72056903  0.93571531  1.0
  H  H67  1  0.77848689  0.76054698  0.88437948  1.0
  H  H68  1  0.22537984  0.23376132  0.09983678  1.0
  H  H69  1  0.29351631  0.26285682  0.05370156  1.0
  H  H70  1  0.31424542  0.34381256  0.12967067  1.0
  H  H71  1  0.29426781  0.81373608  0.58853366  1.0
  H  H72  1  0.25539796  0.77900866  0.65629945  1.0
  H  H73  1  0.22766347  0.70242232  0.57036813  1.0
  H  H74  1  0.35099225  0.10254854  0.99634330  1.0
  H  H75  1  0.43055806  0.20153089  0.99350866  1.0
  H  H76  1  0.30636757  0.16140424  0.94486502  1.0
  H  H77  1  0.17955182  0.53705539  0.50674387  1.0
  H  H78  1  0.26669532  0.52086614  0.50992704  1.0
  H  H79  1  0.23485567  0.58263157  0.45241307  1.0
  C  C80  1  0.48937945  0.62852676  0.63615264  1.0
  C  C81  1  0.50099122  0.13723361  0.13958291  1.0
  C  C82  1  0.24082653  0.36969616  0.36192728  1.0
  C  C83  1  0.75934234  0.62990846  0.61826831  1.0
  C  C84  1  0.24179723  0.86828512  0.85590787  1.0
  C  C85  1  0.75841054  0.13052586  0.12132464  1.0
  C  C86  1  0.50272830  0.85637072  0.86050504  1.0
  C  C87  1  0.50413718  0.37608936  0.62870139  1.0
  C  C88  1  0.49835921  0.87568442  0.12837029  1.0
  C  C89  1  0.50232511  0.35942719  0.35999121  1.0
  C  C90  1  0.50218240  0.63608272  0.37064377  1.0
  C  C91  1  0.50031747  0.13478740  0.86945660  1.0
  C  C92  1  0.50314876  0.69052792  0.32107252  1.0
  C  C93  1  0.50013352  0.18831357  0.81899677  1.0
  C  C94  1  0.50234056  0.73528230  0.27756246  1.0
  C  C95  1  0.50101713  0.23315589  0.77550121  1.0
  C  C96  1  0.50114933  0.78368530  0.22857919  1.0
  C  C97  1  0.50214906  0.28197161  0.72691442  1.0
  C  C98  1  0.49965808  0.82669478  0.18329776  1.0
  C  C99  1  0.50331709  0.32570495  0.68233973  1.0
  C  C100  1  0.45929497  0.30715834  0.21060586  1.0
  C  C101  1  0.38888404  0.72945773  0.72070302  1.0
  C  C102  1  0.47491147  0.25611143  0.15388909  1.0
  C  C103  1  0.37932523  0.65352520  0.66470343  1.0
  C  C104  1  0.61387494  0.32770851  0.34487792  1.0
  C  C105  1  0.49441097  0.39694189  0.20600450  1.0
  C  C106  1  0.31225729  0.69314873  0.74129542  1.0
  C  C107  1  0.54856349  0.31655948  0.13587521  1.0
  C  C108  1  0.53774063  0.74085702  0.85331179  1.0
  C  C109  1  0.32268208  0.56602902  0.66935638  1.0
  C  C110  1  0.61046933  0.25520535  0.28971021  1.0
  C  C111  1  0.29661332  0.27852062  0.11203046  1.0
  C  C112  1  0.28245764  0.76679189  0.61998967  1.0
  C  C113  1  0.36903515  0.16726932  0.99931750  1.0
  C  C114  1  0.24764018  0.56720567  0.51009866  1.0
  C  C115  1  0.54456833  0.68487792  0.79148615  1.0
  C  C116  1  0.68344464  0.41810082  0.35320400  1.0
  C  C117  1  0.47747099  0.68732545  0.88534836  1.0
  C  C118  1  0.69901153  0.29784350  0.28504836  1.0
  C  C119  1  0.51631818  0.59785435  0.80183394  1.0
  C  C120  1  0.48536963  0.18987371  0.38259223  1.0
  C  C121  1  0.67750195  0.90260953  0.84457783  1.0
  C  C122  1  0.42537056  0.06375245  0.24812586  1.0
  C  C123  1  0.63592156  0.80526401  0.69608413  1.0
  C  C124  1  0.30212824  0.14310584  0.31324094  1.0
  C  C125  1  0.59951757  0.99131113  0.78479330  1.0
  C  C126  1  0.25063827  0.03014446  0.12035149  1.0
  C  C127  1  0.50616861  0.83051949  0.57354549  1.0
  C  C128  1  0.69814878  0.39516776  0.50141357  1.0
  C  C129  1  0.66582434  0.80061261  0.01028632  1.0
  C  C130  1  0.65147524  0.15053333  0.32348591  1.0
  C  C131  1  0.70890693  0.71276073  0.87363657  1.0
  C  C132  1  0.44012984  0.20205434  0.29704308  1.0
  C  C133  1  0.56963657  0.84783689  0.77237372  1.0
  C  C134  1  0.42613688  0.13949613  0.22292498  1.0
  C  C135  1  0.54542830  0.78012253  0.69476472  1.0
  C  C136  1  0.50418085  0.29942945  0.30368265  1.0
  C  C137  1  0.49932307  0.79287984  0.80314248  1.0
  C  C138  1  0.50372933  0.19572241  0.20193790  1.0
  C  C139  1  0.48824071  0.68427127  0.69690287  1.0
  C  C140  1  0.13669070  0.31757349  0.30864754  1.0
  C  C141  1  0.86249726  0.18247576  0.17215862  1.0
  C  C142  1  0.13768297  0.81506152  0.80149422  1.0
  C  C143  1  0.86344306  0.67995503  0.66789773  1.0
  C  C144  1  0.04832344  0.27410355  0.26444388  1.0
  C  C145  1  0.95085445  0.22604622  0.21591973  1.0
  C  C146  1  0.04929937  0.77098284  0.75772243  1.0
  C  C147  1  0.95179941  0.72292926  0.71018711  1.0
  O  O148  1  0.49961368  0.50170434  0.49424102  1.0
  O  O149  1  0.56625818  0.17250546  0.12440349  1.0
  O  O150  1  0.45748440  0.32897607  0.39500132  1.0
  O  O151  1  0.54766704  0.60563472  0.66792850  1.0
  O  O152  1  0.43392241  0.05770767  0.10385914  1.0
  O  O153  1  0.55492117  0.87642703  0.94136048  1.0
  O  O154  1  0.36005600  0.26617471  0.18001691  1.0
  O  O155  1  0.37433707  0.78129270  0.67286301  1.0
  O  O156  1  0.38355010  0.21116033  0.07303342  1.0
  O  O157  1  0.32235835  0.64690341  0.57868899  1.0
  O  O158  1  0.45350140  0.88668441  0.82477550  1.0
  O  O159  1  0.54816804  0.43868910  0.37005436  1.0
  O  O160  1  0.34420709  0.17830438  0.26856334  1.0
  O  O161  1  0.54579855  0.90345795  0.73552234  1.0
  O  O162  1  0.33666040  0.10722388  0.14391795  1.0
  O  O163  1  0.47721801  0.77493168  0.61522440  1.0
  O  O164  1  0.43459356  0.61087429  0.55655277  1.0
  O  O165  1  0.65795808  0.32627202  0.42987255  1.0
  O  O166  1  0.63579980  0.79980963  0.92633470  1.0
  O  O167  1  0.62302901  0.20315990  0.34007143  1.0
  O  O168  1  0.64299913  0.73009847  0.81666397  1.0
  O  O169  1  0.49959644  0.00069618  0.99363725  1.0
  O  O170  1  0.72151371  0.62106525  0.66038441  1.0
  O  O171  1  0.27838048  0.88852704  0.93571843  1.0
  O  O172  1  0.71834137  0.05029285  0.10358501  1.0
  O  O173  1  0.28126815  0.32953856  0.38030997  1.0
  O  O174  1  0.57288877  0.45518954  0.66580846  1.0
  O  O175  1  0.43788492  0.89595485  0.10634039  1.0
  O  O176  1  0.55791372  0.89314723  0.10754794  1.0
  O  O177  1  0.43589618  0.33596721  0.54979668  1.0
  O  O178  1  0.44522433  0.61819131  0.39449677  1.0
  O  O179  1  0.54652416  0.17254301  0.94951031  1.0
  O  O180  1  0.45456007  0.05555204  0.82858517  1.0
  O  O181  1  0.55825256  0.61172362  0.38477801  1.0
  O  O182  1  0.71647895  0.59995766  0.53774122  1.0
  O  O183  1  0.28564021  0.88928399  0.81871982  1.0
  O  O184  1  0.71779915  0.17042762  0.09979445  1.0
  O  O185  1  0.28073264  0.45015614  0.38501533  1.0
