# generated using pymatgen
data_AlH12C18NO7
_symmetry_space_group_name_H-M   'P 1'
_cell_length_a   6.64886086
_cell_length_b   20.94707939
_cell_length_c   21.40664280
_cell_angle_alpha   90.00003064
_cell_angle_beta   90.00174483
_cell_angle_gamma   96.23969968
_symmetry_Int_Tables_number   1
_chemical_formula_structural   AlH12C18NO7
_chemical_formula_sum   'Al4 H48 C72 N4 O28'
_cell_volume   2963.73130634
_cell_formula_units_Z   4
loop_
 _symmetry_equiv_pos_site_id
 _symmetry_equiv_pos_as_xyz
  1  'x, y, z'
loop_
 _atom_site_type_symbol
 _atom_site_label
 _atom_site_symmetry_multiplicity
 _atom_site_fract_x
 _atom_site_fract_y
 _atom_site_fract_z
 _atom_site_occupancy
  Al  Al0  1  0.92810479  0.69010042  0.49664823  1.0
  Al  Al1  1  0.07191108  0.30990363  0.99665114  1.0
  Al  Al2  1  0.42753140  0.69011539  0.49496372  1.0
  Al  Al3  1  0.57247579  0.30988471  0.99496474  1.0
  H  H4  1  0.00018448  0.51114345  0.05243622  1.0
  H  H5  1  0.99991877  0.48884598  0.55242445  1.0
  H  H6  1  0.93561454  0.65625882  0.21818701  1.0
  H  H7  1  0.06444825  0.34373510  0.71817589  1.0
  H  H8  1  0.01005095  0.60741928  0.12135599  1.0
  H  H9  1  0.99005803  0.39257384  0.62134086  1.0
  H  H10  1  0.48173911  0.48157892  0.45412830  1.0
  H  H11  1  0.51823515  0.51842397  0.95414092  1.0
  H  H12  1  0.57779906  0.38053192  0.40511329  1.0
  H  H13  1  0.42214958  0.61946520  0.90512141  1.0
  H  H14  1  0.78547418  0.65010583  0.32333587  1.0
  H  H15  1  0.21455323  0.34989096  0.82333419  1.0
  H  H16  1  0.42572286  0.80651853  0.34242745  1.0
  H  H17  1  0.57422178  0.19349169  0.84243121  1.0
  H  H18  1  0.44620833  0.90063931  0.26807116  1.0
  H  H19  1  0.55376529  0.09937144  0.76807479  1.0
  H  H20  1  0.41588972  0.02889154  0.13017392  1.0
  H  H21  1  0.58413076  0.97111012  0.63018240  1.0
  H  H22  1  0.47055764  0.12935802  0.06532549  1.0
  H  H23  1  0.52947221  0.87063727  0.56533978  1.0
  H  H24  1  0.02874535  0.86718694  0.40712908  1.0
  H  H25  1  0.97121222  0.13282178  0.90711232  1.0
  H  H26  1  0.04352627  0.96392430  0.33631047  1.0
  H  H27  1  0.95645093  0.03608102  0.83629732  1.0
  H  H28  1  0.06815345  0.08960968  0.26858687  1.0
  H  H29  1  0.93182941  0.91040836  0.76857885  1.0
  H  H30  1  0.18483447  0.20640987  0.10486692  1.0
  H  H31  1  0.81520666  0.79358094  0.60486773  1.0
  H  H32  1  0.54562975  0.30444060  0.23411675  1.0
  H  H33  1  0.57032158  0.31543269  0.15221839  1.0
  H  H34  1  0.36889158  0.40450435  0.24161973  1.0
  H  H35  1  0.38462060  0.41318098  0.15926589  1.0
  H  H36  1  0.18794857  0.30226867  0.14757192  1.0
  H  H37  1  0.04928404  0.35342596  0.19203452  1.0
  H  H38  1  0.17727392  0.29533004  0.22995894  1.0
  H  H39  1  0.45435150  0.69555431  0.73413299  1.0
  H  H40  1  0.42962695  0.68457490  0.65223219  1.0
  H  H41  1  0.63109496  0.59549544  0.74161741  1.0
  H  H42  1  0.61529996  0.58681769  0.65926350  1.0
  H  H43  1  0.81196312  0.69773224  0.64756893  1.0
  H  H44  1  0.95066915  0.64656748  0.69201005  1.0
  H  H45  1  0.82273039  0.70466322  0.72995506  1.0
  H  H46  1  0.74836175  0.32422784  0.32037166  1.0
  H  H47  1  0.25155320  0.67576614  0.82038620  1.0
  H  H48  1  0.16258309  0.65762008  0.42081567  1.0
  H  H49  1  0.83740255  0.34238330  0.92082143  1.0
  H  H50  1  0.66393158  0.66062897  0.57124280  1.0
  H  H51  1  0.33608821  0.33937102  0.07124964  1.0
  C  C52  1  0.14315689  0.60769310  0.57648833  1.0
  C  C53  1  0.85687592  0.39230755  0.07649292  1.0
  C  C54  1  0.21738255  0.78285794  0.56267412  1.0
  C  C55  1  0.78265808  0.21714035  0.06267085  1.0
  C  C56  1  0.71528294  0.77546824  0.42149269  1.0
  C  C57  1  0.28468178  0.22453536  0.92149306  1.0
  C  C58  1  0.64047609  0.60007046  0.42490919  1.0
  C  C59  1  0.35952422  0.39992832  0.92491369  1.0
  C  C60  1  0.95666119  0.55979079  0.13913352  1.0
  C  C61  1  0.04341904  0.44020254  0.63911865  1.0
  C  C62  1  0.86820109  0.44597745  0.12307195  1.0
  C  C63  1  0.13182861  0.55401664  0.62306495  1.0
  C  C64  1  0.56468151  0.48316029  0.41013370  1.0
  C  C65  1  0.43529542  0.51683863  0.91013434  1.0
  C  C66  1  0.61475509  0.42668207  0.38177342  1.0
  C  C67  1  0.38520383  0.57331699  0.88177951  1.0
  C  C68  1  0.72782540  0.42904289  0.32701586  1.0
  C  C69  1  0.27214213  0.57095270  0.82701826  1.0
  C  C70  1  0.76583910  0.48757564  0.29275462  1.0
  C  C71  1  0.23416080  0.51242069  0.79275778  1.0
  C  C72  1  0.73703195  0.54548354  0.32538838  1.0
  C  C73  1  0.26298049  0.45451211  0.82538367  1.0
  C  C74  1  0.82694915  0.49167846  0.22753386  1.0
  C  C75  1  0.17306727  0.50831684  0.72753352  1.0
  C  C76  1  0.89282610  0.55355785  0.20190691  1.0
  C  C77  1  0.10722169  0.44643438  0.70190115  1.0
  C  C78  1  0.88411111  0.60981059  0.23904164  1.0
  C  C79  1  0.11592936  0.39018314  0.73903495  1.0
  C  C80  1  0.80194987  0.60631902  0.29734629  1.0
  C  C81  1  0.19808029  0.39367483  0.79734270  1.0
  C  C82  1  0.80702106  0.43824360  0.18554964  1.0
  C  C83  1  0.19297765  0.56175611  0.68554848  1.0
  C  C84  1  0.94869034  0.50680222  0.10078838  1.0
  C  C85  1  0.05138711  0.49319235  0.60077825  1.0
  C  C86  1  0.64157236  0.54180613  0.38504679  1.0
  C  C87  1  0.35842858  0.45819681  0.88504897  1.0
  C  C88  1  0.76963150  0.15643623  0.10020028  1.0
  C  C89  1  0.23040155  0.84356212  0.60020830  1.0
  C  C90  1  0.92634362  0.13971763  0.14052543  1.0
  C  C91  1  0.07368122  0.86027599  0.64052821  1.0
  C  C92  1  0.89178398  0.08530950  0.17933993  1.0
  C  C93  1  0.10824263  0.91469148  0.67934054  1.0
  C  C94  1  0.70500753  0.04621879  0.17497925  1.0
  C  C95  1  0.29502431  0.95378176  0.67498337  1.0
  C  C96  1  0.55748739  0.06028057  0.13200073  1.0
  C  C97  1  0.44254352  0.93971932  0.63200867  1.0
  C  C98  1  0.58831757  0.11587322  0.09643334  1.0
  C  C99  1  0.41170798  0.88412119  0.59644486  1.0
  C  C100  1  0.57137531  0.89255585  0.29894031  1.0
  C  C101  1  0.42859225  0.10745303  0.79893694  1.0
  C  C102  1  0.56110623  0.84079843  0.33971687  1.0
  C  C103  1  0.43884596  0.15921379  0.83971450  1.0
  C  C104  1  0.74710873  0.93658261  0.29818014  1.0
  C  C105  1  0.25286658  0.06342781  0.79817515  1.0
  C  C106  1  0.72680892  0.83143478  0.37828044  1.0
  C  C107  1  0.27314264  0.16857423  0.87827419  1.0
  C  C108  1  0.90211646  0.87528027  0.37690130  1.0
  C  C109  1  0.09783068  0.12473012  0.87688503  1.0
  C  C110  1  0.91065412  0.92854258  0.33794941  1.0
  C  C111  1  0.08931461  0.07146409  0.83793821  1.0
  C  C112  1  0.05634354  0.06596502  0.22228066  1.0
  C  C113  1  0.94368528  0.93404908  0.72226802  1.0
  C  C114  1  0.13262356  0.17520990  0.14440034  1.0
  C  C115  1  0.86741138  0.82478578  0.64439949  1.0
  C  C116  1  0.55792476  0.34062544  0.19673540  1.0
  C  C117  1  0.37518005  0.37773987  0.19756472  1.0
  C  C118  1  0.18693396  0.32970652  0.19114439  1.0
  C  C119  1  0.44202335  0.65937562  0.69674549  1.0
  C  C120  1  0.62478145  0.62225992  0.69756285  1.0
  C  C121  1  0.81302748  0.67029085  0.69113484  1.0
  C  C122  1  0.83976577  0.37210571  0.31670616  1.0
  C  C123  1  0.16016250  0.62788315  0.81670352  1.0
  N  N124  1  0.66037426  0.99068608  0.21195863  1.0
  N  N125  1  0.33962565  0.00932046  0.71196187  1.0
  N  N126  1  0.77229031  0.99126092  0.25962161  1.0
  N  N127  1  0.22770460  0.00874335  0.75962070  1.0
  O  O128  1  0.38113499  0.76727039  0.53916442  1.0
  O  O129  1  0.61889121  0.23272715  0.03915822  1.0
  O  O130  1  0.97698619  0.61915144  0.55145092  1.0
  O  O131  1  0.02304219  0.38084713  0.05144961  1.0
  O  O132  1  0.81370204  0.63145065  0.43410527  1.0
  O  O133  1  0.18631279  0.36854595  0.93410863  1.0
  O  O134  1  0.04624259  0.74965842  0.55697789  1.0
  O  O135  1  0.95377773  0.25034056  0.05697995  1.0
  O  O136  1  0.87880173  0.76293813  0.44749753  1.0
  O  O137  1  0.12117179  0.23706616  0.94749731  1.0
  O  O138  1  0.31737652  0.63598582  0.56325118  1.0
  O  O139  1  0.68265353  0.36401186  0.06325510  1.0
  O  O140  1  0.17556107  0.68617679  0.45665505  1.0
  O  O141  1  0.82443794  0.31382737  0.95665840  1.0
  O  O142  1  0.54265686  0.74348655  0.42934273  1.0
  O  O143  1  0.45731688  0.25651815  0.92934095  1.0
  O  O144  1  0.47367909  0.61339052  0.44804236  1.0
  O  O145  1  0.52633774  0.38661190  0.94804653  1.0
  O  O146  1  0.67641836  0.68967304  0.53571134  1.0
  O  O147  1  0.32359435  0.31032719  0.03571624  1.0
  O  O148  1  0.17100799  0.02687653  0.20567340  1.0
  O  O149  1  0.82906549  0.97314714  0.70564588  1.0
  O  O150  1  0.24372101  0.16847528  0.18935995  1.0
  O  O151  1  0.75630699  0.83152480  0.68935356  1.0
  O  O152  1  0.74965114  0.37857366  0.21019794  1.0
  O  O153  1  0.25032435  0.62142587  0.71020123  1.0
  O  O154  1  0.02467637  0.37682083  0.31404053  1.0
  O  O155  1  0.97525763  0.62315517  0.81403249  1.0
