# generated using pymatgen
data_Zn4C40Br16N4O21
_symmetry_space_group_name_H-M   'P 1'
_cell_length_a   23.61716511
_cell_length_b   23.61708023
_cell_length_c   23.61637496
_cell_angle_alpha   113.78218329
_cell_angle_beta   107.36942515
_cell_angle_gamma   107.35232107
_symmetry_Int_Tables_number   1
_chemical_formula_structural   Zn4C40Br16N4O21
_chemical_formula_sum   'Zn8 C80 Br32 N8 O42'
_cell_volume   10096.49967590
_cell_formula_units_Z   2
loop_
 _symmetry_equiv_pos_site_id
 _symmetry_equiv_pos_as_xyz
  1  'x, y, z'
loop_
 _atom_site_type_symbol
 _atom_site_label
 _atom_site_symmetry_multiplicity
 _atom_site_fract_x
 _atom_site_fract_y
 _atom_site_fract_z
 _atom_site_occupancy
  Zn  Zn0  1  0.94109625  0.89961156  0.45708110  1.0
  Zn  Zn1  1  0.94110785  0.04150267  0.48401623  1.0
  Zn  Zn2  1  0.05887291  0.04289581  0.60038837  1.0
  Zn  Zn3  1  0.05886394  0.01596573  0.45851942  1.0
  Zn  Zn4  1  0.05744089  0.60034616  0.04147904  1.0
  Zn  Zn5  1  0.94248560  0.45847507  0.89958384  1.0
  Zn  Zn6  1  0.05746608  0.45710216  0.01597789  1.0
  Zn  Zn7  1  0.94252262  0.48401597  0.04291136  1.0
  C  C8  1  0.82080391  0.91044046  0.41042956  1.0
  C  C9  1  0.00000948  0.13598782  0.63598803  1.0
  C  C10  1  0.99999781  0.91069849  0.58929609  1.0
  C  C11  1  0.17918357  0.08958199  0.58961845  1.0
  C  C12  1  0.99998787  0.86401640  0.36400654  1.0
  C  C13  1  0.00000597  0.08930051  0.41071528  1.0
  C  C14  1  0.99997653  0.58955161  0.91036542  1.0
  C  C15  1  0.99998958  0.36401595  0.86401523  1.0
  C  C16  1  0.17857672  0.58929932  0.08929983  1.0
  C  C17  1  0.00001422  0.41038442  0.08957581  1.0
  C  C18  1  0.00000227  0.63597833  0.13598685  1.0
  C  C19  1  0.82138935  0.41066128  0.91068868  1.0
  C  C20  1  0.99999706  0.80544209  0.30543914  1.0
  C  C21  1  0.00000103  0.69455738  0.19456107  1.0
  C  C22  1  0.04369524  0.81961096  0.27804197  1.0
  C  C23  1  0.95843218  0.68038530  0.22408893  1.0
  C  C24  1  0.04155591  0.76565264  0.22194914  1.0
  C  C25  1  0.95629698  0.73434638  0.27590993  1.0
  C  C26  1  0.00000077  0.19455743  0.69456175  1.0
  C  C27  1  0.99999610  0.30544161  0.80544151  1.0
  C  C28  1  0.04370736  0.22408863  0.76567218  1.0
  C  C29  1  0.95841815  0.27803858  0.73433301  1.0
  C  C30  1  0.04157737  0.27592045  0.81962710  1.0
  C  C31  1  0.95629184  0.22195254  0.68037622  1.0
  C  C32  1  0.99997928  0.62754791  0.87236111  1.0
  C  C33  1  0.05948821  0.68732894  0.89640838  1.0
  C  C34  1  0.05936923  0.72318323  0.86151146  1.0
  C  C35  1  0.99995859  0.69901739  0.80091909  1.0
  C  C36  1  0.94055765  0.63844008  0.77674994  1.0
  C  C37  1  0.94046424  0.60352723  0.81258571  1.0
  C  C38  1  0.99994591  0.73466732  0.76525941  1.0
  C  C39  1  0.99996847  0.76550537  0.73446961  1.0
  C  C40  1  0.00000377  0.80117530  0.69883172  1.0
  C  C41  1  0.01765285  0.87349659  0.73476671  1.0
  C  C42  1  0.01717796  0.90871540  0.69920376  1.0
  C  C43  1  0.99999452  0.87266280  0.62732938  1.0
  C  C44  1  0.98281664  0.80079674  0.59127825  1.0
  C  C45  1  0.98236598  0.76524290  0.62650765  1.0
  C  C46  1  0.00005816  0.37240270  0.12759023  1.0
  C  C47  1  0.94056649  0.33691385  0.12786780  1.0
  C  C48  1  0.94072172  0.30214651  0.16385122  1.0
  C  C49  1  0.00016762  0.30102753  0.19911776  1.0
  C  C50  1  0.05955921  0.33627532  0.19793322  1.0
  C  C51  1  0.05960167  0.37218709  0.16309547  1.0
  C  C52  1  0.00019191  0.26539026  0.23478895  1.0
  C  C53  1  0.00015346  0.23456976  0.26559791  1.0
  C  C54  1  0.00009335  0.19887940  0.30121619  1.0
  C  C55  1  0.98240436  0.21713879  0.35586349  1.0
  C  C56  1  0.98283244  0.18202455  0.39153628  1.0
  C  C57  1  0.00001389  0.12733563  0.37267509  1.0
  C  C58  1  0.01721093  0.10847327  0.31799888  1.0
  C  C59  1  0.01771145  0.14418148  0.28292063  1.0
  C  C60  1  0.25465190  0.62733990  0.12734439  1.0
  C  C61  1  0.29046546  0.69921387  0.18202249  1.0
  C  C62  1  0.36125080  0.73478790  0.21710773  1.0
  C  C63  1  0.39764990  0.69886316  0.19882232  1.0
  C  C64  1  0.36126756  0.62653085  0.14417138  1.0
  C  C65  1  0.29047899  0.59129609  0.10849149  1.0
  C  C66  1  0.46895756  0.73454375  0.23445174  1.0
  C  C67  1  0.53058463  0.76538282  0.26526233  1.0
  C  C68  1  0.60189437  0.80102876  0.30092469  1.0
  C  C69  1  0.63832178  0.86160665  0.30211182  1.0
  C  C70  1  0.70907211  0.89649126  0.33692604  1.0
  C  C71  1  0.74480429  0.87245873  0.37242443  1.0
  C  C72  1  0.70905011  0.81268888  0.37215437  1.0
  C  C73  1  0.63829982  0.77685381  0.33617553  1.0
  C  C74  1  0.74531729  0.37261595  0.87264654  1.0
  C  C75  1  0.70949608  0.31792088  0.80077409  1.0
  C  C76  1  0.63871102  0.28280739  0.76521948  1.0
  C  C77  1  0.60232713  0.30108941  0.80115230  1.0
  C  C78  1  0.63872251  0.35581177  0.87346520  1.0
  C  C79  1  0.70950955  0.39150612  0.90869471  1.0
  C  C80  1  0.53101906  0.26540410  0.76552554  1.0
  C  C81  1  0.46939434  0.23456827  0.73473346  1.0
  C  C82  1  0.39808213  0.19892178  0.69906633  1.0
  C  C83  1  0.36168723  0.19779311  0.63849928  1.0
  C  C84  1  0.29093370  0.16303831  0.60360383  1.0
  C  C85  1  0.25517996  0.12756057  0.62762517  1.0
  C  C86  1  0.29091180  0.12778577  0.68738659  1.0
  C  C87  1  0.36166189  0.16368977  0.72322903  1.0
  Br  Br88  1  0.14086535  0.71721769  0.97378443  1.0
  Br  Br89  1  0.85910294  0.52618519  0.78271722  1.0
  Br  Br90  1  0.86232443  0.60701979  0.69569691  1.0
  Br  Br91  1  0.13758051  0.80424718  0.89297772  1.0
  Br  Br92  1  0.04131281  0.92004838  0.83113324  1.0
  Br  Br93  1  0.95871741  0.66888913  0.57996095  1.0
  Br  Br94  1  0.96313795  0.75228860  0.49577760  1.0
  Br  Br95  1  0.03685611  0.00421271  0.74770335  1.0
  Br  Br96  1  0.85916571  0.33284362  0.07635179  1.0
  Br  Br97  1  0.14094317  0.42367799  0.16707193  1.0
  Br  Br98  1  0.13783097  0.33351730  0.24475618  1.0
  Br  Br99  1  0.86252817  0.25536513  0.16671642  1.0
  Br  Br100  1  0.95875104  0.28984415  0.37875165  1.0
  Br  Br101  1  0.04141387  0.12128906  0.21025044  1.0
  Br  Br102  1  0.03687742  0.03264271  0.28918438  1.0
  Br  Br103  1  0.96312650  0.21084466  0.46733795  1.0
  Br  Br104  1  0.24345891  0.74771421  0.21082687  1.0
  Br  Br105  1  0.24349065  0.49578949  0.03268680  1.0
  Br  Br106  1  0.41107880  0.57998139  0.12128204  1.0
  Br  Br107  1  0.41103827  0.83116620  0.28977148  1.0
  Br  Br108  1  0.58871967  0.89305816  0.25531923  1.0
  Br  Br109  1  0.58867256  0.69578678  0.33330942  1.0
  Br  Br110  1  0.75652034  0.78281169  0.42366072  1.0
  Br  Br111  1  0.75656784  0.97383467  0.33292002  1.0
  Br  Br112  1  0.75650206  0.28911620  0.75227992  1.0
  Br  Br113  1  0.75650527  0.46733682  0.00419366  1.0
  Br  Br114  1  0.58891451  0.37873425  0.92000274  1.0
  Br  Br115  1  0.58889177  0.21007760  0.66885843  1.0
  Br  Br116  1  0.41131765  0.24455042  0.60705994  1.0
  Br  Br117  1  0.41127452  0.16647755  0.80427088  1.0
  Br  Br118  1  0.24341009  0.07631246  0.71725568  1.0
  Br  Br119  1  0.24347439  0.16707340  0.52625258  1.0
  N  N120  1  0.09508893  0.89324187  0.30904779  1.0
  N  N121  1  0.91580570  0.60675316  0.20185964  1.0
  N  N122  1  0.08417403  0.78604814  0.19094029  1.0
  N  N123  1  0.90488000  0.71394213  0.29811860  1.0
  N  N124  1  0.09512536  0.20186865  0.78608158  1.0
  N  N125  1  0.91578111  0.30903873  0.71392045  1.0
  N  N126  1  0.08421798  0.29816960  0.89327677  1.0
  N  N127  1  0.90488869  0.19093999  0.60672925  1.0
  O  O128  1  0.99997564  0.99998706  0.49999935  1.0
  O  O129  1  0.84989413  0.87420165  0.39198901  1.0
  O  O130  1  0.97706476  0.12944996  0.57658277  1.0
  O  O131  1  0.05459370  0.96628351  0.61587827  1.0
  O  O132  1  0.84991561  0.97578357  0.45797488  1.0
  O  O133  1  0.94539492  0.88411332  0.53369404  1.0
  O  O134  1  0.02295853  0.09954159  0.65239812  1.0
  O  O135  1  0.15007545  0.10801711  0.62584728  1.0
  O  O136  1  0.02296147  0.92342610  0.37056348  1.0
  O  O137  1  0.15007124  0.04203894  0.52427910  1.0
  O  O138  1  0.97700413  0.84760495  0.40042075  1.0
  O  O139  1  0.94540948  0.06129223  0.41170110  1.0
  O  O140  1  0.05460535  0.08830581  0.43874895  1.0
  O  O141  1  0.99995677  0.49997433  0.99997262  1.0
  O  O142  1  0.01776754  0.62578199  0.97570265  1.0
  O  O143  1  0.94712875  0.37053984  0.84760553  1.0
  O  O144  1  0.14957478  0.53371744  0.08831627  1.0
  O  O145  1  0.98217232  0.52421138  0.87413317  1.0
  O  O146  1  0.14955777  0.61586817  0.06126818  1.0
  O  O147  1  0.05285927  0.40047876  0.92342469  1.0
  O  O148  1  0.01780351  0.39195063  0.04202499  1.0
  O  O149  1  0.94717153  0.57658099  0.09957029  1.0
  O  O150  1  0.98220891  0.45791283  0.10801018  1.0
  O  O151  1  0.05284404  0.65239845  0.12942274  1.0
  O  O152  1  0.85038804  0.43868015  0.88410348  1.0
  O  O153  1  0.85041547  0.41166967  0.96629129  1.0
  O  O154  1  0.14253137  0.92206630  0.36808397  1.0
  O  O155  1  0.08616950  0.91716733  0.27130791  1.0
  O  O156  1  0.94601973  0.57794420  0.22050588  1.0
  O  O157  1  0.85414308  0.58281945  0.16900444  1.0
  O  O158  1  0.05395683  0.77445678  0.13190136  1.0
  O  O159  1  0.14583535  0.81487517  0.22867948  1.0
  O  O160  1  0.85742871  0.72551120  0.27946963  1.0
  O  O161  1  0.91378982  0.68511699  0.33095935  1.0
  O  O162  1  0.14256653  0.22049061  0.77450459  1.0
  O  O163  1  0.08622238  0.16903155  0.81490890  1.0
  O  O164  1  0.94598209  0.36806361  0.72550522  1.0
  O  O165  1  0.85411944  0.27130644  0.68508911  1.0
  O  O166  1  0.05401630  0.27955883  0.92210512  1.0
  O  O167  1  0.14587819  0.33099583  0.91720718  1.0
  O  O168  1  0.85745239  0.13191394  0.57790174  1.0
  O  O169  1  0.91378456  0.22867421  0.58280009  1.0
