# generated using pymatgen
data_Al4H28(C19O7)3
_symmetry_space_group_name_H-M   'P 1'
_cell_length_a   6.67695609
_cell_length_b   22.62685262
_cell_length_c   25.04863175
_cell_angle_alpha   72.27754361
_cell_angle_beta   89.80840702
_cell_angle_gamma   89.52950800
_symmetry_Int_Tables_number   1
_chemical_formula_structural   Al4H28(C19O7)3
_chemical_formula_sum   'Al4 H28 C57 O21'
_cell_volume   3604.59195587
_cell_formula_units_Z   1
loop_
 _symmetry_equiv_pos_site_id
 _symmetry_equiv_pos_as_xyz
  1  'x, y, z'
loop_
 _atom_site_type_symbol
 _atom_site_label
 _atom_site_symmetry_multiplicity
 _atom_site_fract_x
 _atom_site_fract_y
 _atom_site_fract_z
 _atom_site_occupancy
  Al  Al0  1  0.86753285  0.49986333  0.50007783  1.0
  Al  Al1  1  0.36758871  0.50038782  0.50013018  1.0
  Al  Al2  1  0.32194322  0.00045690  0.99943241  1.0
  Al  Al3  1  0.82224072  0.99975168  0.00005905  1.0
  H  H4  1  0.39685798  0.90528466  0.88687648  1.0
  H  H5  1  0.40513011  0.84244976  0.82084294  1.0
  H  H6  1  0.76412001  0.82220549  0.83540260  1.0
  H  H7  1  0.75778580  0.88787162  0.89905435  1.0
  H  H8  1  0.80197363  0.81889494  0.74761374  1.0
  H  H9  1  0.81129023  0.75359223  0.68542607  1.0
  H  H10  1  0.38904799  0.68157331  0.75196548  1.0
  H  H11  1  0.37970816  0.74683319  0.81421035  1.0
  H  H12  1  0.42637693  0.67789051  0.66405275  1.0
  H  H13  1  0.43101157  0.61205998  0.60053924  1.0
  H  H14  1  0.79230542  0.59443568  0.61379573  1.0
  H  H15  1  0.78545008  0.65771198  0.67947874  1.0
  H  H16  1  0.86694587  0.13227411  0.07765557  1.0
  H  H17  1  0.88440919  0.19964030  0.13900845  1.0
  H  H18  1  0.29633005  0.13767643  0.20288898  1.0
  H  H19  1  0.28673444  0.24410561  0.19904166  1.0
  H  H20  1  0.29683802  0.30917742  0.26151562  1.0
  H  H21  1  0.91657597  0.25837279  0.29884261  1.0
  H  H22  1  0.90751877  0.19488452  0.23479081  1.0
  H  H23  1  0.92659153  0.34944257  0.31187774  1.0
  H  H24  1  0.93255067  0.41123720  0.37848333  1.0
  H  H25  1  0.30305512  0.38069070  0.40894818  1.0
  H  H26  1  0.29727659  0.31479465  0.34593264  1.0
  H  H27  1  0.24279220  0.02015053  0.12997536  1.0
  H  H28  1  0.61691703  0.58160375  0.47752879  1.0
  H  H29  1  0.12059603  0.41854053  0.52013068  1.0
  H  H30  1  0.57282949  0.91884511  0.02402017  1.0
  H  H31  1  0.06881955  0.08128164  0.97446730  1.0
  C  C32  1  0.61696897  0.41470863  0.58650149  1.0
  C  C33  1  0.62094538  0.43703251  0.43751025  1.0
  C  C34  1  0.11713907  0.58572713  0.41367716  1.0
  C  C35  1  0.11362952  0.56273633  0.56303277  1.0
  C  C36  1  0.25933376  0.88681549  0.87512330  1.0
  C  C37  1  0.26287325  0.85119253  0.83869476  1.0
  C  C38  1  0.08529562  0.82723978  0.82350454  1.0
  C  C39  1  0.90321701  0.84125102  0.84565695  1.0
  C  C40  1  0.89868419  0.87740485  0.88166663  1.0
  C  C41  1  0.07701460  0.90015786  0.89707584  1.0
  C  C42  1  0.93019131  0.78814279  0.74950690  1.0
  C  C43  1  0.93536254  0.75107404  0.71427522  1.0
  C  C44  1  0.10076578  0.71229629  0.71372550  1.0
  C  C45  1  0.26102912  0.71240759  0.75004265  1.0
  C  C46  1  0.25578828  0.74943965  0.78529674  1.0
  C  C47  1  0.09035896  0.78820980  0.78585272  1.0
  C  C48  1  0.28697758  0.65877362  0.65407829  1.0
  C  C49  1  0.29054292  0.62254601  0.61812232  1.0
  C  C50  1  0.11178583  0.59974975  0.60299756  1.0
  C  C51  1  0.93004778  0.61305509  0.62524597  1.0
  C  C52  1  0.92733812  0.64889740  0.66148579  1.0
  C  C53  1  0.10530635  0.67297258  0.67631886  1.0
  C  C54  1  0.07773006  0.86408139  0.13772460  1.0
  C  C55  1  0.08446759  0.82030397  0.18102122  1.0
  C  C56  1  0.09220951  0.77229096  0.22822312  1.0
  C  C57  1  0.09977029  0.72798677  0.27154593  1.0
  C  C58  1  0.10725132  0.68003200  0.31880593  1.0
  C  C59  1  0.11361160  0.63629993  0.36213828  1.0
  C  C60  1  0.61622293  0.36400354  0.63793755  1.0
  C  C61  1  0.60977133  0.32024832  0.68121853  1.0
  C  C62  1  0.60143175  0.27227359  0.72839141  1.0
  C  C63  1  0.59183843  0.22796665  0.77164781  1.0
  C  C64  1  0.58234433  0.17993752  0.81876221  1.0
  C  C65  1  0.57394999  0.13619693  0.86202178  1.0
  C  C66  1  0.74146961  0.13459992  0.10480099  1.0
  C  C67  1  0.75052598  0.17225912  0.13937184  1.0
  C  C68  1  0.58894180  0.17556939  0.17451602  1.0
  C  C69  1  0.42077985  0.13909033  0.17418793  1.0
  C  C70  1  0.40966694  0.10051598  0.13997846  1.0
  C  C71  1  0.57186584  0.09889520  0.10389569  1.0
  C  C72  1  0.42515215  0.24676148  0.22121922  1.0
  C  C73  1  0.43084941  0.28333754  0.25681027  1.0
  C  C74  1  0.60744929  0.28902683  0.28535951  1.0
  C  C75  1  0.77875642  0.25678917  0.27607751  1.0
  C  C76  1  0.77396514  0.22077309  0.23989906  1.0
  C  C77  1  0.59665066  0.21477690  0.21193722  1.0
  C  C78  1  0.78992182  0.35477044  0.33400740  1.0
  C  C79  1  0.79399920  0.39003324  0.37076556  1.0
  C  C80  1  0.61822324  0.39975492  0.39780210  1.0
  C  C81  1  0.43898546  0.37318249  0.38760351  1.0
  C  C82  1  0.43648855  0.33699245  0.35167575  1.0
  C  C83  1  0.61151393  0.32716455  0.32383774  1.0
  C  C84  1  0.57101488  0.06248057  0.06320650  1.0
  C  C85  1  0.57089195  0.08555025  0.91338755  1.0
  C  C86  1  0.07374806  0.93717515  0.93703188  1.0
  C  C87  1  0.07468367  0.91477069  0.08640606  1.0
  C  C88  1  0.23368363  0.05856202  0.14865682  1.0
  O  O89  1  0.45175154  0.44970271  0.45541901  1.0
  O  O90  1  0.78728594  0.43284909  0.56510326  1.0
  O  O91  1  0.94437009  0.54695216  0.54846189  1.0
  O  O92  1  0.79134885  0.45268743  0.45150799  1.0
  O  O93  1  0.94729566  0.56689011  0.43505800  1.0
  O  O94  1  0.44589850  0.43572724  0.56733195  1.0
  O  O95  1  0.61693464  0.53699722  0.49438875  1.0
  O  O96  1  0.28881097  0.56542377  0.43297965  1.0
  O  O97  1  0.28388665  0.55053314  0.54545413  1.0
  O  O98  1  0.11875097  0.46338406  0.50567863  1.0
  O  O99  1  0.74098922  0.06618560  0.93470578  1.0
  O  O100  1  0.40183128  0.05077107  0.04522859  1.0
  O  O101  1  0.24479695  0.93583458  0.06664570  1.0
  O  O102  1  0.39967483  0.06552597  0.93280763  1.0
  O  O103  1  0.24273383  0.95089095  0.95361397  1.0
  O  O104  1  0.74129547  0.04761787  0.04788685  1.0
  O  O105  1  0.57255512  0.96324092  0.00584084  1.0
  O  O106  1  0.90278500  0.95152191  0.95256135  1.0
  O  O107  1  0.90367379  0.93332785  0.06543271  1.0
  O  O108  1  0.07088478  0.03718148  0.99403474  1.0
  O  O109  1  0.08700464  0.06460880  0.17630711  1.0
