# generated using pymatgen
data_CoH19C23(NO3)2
_symmetry_space_group_name_H-M   'P 1'
_cell_length_a   13.56279405
_cell_length_b   16.77810333
_cell_length_c   25.39792655
_cell_angle_alpha   90.00020092
_cell_angle_beta   90.00003961
_cell_angle_gamma   105.84400271
_symmetry_Int_Tables_number   1
_chemical_formula_structural   CoH19C23(NO3)2
_chemical_formula_sum   'Co8 H152 C184 N16 O48'
_cell_volume   5559.92904849
_cell_formula_units_Z   8
loop_
 _symmetry_equiv_pos_site_id
 _symmetry_equiv_pos_as_xyz
  1  'x, y, z'
loop_
 _atom_site_type_symbol
 _atom_site_label
 _atom_site_symmetry_multiplicity
 _atom_site_fract_x
 _atom_site_fract_y
 _atom_site_fract_z
 _atom_site_occupancy
  Co  Co0  1  0.89356353  0.90812285  0.71829529  1.0
  Co  Co1  1  0.74973715  0.73947384  0.75342864  1.0
  Co  Co2  1  0.10643911  0.59187782  0.21829530  1.0
  Co  Co3  1  0.25026791  0.76052952  0.25342831  1.0
  Co  Co4  1  0.10643846  0.09187695  0.28170580  1.0
  Co  Co5  1  0.25026042  0.26052162  0.24657087  1.0
  Co  Co6  1  0.89356004  0.40812012  0.78170579  1.0
  Co  Co7  1  0.74972976  0.23946841  0.74657081  1.0
  H  H8  1  0.08724891  0.31458087  0.71938470  1.0
  H  H9  1  0.57320343  0.83334559  0.79403833  1.0
  H  H10  1  0.07535763  0.00269338  0.77966287  1.0
  H  H11  1  0.17357049  0.15061922  0.79074665  1.0
  H  H12  1  0.97438905  0.21121714  0.67330775  1.0
  H  H13  1  0.88633636  0.06170109  0.66644322  1.0
  H  H14  1  0.14053459  0.41917819  0.77800300  1.0
  H  H15  1  0.24301140  0.43567851  0.73310213  1.0
  H  H16  1  0.36752379  0.45204168  0.80867881  1.0
  H  H17  1  0.26506701  0.42958967  0.85361826  1.0
  H  H18  1  0.21001634  0.55289128  0.81908487  1.0
  H  H19  1  0.31668492  0.57635688  0.77688147  1.0
  H  H20  1  0.43349033  0.59632531  0.85650258  1.0
  H  H21  1  0.32478485  0.57258060  0.89774369  1.0
  H  H22  1  0.27430840  0.69677888  0.86192673  1.0
  H  H23  1  0.39508506  0.72344783  0.89285136  1.0
  H  H24  1  0.47426716  0.71801009  0.80058242  1.0
  H  H25  1  0.35192976  0.71472971  0.77398416  1.0
  H  H26  1  0.42925586  0.99596416  0.79257223  1.0
  H  H27  1  0.52391979  0.14269735  0.77164750  1.0
  H  H28  1  0.80139680  0.08562984  0.76364605  1.0
  H  H29  1  0.72035958  0.93765992  0.78426997  1.0
  H  H30  1  0.04304281  0.85215341  0.89648245  1.0
  H  H31  1  0.02042138  0.86140618  0.99343486  1.0
  H  H32  1  0.73037377  0.91389749  0.96793493  1.0
  H  H33  1  0.75100226  0.89991115  0.87070887  1.0
  H  H34  1  0.02250971  0.97142606  0.09477541  1.0
  H  H35  1  0.11466971  0.89836254  0.15569685  1.0
  H  H36  1  0.89924865  0.66543091  0.11791450  1.0
  H  H37  1  0.80767328  0.73843957  0.05674186  1.0
  H  H38  1  0.82762600  0.63673819  0.90951766  1.0
  H  H39  1  0.79300800  0.58405180  0.00190019  1.0
  H  H40  1  0.52055549  0.66895805  0.00530839  1.0
  H  H41  1  0.55468467  0.71915958  0.91280144  1.0
  H  H42  1  0.64552235  0.72548560  0.11298932  1.0
  H  H43  1  0.50195087  0.74551150  0.16873166  1.0
  H  H44  1  0.31946449  0.50089330  0.12794337  1.0
  H  H45  1  0.46310567  0.48056452  0.07223410  1.0
  H  H46  1  0.91274968  0.18541892  0.21938483  1.0
  H  H47  1  0.42679368  0.66666667  0.29403824  1.0
  H  H48  1  0.92464149  0.49730553  0.27966413  1.0
  H  H49  1  0.82642898  0.34937852  0.29074713  1.0
  H  H50  1  0.02560992  0.28878175  0.17330543  1.0
  H  H51  1  0.11366279  0.43829838  0.16644246  1.0
  H  H52  1  0.85946494  0.08082195  0.27800326  1.0
  H  H53  1  0.75698830  0.06432012  0.23310152  1.0
  H  H54  1  0.63247521  0.04795679  0.30867852  1.0
  H  H55  1  0.73493236  0.07040968  0.35361766  1.0
  H  H56  1  0.78998548  0.94710875  0.31908399  1.0
  H  H57  1  0.68331602  0.92364290  0.27688089  1.0
  H  H58  1  0.56651014  0.90367495  0.35650191  1.0
  H  H59  1  0.67521629  0.92741929  0.39774272  1.0
  H  H60  1  0.72569167  0.80322017  0.36192589  1.0
  H  H61  1  0.60491385  0.77655203  0.39285080  1.0
  H  H62  1  0.52573144  0.78198921  0.30058184  1.0
  H  H63  1  0.64806854  0.78526881  0.27398363  1.0
  H  H64  1  0.57074345  0.50403509  0.29257260  1.0
  H  H65  1  0.47607824  0.35730275  0.27164591  1.0
  H  H66  1  0.19860469  0.41436960  0.26364527  1.0
  H  H67  1  0.27963770  0.56233990  0.28426958  1.0
  H  H68  1  0.95695727  0.64784770  0.39648211  1.0
  H  H69  1  0.97957765  0.63859367  0.49343451  1.0
  H  H70  1  0.26962738  0.58610654  0.46793381  1.0
  H  H71  1  0.24899877  0.60009291  0.37070817  1.0
  H  H72  1  0.97749125  0.52857448  0.59477533  1.0
  H  H73  1  0.88533240  0.60163898  0.65569848  1.0
  H  H74  1  0.10075428  0.83457101  0.61791442  1.0
  H  H75  1  0.19232797  0.76156198  0.55674007  1.0
  H  H76  1  0.17237433  0.86326362  0.40951872  1.0
  H  H77  1  0.20699200  0.91595066  0.50190152  1.0
  H  H78  1  0.47944411  0.83104319  0.50530805  1.0
  H  H79  1  0.44531525  0.78084101  0.41280043  1.0
  H  H80  1  0.35448003  0.77451691  0.61299116  1.0
  H  H81  1  0.49805223  0.75449073  0.66873194  1.0
  H  H82  1  0.68053806  0.99910744  0.62794310  1.0
  H  H83  1  0.53689580  0.01943562  0.57223423  1.0
  H  H84  1  0.91275223  0.68542078  0.28061481  1.0
  H  H85  1  0.42679646  0.16665235  0.20596236  1.0
  H  H86  1  0.92464035  0.99730765  0.22033585  1.0
  H  H87  1  0.82642928  0.84938057  0.20925247  1.0
  H  H88  1  0.02561545  0.78878575  0.32668940  1.0
  H  H89  1  0.11366467  0.93830242  0.33355472  1.0
  H  H90  1  0.85946466  0.58082222  0.22199809  1.0
  H  H91  1  0.75698901  0.56432315  0.26689817  1.0
  H  H92  1  0.63247651  0.54795749  0.19132228  1.0
  H  H93  1  0.73493277  0.57041012  0.14638283  1.0
  H  H94  1  0.78998491  0.44710851  0.18091661  1.0
  H  H95  1  0.68331633  0.42364291  0.22311962  1.0
  H  H96  1  0.56651039  0.40367511  0.14349851  1.0
  H  H97  1  0.67521735  0.42741981  0.10225739  1.0
  H  H98  1  0.72569095  0.30321967  0.13807357  1.0
  H  H99  1  0.60491345  0.27655259  0.10714855  1.0
  H  H100  1  0.52573072  0.28198846  0.19941710  1.0
  H  H101  1  0.64806780  0.28527009  0.22601614  1.0
  H  H102  1  0.57074371  0.00403501  0.20742728  1.0
  H  H103  1  0.47608178  0.85730120  0.22835319  1.0
  H  H104  1  0.19860572  0.91436934  0.23635504  1.0
  H  H105  1  0.27964073  0.06233925  0.21573112  1.0
  H  H106  1  0.95695929  0.14784452  0.10351903  1.0
  H  H107  1  0.97958039  0.13859300  0.00656584  1.0
  H  H108  1  0.26962990  0.08610292  0.03206576  1.0
  H  H109  1  0.24900099  0.10008802  0.12929221  1.0
  H  H110  1  0.97749060  0.02857311  0.90522450  1.0
  H  H111  1  0.88533375  0.10163725  0.84430188  1.0
  H  H112  1  0.10075334  0.33456888  0.88208541  1.0
  H  H113  1  0.19232576  0.26156022  0.94325884  1.0
  H  H114  1  0.17237115  0.36326036  0.09048067  1.0
  H  H115  1  0.20699219  0.41594923  0.99809893  1.0
  H  H116  1  0.47944397  0.33104298  0.99469269  1.0
  H  H117  1  0.44531268  0.28083959  0.08719926  1.0
  H  H118  1  0.35447890  0.27451419  0.88700980  1.0
  H  H119  1  0.49805111  0.25448829  0.83126785  1.0
  H  H120  1  0.68053656  0.49910587  0.87205772  1.0
  H  H121  1  0.53689390  0.51943465  0.92776659  1.0
  H  H122  1  0.08724936  0.81458088  0.78061547  1.0
  H  H123  1  0.57320504  0.33333333  0.70596206  1.0
  H  H124  1  0.07535787  0.50269302  0.72033578  1.0
  H  H125  1  0.17357070  0.65061880  0.70925199  1.0
  H  H126  1  0.97438965  0.71121743  0.82669172  1.0
  H  H127  1  0.88633719  0.56170203  0.83355665  1.0
  H  H128  1  0.14053462  0.91917722  0.72199743  1.0
  H  H129  1  0.24300979  0.93567905  0.76689799  1.0
  H  H130  1  0.36752288  0.95204239  0.69132178  1.0
  H  H131  1  0.26506594  0.92959011  0.64638263  1.0
  H  H132  1  0.21001356  0.05289104  0.68091631  1.0
  H  H133  1  0.31668228  0.07635689  0.72311941  1.0
  H  H134  1  0.43348869  0.09632422  0.64349839  1.0
  H  H135  1  0.32478254  0.07257989  0.60225757  1.0
  H  H136  1  0.27430832  0.19678025  0.63807363  1.0
  H  H137  1  0.39508551  0.22344652  0.60714793  1.0
  H  H138  1  0.47426854  0.21801120  0.69941767  1.0
  H  H139  1  0.35193091  0.21473222  0.72601588  1.0
  H  H140  1  0.42925748  0.49596594  0.70742730  1.0
  H  H141  1  0.52392311  0.64269953  0.72835203  1.0
  H  H142  1  0.80139562  0.58562958  0.73635503  1.0
  H  H143  1  0.72036081  0.43766051  0.71573111  1.0
  H  H144  1  0.04304198  0.35215271  0.60351819  1.0
  H  H145  1  0.02042139  0.36140613  0.50656579  1.0
  H  H146  1  0.73037450  0.41389512  0.53206570  1.0
  H  H147  1  0.75099995  0.39990813  0.62929213  1.0
  H  H148  1  0.02250873  0.47142593  0.40522458  1.0
  H  H149  1  0.11466906  0.39836143  0.34430221  1.0
  H  H150  1  0.89924518  0.16543002  0.38208548  1.0
  H  H151  1  0.80767222  0.23843906  0.44326023  1.0
  H  H152  1  0.82762670  0.13673989  0.59048040  1.0
  H  H153  1  0.79300692  0.08405099  0.49809799  1.0
  H  H154  1  0.52055419  0.16895660  0.49469225  1.0
  H  H155  1  0.55468526  0.21915878  0.58719908  1.0
  H  H156  1  0.64551859  0.22548165  0.38700953  1.0
  H  H157  1  0.50194734  0.24550845  0.33126836  1.0
  H  H158  1  0.31946024  0.00089235  0.37205681  1.0
  H  H159  1  0.46310208  0.98056294  0.42776567  1.0
  C  C160  1  0.05719921  0.05105581  0.75612557  1.0
  C  C161  1  0.11175632  0.13304914  0.76227185  1.0
  C  C162  1  0.08329267  0.19388488  0.73240215  1.0
  C  C163  1  0.00179243  0.16693552  0.69638972  1.0
  C  C164  1  0.95170758  0.08371681  0.69269028  1.0
  C  C165  1  0.20608943  0.31860548  0.77060150  1.0
  C  C166  1  0.21765302  0.41082025  0.77253838  1.0
  C  C167  1  0.28948103  0.45778199  0.81497144  1.0
  C  C168  1  0.28957197  0.54880874  0.81549443  1.0
  C  C169  1  0.35366624  0.60003357  0.85941068  1.0
  C  C170  1  0.35308524  0.69124769  0.85841740  1.0
  C  C171  1  0.40279666  0.73492786  0.80807831  1.0
  C  C172  1  0.42365486  0.82811404  0.81002504  1.0
  C  C173  1  0.56690783  0.95372140  0.78936998  1.0
  C  C174  1  0.51152706  0.01344579  0.78623752  1.0
  C  C175  1  0.56438150  0.09495507  0.77483669  1.0
  C  C176  1  0.71917261  0.06332677  0.77038790  1.0
  C  C177  1  0.67355691  0.98102708  0.78171468  1.0
  C  C178  1  0.91671326  0.87193032  0.82031854  1.0
  C  C179  1  0.89837354  0.87480280  0.87747399  1.0
  C  C180  1  0.97382748  0.86408778  0.91245362  1.0
  C  C181  1  0.96172525  0.86986908  0.96645252  1.0
  C  C182  1  0.87376177  0.88840753  0.98598444  1.0
  C  C183  1  0.79809611  0.89998844  0.95164069  1.0
  C  C184  1  0.81010331  0.89228246  0.89771856  1.0
  C  C185  1  0.91074190  0.85826938  0.07303114  1.0
  C  C186  1  0.99610059  0.90467200  0.10051259  1.0
  C  C187  1  0.04694813  0.86373675  0.13427142  1.0
  C  C188  1  0.01261833  0.77748201  0.14041276  1.0
  C  C189  1  0.92583414  0.73230175  0.11263266  1.0
  C  C190  1  0.87458537  0.77254278  0.07895396  1.0
  C  C191  1  0.06718342  0.73336232  0.17592349  1.0
  C  C192  1  0.70904832  0.70691048  0.84926555  1.0
  C  C193  1  0.69224923  0.68015960  0.90497715  1.0
  C  C194  1  0.76020040  0.64306220  0.93061859  1.0
  C  C195  1  0.74168809  0.61405692  0.98187864  1.0
  C  C196  1  0.65471205  0.62279374  0.00859682  1.0
  C  C197  1  0.58755988  0.66180245  0.98424343  1.0
  C  C198  1  0.60682606  0.68979157  0.93262783  1.0
  C  C199  1  0.55970059  0.60308895  0.08859347  1.0
  C  C200  1  0.57302088  0.67763042  0.11558356  1.0
  C  C201  1  0.49349176  0.68818324  0.14693139  1.0
  C  C202  1  0.40129385  0.62516064  0.15087020  1.0
  C  C203  1  0.39044355  0.55012479  0.12410021  1.0
  C  C204  1  0.46994533  0.53864649  0.09295673  1.0
  C  C205  1  0.31562050  0.63856744  0.18304960  1.0
  C  C206  1  0.94279741  0.44894234  0.25612672  1.0
  C  C207  1  0.88824232  0.36694843  0.26227279  1.0
  C  C208  1  0.91670798  0.30611437  0.23240138  1.0
  C  C209  1  0.99820567  0.33306289  0.19638865  1.0
  C  C210  1  0.04829177  0.41628095  0.19268984  1.0
  C  C211  1  0.79391208  0.18139400  0.27060119  1.0
  C  C212  1  0.78234608  0.08917862  0.27253785  1.0
  C  C213  1  0.71051853  0.04221589  0.31497117  1.0
  C  C214  1  0.71042890  0.95119065  0.31549392  1.0
  C  C215  1  0.64633382  0.89996546  0.35941003  1.0
  C  C216  1  0.64691503  0.80875196  0.35841693  1.0
  C  C217  1  0.59720196  0.76507149  0.30807772  1.0
  C  C218  1  0.57634283  0.67188469  0.31002501  1.0
  C  C219  1  0.43309020  0.54627845  0.28936882  1.0
  C  C220  1  0.48847427  0.48655750  0.28623701  1.0
  C  C221  1  0.43561938  0.40504691  0.27483637  1.0
  C  C222  1  0.28082689  0.43667332  0.27038602  1.0
  C  C223  1  0.32644057  0.51897335  0.28171382  1.0
  C  C224  1  0.08328782  0.62807405  0.32031981  1.0
  C  C225  1  0.10162574  0.62519821  0.37747447  1.0
  C  C226  1  0.02617192  0.63591343  0.41245370  1.0
  C  C227  1  0.03827349  0.63012998  0.46645181  1.0
  C  C228  1  0.12623766  0.61159350  0.48598371  1.0
  C  C229  1  0.20190489  0.60001301  0.45163878  1.0
  C  C230  1  0.18989624  0.60771928  0.39771707  1.0
  C  C231  1  0.08925899  0.64173102  0.57303022  1.0
  C  C232  1  0.00390134  0.59532920  0.60051389  1.0
  C  C233  1  0.95305359  0.63626589  0.63427198  1.0
  C  C234  1  0.98738583  0.72252128  0.64041157  1.0
  C  C235  1  0.07417046  0.76770076  0.61263202  1.0
  C  C236  1  0.12541764  0.72745952  0.57895325  1.0
  C  C237  1  0.93282717  0.76664677  0.67592199  1.0
  C  C238  1  0.29094823  0.79308912  0.34926413  1.0
  C  C239  1  0.30774898  0.81984033  0.40497777  1.0
  C  C240  1  0.23980032  0.85693850  0.43062044  1.0
  C  C241  1  0.25831206  0.88594409  0.48188018  1.0
  C  C242  1  0.34529072  0.87720814  0.50859811  1.0
  C  C243  1  0.41243976  0.83819920  0.48424412  1.0
  C  C244  1  0.39317351  0.81020791  0.43262806  1.0
  C  C245  1  0.44030109  0.89691155  0.58859405  1.0
  C  C246  1  0.42698236  0.82237025  0.61558436  1.0
  C  C247  1  0.50651201  0.81181885  0.64693219  1.0
  C  C248  1  0.59871424  0.87484334  0.65086882  1.0
  C  C249  1  0.60955919  0.94987654  0.62409941  1.0
  C  C250  1  0.53005510  0.96135465  0.59295749  1.0
  C  C251  1  0.68438759  0.86143859  0.68304862  1.0
  C  C252  1  0.94280045  0.94894584  0.24387276  1.0
  C  C253  1  0.88824503  0.86695313  0.23772609  1.0
  C  C254  1  0.91671068  0.80611678  0.26759618  1.0
  C  C255  1  0.99821113  0.83306676  0.30360704  1.0
  C  C256  1  0.04829556  0.91628422  0.30730766  1.0
  C  C257  1  0.79391129  0.68139493  0.22939840  1.0
  C  C258  1  0.78234623  0.58918016  0.22746231  1.0
  C  C259  1  0.71051928  0.54221718  0.18502964  1.0
  C  C260  1  0.71042907  0.45119044  0.18450705  1.0
  C  C261  1  0.64633427  0.39996622  0.14059001  1.0
  C  C262  1  0.64691359  0.30875149  0.14158290  1.0
  C  C263  1  0.59720048  0.26507069  0.19192120  1.0
  C  C264  1  0.57634355  0.17188389  0.18997526  1.0
  C  C265  1  0.43309227  0.04627716  0.21062993  1.0
  C  C266  1  0.48847419  0.98655401  0.21376278  1.0
  C  C267  1  0.43561933  0.90504348  0.22516361  1.0
  C  C268  1  0.28082917  0.93667240  0.22961398  1.0
  C  C269  1  0.32644287  0.01897272  0.21828680  1.0
  C  C270  1  0.08328725  0.12806947  0.17968215  1.0
  C  C271  1  0.10163004  0.12519514  0.12252710  1.0
  C  C272  1  0.02617326  0.13590829  0.08754668  1.0
  C  C273  1  0.03827538  0.13012885  0.03354896  1.0
  C  C274  1  0.12623948  0.11159226  0.01401626  1.0
  C  C275  1  0.20190746  0.10000949  0.04836001  1.0
  C  C276  1  0.18989952  0.10771548  0.10228134  1.0
  C  C277  1  0.08925672  0.14172917  0.92696955  1.0
  C  C278  1  0.00390235  0.09532842  0.89948811  1.0
  C  C279  1  0.95305386  0.13626304  0.86572809  1.0
  C  C280  1  0.98738292  0.22251778  0.85958832  1.0
  C  C281  1  0.07416585  0.26769866  0.88736843  1.0
  C  C282  1  0.12541535  0.22745763  0.92104752  1.0
  C  C283  1  0.93281857  0.26663747  0.82407681  1.0
  C  C284  1  0.29094682  0.29308869  0.15073278  1.0
  C  C285  1  0.30774844  0.31983833  0.09502078  1.0
  C  C286  1  0.23979811  0.35693821  0.06937974  1.0
  C  C287  1  0.25830958  0.38594101  0.01811969  1.0
  C  C288  1  0.34528835  0.37720791  0.99140309  1.0
  C  C289  1  0.41244073  0.33819982  0.01575609  1.0
  C  C290  1  0.39317109  0.31020699  0.06737168  1.0
  C  C291  1  0.44029919  0.39691084  0.91140644  1.0
  C  C292  1  0.42697942  0.32236875  0.88441596  1.0
  C  C293  1  0.50650875  0.31181655  0.85306891  1.0
  C  C294  1  0.59870740  0.37483915  0.84913049  1.0
  C  C295  1  0.60955623  0.44987500  0.87590048  1.0
  C  C296  1  0.53005477  0.46135206  0.90704318  1.0
  C  C297  1  0.68437948  0.36143297  0.81695070  1.0
  C  C298  1  0.05720163  0.55105746  0.74387319  1.0
  C  C299  1  0.11175724  0.63305075  0.73772673  1.0
  C  C300  1  0.08329443  0.69388666  0.76759734  1.0
  C  C301  1  0.00179526  0.66693814  0.80360968  1.0
  C  C302  1  0.95170895  0.58371946  0.80730967  1.0
  C  C303  1  0.20609106  0.81860704  0.72939833  1.0
  C  C304  1  0.21765296  0.91082117  0.72746166  1.0
  C  C305  1  0.28947956  0.95778328  0.68502913  1.0
  C  C306  1  0.28956940  0.04880914  0.68450638  1.0
  C  C307  1  0.35366501  0.10003371  0.64059027  1.0
  C  C308  1  0.35308569  0.19124845  0.64158258  1.0
  C  C309  1  0.40279897  0.23492955  0.69192140  1.0
  C  C310  1  0.42365695  0.32811510  0.68997489  1.0
  C  C311  1  0.56690883  0.45372134  0.71063148  1.0
  C  C312  1  0.51152781  0.51344477  0.71376329  1.0
  C  C313  1  0.56438123  0.59495536  0.72516235  1.0
  C  C314  1  0.71917288  0.56332647  0.72961389  1.0
  C  C315  1  0.67355835  0.48102830  0.71828648  1.0
  C  C316  1  0.91671069  0.37192636  0.67968049  1.0
  C  C317  1  0.89837203  0.37480220  0.62252583  1.0
  C  C318  1  0.97382943  0.36408884  0.58754581  1.0
  C  C319  1  0.96172681  0.36986919  0.53354810  1.0
  C  C320  1  0.87376274  0.38840815  0.51401659  1.0
  C  C321  1  0.79809604  0.39998802  0.54836033  1.0
  C  C322  1  0.81010227  0.39228113  0.60228205  1.0
  C  C323  1  0.91074362  0.35827063  0.42696969  1.0
  C  C324  1  0.99609865  0.40467121  0.39948641  1.0
  C  C325  1  0.04694639  0.36373453  0.36572832  1.0
  C  C326  1  0.01261374  0.27747789  0.35958834  1.0
  C  C327  1  0.92582994  0.23230090  0.38736867  1.0
  C  C328  1  0.87458297  0.27254275  0.42104705  1.0
  C  C329  1  0.06717240  0.23335241  0.32407910  1.0
  C  C330  1  0.70905122  0.20691192  0.65073577  1.0
  C  C331  1  0.69225121  0.18016070  0.59502292  1.0
  C  C332  1  0.76020041  0.14306191  0.56937907  1.0
  C  C333  1  0.74168855  0.11405818  0.51811933  1.0
  C  C334  1  0.65470927  0.12279227  0.49140219  1.0
  C  C335  1  0.58755896  0.16180183  0.51575696  1.0
  C  C336  1  0.60682585  0.18979064  0.56737263  1.0
  C  C337  1  0.55969774  0.10308762  0.41140703  1.0
  C  C338  1  0.57301700  0.17762831  0.38441555  1.0
  C  C339  1  0.49348703  0.18818094  0.35306850  1.0
  C  C340  1  0.40128438  0.12515522  0.34913187  1.0
  C  C341  1  0.39044111  0.05012263  0.37590089  1.0
  C  C342  1  0.46994247  0.03864514  0.40704438  1.0
  C  C343  1  0.31561124  0.13856059  0.31695247  1.0
  N  N344  1  0.97771499  0.02524931  0.72227728  1.0
  N  N345  1  0.12592258  0.27776244  0.73815076  1.0
  N  N346  1  0.52426659  0.86976644  0.79786545  1.0
  N  N347  1  0.66640423  0.12072601  0.76686995  1.0
  N  N348  1  0.02227983  0.47474802  0.22227736  1.0
  N  N349  1  0.87407587  0.22223684  0.23814978  1.0
  N  N350  1  0.47573074  0.63023347  0.29786569  1.0
  N  N351  1  0.33359863  0.37927530  0.26686953  1.0
  N  N352  1  0.02228624  0.97475482  0.27772105  1.0
  N  N353  1  0.87407930  0.72223921  0.26184796  1.0
  N  N354  1  0.47573372  0.13023274  0.20213406  1.0
  N  N355  1  0.33359976  0.87927317  0.23313035  1.0
  N  N356  1  0.97771794  0.52525239  0.77772215  1.0
  N  N357  1  0.12592432  0.77776420  0.76184895  1.0
  N  N358  1  0.52426735  0.36976571  0.70213461  1.0
  N  N359  1  0.66640136  0.62072511  0.73312998  1.0
  O  O360  1  0.26002235  0.28315159  0.79530073  1.0
  O  O361  1  0.35797812  0.86394214  0.82077437  1.0
  O  O362  1  0.84013511  0.87163652  0.78843797  1.0
  O  O363  1  0.00374947  0.87367641  0.80262874  1.0
  O  O364  1  0.85874411  0.89809069  0.03894729  1.0
  O  O365  1  0.03790529  0.65380440  0.17493985  1.0
  O  O366  1  0.13909994  0.77583117  0.20483458  1.0
  O  O367  1  0.64458257  0.73585136  0.82458994  1.0
  O  O368  1  0.78993247  0.69970399  0.82524628  1.0
  O  O369  1  0.64052276  0.59036123  0.05860952  1.0
  O  O370  1  0.22760465  0.58615184  0.17817629  1.0
  O  O371  1  0.33558333  0.70174762  0.21348720  1.0
  O  O372  1  0.73997830  0.21684741  0.29530008  1.0
  O  O373  1  0.64201813  0.63605666  0.32077429  1.0
  O  O374  1  0.15987237  0.62837386  0.28844281  1.0
  O  O375  1  0.99625082  0.62632352  0.30263034  1.0
  O  O376  1  0.14125298  0.60190951  0.53894630  1.0
  O  O377  1  0.96209844  0.84620405  0.67494405  1.0
  O  O378  1  0.86090843  0.72417561  0.70483058  1.0
  O  O379  1  0.35541358  0.76414933  0.32458650  1.0
  O  O380  1  0.21006799  0.80029856  0.32524130  1.0
  O  O381  1  0.35947902  0.90963971  0.55861011  1.0
  O  O382  1  0.77240606  0.91385106  0.67817861  1.0
  O  O383  1  0.66441580  0.79825797  0.71348528  1.0
  O  O384  1  0.73997711  0.71684944  0.20469917  1.0
  O  O385  1  0.64202124  0.13605641  0.17922593  1.0
  O  O386  1  0.15986487  0.12836390  0.21156351  1.0
  O  O387  1  0.99625178  0.12632338  0.19737116  1.0
  O  O388  1  0.14125546  0.10190848  0.96105301  1.0
  O  O389  1  0.96209669  0.34619539  0.82505966  1.0
  O  O390  1  0.86090184  0.22416800  0.79516533  1.0
  O  O391  1  0.35541268  0.26414596  0.17540800  1.0
  O  O392  1  0.21006330  0.30029704  0.17475245  1.0
  O  O393  1  0.35947680  0.40963794  0.94138999  1.0
  O  O394  1  0.77239501  0.41384981  0.82182480  1.0
  O  O395  1  0.66441739  0.29825279  0.78651428  1.0
  O  O396  1  0.26002295  0.78315238  0.70469903  1.0
  O  O397  1  0.35798038  0.36394375  0.67922601  1.0
  O  O398  1  0.84012646  0.37162531  0.71155749  1.0
  O  O399  1  0.00374759  0.37367442  0.69736878  1.0
  O  O400  1  0.85874669  0.39809214  0.46105322  1.0
  O  O401  1  0.03790281  0.15379574  0.32505664  1.0
  O  O402  1  0.13909229  0.27582481  0.29517050  1.0
  O  O403  1  0.64458703  0.23585295  0.67541261  1.0
  O  O404  1  0.78993220  0.19970247  0.67475861  1.0
  O  O405  1  0.64051812  0.09035885  0.44139058  1.0
  O  O406  1  0.22759266  0.08614997  0.32182248  1.0
  O  O407  1  0.33558450  0.20174120  0.28651581  1.0
