# generated using pymatgen
data_Al2H14C24O11
_symmetry_space_group_name_H-M   'P 1'
_cell_length_a   6.69417708
_cell_length_b   17.14296591
_cell_length_c   19.55923453
_cell_angle_alpha   108.13799986
_cell_angle_beta   89.99969082
_cell_angle_gamma   89.99947108
_symmetry_Int_Tables_number   1
_chemical_formula_structural   Al2H14C24O11
_chemical_formula_sum   'Al4 H28 C48 O22'
_cell_volume   2133.04526472
_cell_formula_units_Z   2
loop_
 _symmetry_equiv_pos_site_id
 _symmetry_equiv_pos_as_xyz
  1  'x, y, z'
loop_
 _atom_site_type_symbol
 _atom_site_label
 _atom_site_symmetry_multiplicity
 _atom_site_fract_x
 _atom_site_fract_y
 _atom_site_fract_z
 _atom_site_occupancy
  Al  Al0  1  0.89930406  0.50210813  0.50158855  1.0
  Al  Al1  1  0.39930241  0.49789568  0.49840899  1.0
  Al  Al2  1  0.36506231  0.99848582  0.99941219  1.0
  Al  Al3  1  0.86506076  0.00151683  0.00058653  1.0
  H  H4  1  0.42597190  0.18937917  0.19006345  1.0
  H  H5  1  0.92597496  0.81060493  0.80993648  1.0
  H  H6  1  0.96709725  0.20064904  0.20131757  1.0
  H  H7  1  0.46709422  0.79935802  0.79868189  1.0
  H  H8  1  0.43908462  0.30176823  0.30490864  1.0
  H  H9  1  0.93906711  0.69822206  0.69508916  1.0
  H  H10  1  0.97896877  0.30301803  0.30138308  1.0
  H  H11  1  0.47895228  0.69697426  0.69861942  1.0
  H  H12  1  0.85911771  0.41508837  0.67486254  1.0
  H  H13  1  0.35910546  0.58491706  0.32513569  1.0
  H  H14  1  0.43422139  0.31386918  0.59774402  1.0
  H  H15  1  0.93420397  0.68613300  0.40225605  1.0
  H  H16  1  0.58606721  0.20639492  0.64341114  1.0
  H  H17  1  0.08606345  0.79360349  0.35658640  1.0
  H  H18  1  0.57500982  0.12245390  0.72579680  1.0
  H  H19  1  0.07500610  0.87754784  0.27420349  1.0
  H  H20  1  0.40780283  0.08525538  0.82525314  1.0
  H  H21  1  0.90780050  0.91474928  0.17474866  1.0
  H  H22  1  0.83368508  0.18736554  0.90303855  1.0
  H  H23  1  0.33369391  0.81263734  0.09695867  1.0
  H  H24  1  0.69089640  0.37804810  0.77477884  1.0
  H  H25  1  0.19089558  0.62195476  0.22521621  1.0
  H  H26  1  0.54671113  0.32608406  0.85866098  1.0
  H  H27  1  0.04671979  0.67392171  0.14133194  1.0
  H  H28  1  0.65550059  0.39216204  0.48032511  1.0
  H  H29  1  0.15549703  0.60784163  0.51968027  1.0
  H  H30  1  0.61030419  0.10640002  0.01144909  1.0
  H  H31  1  0.11030741  0.89360415  0.98855539  1.0
  C  C32  1  0.64851152  0.58239037  0.41925029  1.0
  C  C33  1  0.14851724  0.41761287  0.58074867  1.0
  C  C34  1  0.64567455  0.61334532  0.61133725  1.0
  C  C35  1  0.14567614  0.38665342  0.38866383  1.0
  C  C36  1  0.28396752  0.21431154  0.21507975  1.0
  C  C37  1  0.78395936  0.78568023  0.78492345  1.0
  C  C38  1  0.11565160  0.18020054  0.18044699  1.0
  C  C39  1  0.61566334  0.81979823  0.81955205  1.0
  C  C40  1  0.29164037  0.28096293  0.28253307  1.0
  C  C41  1  0.79163418  0.71903138  0.71746744  1.0
  C  C42  1  0.13139458  0.31963570  0.31989814  1.0
  C  C43  1  0.63137157  0.68035749  0.68010187  1.0
  C  C44  1  0.98234000  0.37456303  0.67759711  1.0
  C  C45  1  0.48233169  0.62544199  0.32240174  1.0
  C  C46  1  0.14695465  0.36885564  0.63212222  1.0
  C  C47  1  0.64694452  0.63114762  0.36787675  1.0
  C  C48  1  0.30733769  0.31699868  0.63346543  1.0
  C  C49  1  0.80732384  0.68300412  0.36653457  1.0
  C  C50  1  0.30318632  0.26808671  0.67920234  1.0
  C  C51  1  0.80317994  0.73191399  0.32079658  1.0
  C  C52  1  0.13740452  0.27485841  0.72682916  1.0
  C  C53  1  0.63740194  0.72514336  0.27316876  1.0
  C  C54  1  0.97620328  0.32964000  0.72654187  1.0
  C  C55  1  0.47619656  0.67036235  0.27345591  1.0
  C  C56  1  0.45991398  0.21120424  0.67984229  1.0
  C  C57  1  0.95990978  0.78879466  0.32015713  1.0
  C  C58  1  0.45368169  0.16475257  0.72523406  1.0
  C  C59  1  0.95367750  0.83524893  0.27476433  1.0
  C  C60  1  0.29080390  0.17129537  0.77441001  1.0
  C  C61  1  0.79080951  0.82870775  0.22558898  1.0
  C  C62  1  0.13116327  0.22687581  0.77442805  1.0
  C  C63  1  0.63116967  0.77312850  0.22557206  1.0
  C  C64  1  0.96613181  0.23329711  0.82230018  1.0
  C  C65  1  0.46613859  0.76670629  0.17769711  1.0
  C  C66  1  0.80839282  0.29028060  0.82151641  1.0
  C  C67  1  0.30839742  0.70972324  0.17847984  1.0
  C  C68  1  0.81357346  0.33627631  0.77546399  1.0
  C  C69  1  0.31357355  0.66372768  0.22453278  1.0
  C  C70  1  0.28452377  0.12593030  0.82295163  1.0
  C  C71  1  0.78452498  0.87407304  0.17704792  1.0
  C  C72  1  0.12036729  0.13169870  0.86849647  1.0
  C  C73  1  0.62036628  0.86830396  0.13150206  1.0
  C  C74  1  0.96078837  0.18415076  0.86760000  1.0
  C  C75  1  0.46079513  0.81585304  0.13239839  1.0
  C  C76  1  0.61741461  0.88689993  0.88857702  1.0
  C  C77  1  0.11740935  0.11310315  0.11142099  1.0
  C  C78  1  0.61686775  0.91746646  0.08051628  1.0
  C  C79  1  0.11686571  0.08253683  0.91948065  1.0
  O  O80  1  0.47821899  0.58564632  0.58245171  1.0
  O  O81  1  0.97822914  0.41436239  0.41753915  1.0
  O  O82  1  0.81789299  0.56776891  0.44243012  1.0
  O  O83  1  0.31791080  0.43224501  0.55757692  1.0
  O  O84  1  0.81812181  0.58884131  0.58585199  1.0
  O  O85  1  0.31812864  0.41115375  0.41415112  1.0
  O  O86  1  0.97925412  0.43988700  0.56355871  1.0
  O  O87  1  0.47924205  0.56010765  0.43643201  1.0
  O  O88  1  0.65091997  0.45132990  0.49268418  1.0
  O  O89  1  0.15091596  0.54867299  0.50731210  1.0
  O  O90  1  0.78551131  0.93912895  0.06231686  1.0
  O  O91  1  0.28551230  0.06087136  0.93767730  1.0
  O  O92  1  0.44559326  0.91162614  0.91502690  1.0
  O  O93  1  0.94558321  0.08837434  0.08497687  1.0
  O  O94  1  0.44665121  0.93299457  0.05854402  1.0
  O  O95  1  0.94665697  0.06701138  0.94145873  1.0
  O  O96  1  0.28572320  0.08595502  0.08354226  1.0
  O  O97  1  0.78573213  0.91405072  0.91645410  1.0
  O  O98  1  0.61376884  0.04875263  0.00752632  1.0
  O  O99  1  0.11377118  0.95125105  0.99247170  1.0
  O  O100  1  0.65556709  0.29353968  0.86869338  1.0
  O  O101  1  0.15557842  0.70646382  0.13129967  1.0
