# generated using pymatgen
data_ZnH22C18N11O4
_symmetry_space_group_name_H-M   'P 1'
_cell_length_a   11.10842087
_cell_length_b   16.53922153
_cell_length_c   17.79678151
_cell_angle_alpha   94.98373134
_cell_angle_beta   90.84233145
_cell_angle_gamma   92.00089934
_symmetry_Int_Tables_number   1
_chemical_formula_structural   ZnH22C18N11O4
_chemical_formula_sum   'Zn2 H44 C36 N22 O8'
_cell_volume   3254.84318613
_cell_formula_units_Z   2
loop_
 _symmetry_equiv_pos_site_id
 _symmetry_equiv_pos_as_xyz
  1  'x, y, z'
loop_
 _atom_site_type_symbol
 _atom_site_label
 _atom_site_symmetry_multiplicity
 _atom_site_fract_x
 _atom_site_fract_y
 _atom_site_fract_z
 _atom_site_occupancy
  Zn  Zn0  1  0.49956777  0.41127321  0.49424851  1.0
  Zn  Zn1  1  0.50938646  0.58840558  0.50339761  1.0
  H  H2  1  0.62348362  0.99686591  0.52219609  1.0
  H  H3  1  0.35434180  0.00905663  0.48858826  1.0
  H  H4  1  0.40587516  0.42489240  0.00703867  1.0
  H  H5  1  0.58377440  0.56941166  0.99550082  1.0
  H  H6  1  0.68596801  0.66339514  0.58453986  1.0
  H  H7  1  0.71749250  0.75685735  0.63399829  1.0
  H  H8  1  0.66444160  0.94874105  0.61487829  1.0
  H  H9  1  0.76286410  0.87565367  0.59903167  1.0
  H  H10  1  0.35128042  0.64664179  0.41895428  1.0
  H  H11  1  0.26848788  0.72675930  0.41293116  1.0
  H  H12  1  0.32134565  0.83417598  0.37073029  1.0
  H  H13  1  0.27741303  0.90098349  0.43878698  1.0
  H  H14  1  0.69570616  0.15693133  0.61857387  1.0
  H  H15  1  0.57069567  0.11764458  0.65254824  1.0
  H  H16  1  0.61707771  0.35406027  0.60197194  1.0
  H  H17  1  0.64436960  0.27119217  0.64510412  1.0
  H  H18  1  0.35902751  0.05035571  0.37865037  1.0
  H  H19  1  0.34890835  0.13280692  0.33299797  1.0
  H  H20  1  0.38685839  0.33540273  0.37626390  1.0
  H  H21  1  0.30073828  0.24666806  0.35515417  1.0
  H  H22  1  0.55553289  0.34587258  0.30793423  1.0
  H  H23  1  0.61023348  0.30887022  0.22490389  1.0
  H  H24  1  0.54731292  0.33337181  0.05087748  1.0
  H  H25  1  0.50353538  0.28717857  0.12804919  1.0
  H  H26  1  0.52461126  0.63609144  0.32486225  1.0
  H  H27  1  0.44085001  0.67333476  0.25799731  1.0
  H  H28  1  0.43762106  0.63027974  0.07064754  1.0
  H  H29  1  0.49217241  0.68223329  0.15131114  1.0
  H  H30  1  0.42373118  0.35598363  0.92110786  1.0
  H  H31  1  0.48043661  0.31666491  0.83923183  1.0
  H  H32  1  0.44022293  0.36586074  0.67172160  1.0
  H  H33  1  0.36985672  0.33391749  0.74729862  1.0
  H  H34  1  0.50900388  0.66368627  0.95157782  1.0
  H  H35  1  0.48519568  0.70726688  0.87120026  1.0
  H  H36  1  0.51814462  0.65737991  0.68928347  1.0
  H  H37  1  0.58376768  0.69837154  0.77187551  1.0
  H  H38  1  0.22384207  0.64563601  0.52111328  1.0
  H  H39  1  0.09417299  0.68939549  0.54968780  1.0
  H  H40  1  0.78607068  0.35301740  0.50012079  1.0
  H  H41  1  0.91783848  0.31100189  0.52507789  1.0
  H  H42  1  0.80873142  0.64959925  0.49203104  1.0
  H  H43  1  0.94639575  0.68947966  0.47121696  1.0
  H  H44  1  0.20238038  0.34874956  0.48370958  1.0
  H  H45  1  0.06373662  0.30655161  0.45483932  1.0
  C  C46  1  0.51598160  0.49215676  0.34922557  1.0
  C  C47  1  0.26686573  0.49681549  0.49618425  1.0
  C  C48  1  0.49283995  0.50864405  0.64796310  1.0
  C  C49  1  0.74291269  0.50205568  0.50184607  1.0
  C  C50  1  0.43168733  0.75373967  0.46179252  1.0
  C  C51  1  0.42842804  0.83897470  0.46434402  1.0
  C  C52  1  0.51389286  0.88600812  0.51090821  1.0
  C  C53  1  0.59323289  0.84579949  0.55621713  1.0
  C  C54  1  0.58864479  0.76012364  0.55216455  1.0
  C  C55  1  0.53137922  0.97340981  0.51076703  1.0
  C  C56  1  0.44849142  0.02856206  0.49853475  1.0
  C  C57  1  0.41290555  0.15465037  0.44057991  1.0
  C  C58  1  0.47270364  0.11598465  0.49672371  1.0
  C  C59  1  0.54942237  0.16266424  0.54900296  1.0
  C  C60  1  0.55921627  0.24713479  0.54480127  1.0
  C  C61  1  0.42431724  0.24007524  0.44111685  1.0
  C  C62  1  0.51850095  0.48947400  0.26592885  1.0
  C  C63  1  0.51070408  0.56254538  0.22908434  1.0
  C  C64  1  0.50062351  0.55905359  0.14971897  1.0
  C  C65  1  0.49294751  0.48346374  0.10642375  1.0
  C  C66  1  0.50432551  0.41134626  0.14266462  1.0
  C  C67  1  0.52176274  0.41362312  0.22120257  1.0
  C  C68  1  0.46985901  0.47485947  0.02492755  1.0
  C  C69  1  0.51962644  0.52107201  0.97344173  1.0
  C  C70  1  0.51104578  0.58662248  0.85536027  1.0
  C  C71  1  0.50204158  0.51419504  0.89179563  1.0
  C  C72  1  0.48166010  0.43942763  0.84713838  1.0
  C  C73  1  0.47130386  0.43799595  0.76801618  1.0
  C  C74  1  0.48865506  0.51070224  0.73112593  1.0
  C  C75  1  0.50674880  0.58579045  0.77610015  1.0
  C  C76  1  0.13379856  0.49861388  0.49880675  1.0
  C  C77  1  0.87600517  0.50115258  0.49923942  1.0
  C  C78  1  0.07380026  0.57363039  0.50420686  1.0
  C  C79  1  0.93559421  0.42620697  0.49614902  1.0
  C  C80  1  0.94726242  0.57479152  0.50149124  1.0
  C  C81  1  0.06322695  0.42494512  0.49429278  1.0
  N  N82  1  0.51075634  0.71515642  0.50434370  1.0
  N  N83  1  0.49678994  0.28494314  0.49226240  1.0
  N  N84  1  0.66092780  0.72142483  0.59922805  1.0
  N  N85  1  0.67473119  0.88759523  0.60908701  1.0
  N  N86  1  0.35465857  0.70731536  0.41155772  1.0
  N  N87  1  0.35027014  0.87495168  0.41398533  1.0
  N  N88  1  0.61737809  0.12501033  0.60446116  1.0
  N  N89  1  0.63678729  0.29390356  0.59398674  1.0
  N  N90  1  0.34014915  0.11050925  0.38438369  1.0
  N  N91  1  0.35899568  0.27933833  0.39081505  1.0
  N  N92  1  0.54139764  0.33872162  0.25105536  1.0
  N  N93  1  0.49762916  0.33662099  0.09845902  1.0
  N  N94  1  0.51387539  0.63993799  0.26820105  1.0
  N  N95  1  0.49676702  0.63181864  0.11493711  1.0
  N  N96  1  0.48235293  0.36451131  0.87920007  1.0
  N  N97  1  0.44617870  0.36108729  0.72839278  1.0
  N  N98  1  0.52874715  0.66298672  0.89603753  1.0
  N  N99  1  0.51738896  0.66103831  0.74677028  1.0
  N  N100  1  0.13404484  0.65043326  0.51073245  1.0
  N  N101  1  0.87663706  0.35040492  0.49300541  1.0
  N  N102  1  0.89875932  0.65218679  0.50363100  1.0
  N  N103  1  0.11135841  0.34819392  0.49007321  1.0
  O  O104  1  0.48775367  0.42618575  0.37979746  1.0
  O  O105  1  0.53896051  0.55925299  0.38941816  1.0
  O  O106  1  0.32715585  0.56251591  0.48473834  1.0
  O  O107  1  0.31868542  0.43028629  0.50474234  1.0
  O  O108  1  0.47913631  0.57404816  0.61560089  1.0
  O  O109  1  0.51276649  0.44050394  0.61000397  1.0
  O  O110  1  0.68173250  0.43548371  0.48679340  1.0
  O  O111  1  0.69150107  0.56977593  0.51954275  1.0
