# generated using pymatgen
data_ZnH13C25S4Br2NO16
_symmetry_space_group_name_H-M   'P 1'
_cell_length_a   16.09198829
_cell_length_b   18.23118926
_cell_length_c   19.37984300
_cell_angle_alpha   90.69693867
_cell_angle_beta   91.25197342
_cell_angle_gamma   91.12783524
_symmetry_Int_Tables_number   1
_chemical_formula_structural   ZnH13C25S4Br2NO16
_chemical_formula_sum   'Zn2 H26 C50 S8 Br4 N2 O32'
_cell_volume   5682.67286268
_cell_formula_units_Z   2
loop_
 _symmetry_equiv_pos_site_id
 _symmetry_equiv_pos_as_xyz
  1  'x, y, z'
loop_
 _atom_site_type_symbol
 _atom_site_label
 _atom_site_symmetry_multiplicity
 _atom_site_fract_x
 _atom_site_fract_y
 _atom_site_fract_z
 _atom_site_occupancy
  Zn  Zn0  1  0.50361707  0.57908628  0.49294069  1.0
  Zn  Zn1  1  0.50341055  0.42498523  0.50971348  1.0
  H  H2  1  0.39110895  0.69074111  0.43212300  1.0
  H  H3  1  0.60715456  0.30871833  0.57377033  1.0
  H  H4  1  0.60156627  0.83649068  0.56450665  1.0
  H  H5  1  0.40417038  0.17341593  0.42440829  1.0
  H  H6  1  0.60446665  0.69855066  0.55599167  1.0
  H  H7  1  0.40582209  0.31127800  0.43675772  1.0
  H  H8  1  0.44721026  0.07733409  0.59264257  1.0
  H  H9  1  0.55014354  0.92798032  0.39799462  1.0
  H  H10  1  0.96428225  0.58593952  0.59478582  1.0
  H  H11  1  0.04274355  0.41882529  0.40782667  1.0
  H  H12  1  0.40083250  0.56904393  0.15892668  1.0
  H  H13  1  0.38247582  0.42921870  0.83531626  1.0
  H  H14  1  0.41996840  0.57531964  0.28689780  1.0
  H  H15  1  0.39854880  0.43002407  0.70781359  1.0
  H  H16  1  0.59754897  0.47339839  0.06309706  1.0
  H  H17  1  0.32925432  0.51252581  0.93777580  1.0
  H  H18  1  0.59659806  0.50140614  0.93834240  1.0
  H  H19  1  0.33010112  0.48424684  0.06273636  1.0
  H  H20  1  0.96518391  0.39677228  0.66572816  1.0
  H  H21  1  0.04859582  0.60267321  0.33973347  1.0
  H  H22  1  0.36326595  0.82831204  0.61313542  1.0
  H  H23  1  0.52643392  0.15349132  0.30189553  1.0
  H  H24  1  0.00173749  0.26712477  0.47387090  1.0
  H  H25  1  0.94719257  0.68503347  0.43187887  1.0
  H  H26  1  0.49506432  0.35817395  0.03800184  1.0
  H  H27  1  0.51098966  0.62409255  0.97130061  1.0
  C  C28  1  0.49664912  0.51351044  0.63354999  1.0
  C  C29  1  0.50037305  0.48703975  0.36901261  1.0
  C  C30  1  0.50771029  0.41150631  0.18306139  1.0
  C  C31  1  0.51351260  0.57748277  0.82318765  1.0
  C  C32  1  0.46639038  0.46809968  0.14764804  1.0
  C  C33  1  0.46420784  0.52243713  0.85411354  1.0
  C  C34  1  0.43304210  0.52563773  0.18619894  1.0
  C  C35  1  0.42116077  0.47117938  0.81148405  1.0
  C  C36  1  0.44458183  0.52982391  0.25719370  1.0
  C  C37  1  0.43098001  0.47083196  0.74057365  1.0
  C  C38  1  0.49100214  0.47731760  0.29212172  1.0
  C  C39  1  0.48571818  0.52077461  0.71015516  1.0
  C  C40  1  0.53860749  0.48150745  0.03569356  1.0
  C  C41  1  0.38799910  0.50354288  0.96520467  1.0
  C  C42  1  0.53807605  0.49753133  0.96548952  1.0
  C  C43  1  0.38853277  0.48802376  0.03541152  1.0
  C  C44  1  0.46280498  0.50944333  0.92945436  1.0
  C  C45  1  0.46371392  0.47681192  0.07163487  1.0
  C  C46  1  0.43736417  0.72525521  0.45953906  1.0
  C  C47  1  0.56302462  0.27659434  0.54174878  1.0
  C  C48  1  0.43259236  0.80156815  0.46069195  1.0
  C  C49  1  0.56632184  0.20040193  0.53736935  1.0
  C  C50  1  0.34187182  0.49951347  0.49505138  1.0
  C  C51  1  0.66447832  0.50748664  0.50648196  1.0
  C  C52  1  0.49242269  0.84360147  0.49822576  1.0
  C  C53  1  0.50856025  0.16147978  0.49503660  1.0
  C  C54  1  0.55487543  0.80602168  0.53375835  1.0
  C  C55  1  0.44978945  0.20171568  0.45802481  1.0
  C  C56  1  0.55663149  0.73001290  0.52977494  1.0
  C  C57  1  0.44996026  0.27753298  0.46474846  1.0
  C  C58  1  0.46487138  0.96873573  0.55245793  1.0
  C  C59  1  0.53309832  0.03664114  0.43854914  1.0
  C  C60  1  0.47012471  0.04498156  0.54968542  1.0
  C  C61  1  0.52696486  0.96028165  0.44089644  1.0
  C  C62  1  0.50491703  0.08016423  0.49311008  1.0
  C  C63  1  0.49346665  0.92506885  0.49803125  1.0
  C  C64  1  0.98144327  0.54883269  0.55307175  1.0
  C  C65  1  0.02518573  0.45565210  0.44964846  1.0
  C  C66  1  0.03554981  0.47957135  0.56244610  1.0
  C  C67  1  0.97109570  0.52475730  0.44039416  1.0
  C  C68  1  0.25184170  0.49873429  0.49291201  1.0
  C  C69  1  0.75457327  0.50778781  0.50835345  1.0
  C  C70  1  0.03242383  0.57098215  0.48892728  1.0
  C  C71  1  0.97436528  0.43338134  0.51392702  1.0
  C  C72  1  0.08907129  0.50096653  0.49735849  1.0
  C  C73  1  0.91745379  0.50369944  0.50539914  1.0
  C  C74  1  0.17640933  0.49924640  0.49395833  1.0
  C  C75  1  0.83000232  0.50585880  0.50786925  1.0
  C  C76  1  0.52313249  0.41816187  0.25476509  1.0
  C  C77  1  0.52714925  0.57398303  0.75167584  1.0
  S  S78  1  0.07923462  0.45186559  0.64274286  1.0
  S  S79  1  0.92994505  0.55568141  0.36066131  1.0
  S  S80  1  0.42574716  0.93126499  0.63073349  1.0
  S  S81  1  0.58662692  0.07540491  0.36710205  1.0
  S  S82  1  0.93135098  0.34510382  0.52879703  1.0
  S  S83  1  0.06875285  0.66045960  0.46932523  1.0
  S  S84  1  0.53997203  0.32927447  0.13864146  1.0
  S  S85  1  0.55786639  0.65397522  0.87280606  1.0
  Br  Br86  1  0.34448687  0.84599405  0.41159681  1.0
  Br  Br87  1  0.64969225  0.15187427  0.58836317  1.0
  Br  Br88  1  0.59614214  0.35341887  0.30112313  1.0
  Br  Br89  1  0.60989886  0.63433086  0.71100260  1.0
  N  N90  1  0.49894164  0.69090747  0.49298482  1.0
  N  N91  1  0.50531684  0.31364471  0.50631940  1.0
  O  O92  1  0.48246657  0.56928533  0.59703592  1.0
  O  O93  1  0.48299875  0.43163351  0.40523250  1.0
  O  O94  1  0.51604061  0.45003688  0.61195469  1.0
  O  O95  1  0.52069027  0.55095782  0.39118286  1.0
  O  O96  1  0.37722961  0.55809852  0.47453084  1.0
  O  O97  1  0.62945288  0.44487286  0.49877314  1.0
  O  O98  1  0.37574744  0.44201760  0.51756793  1.0
  O  O99  1  0.63011186  0.56939360  0.51220805  1.0
  O  O100  1  0.11919865  0.38316632  0.63110145  1.0
  O  O101  1  0.12213025  0.51410666  0.67326267  1.0
  O  O102  1  0.99678148  0.44001274  0.68568056  1.0
  O  O103  1  0.87830464  0.49995810  0.32882617  1.0
  O  O104  1  0.89709058  0.62816701  0.37449657  1.0
  O  O105  1  0.01162781  0.56317488  0.31727333  1.0
  O  O106  1  0.48790981  0.88514119  0.66111482  1.0
  O  O107  1  0.38979905  0.99024040  0.66849776  1.0
  O  O108  1  0.35027443  0.87912583  0.60178297  1.0
  O  O109  1  0.63928823  0.13569932  0.39097130  1.0
  O  O110  1  0.61963668  0.01589087  0.32784423  1.0
  O  O111  1  0.50812434  0.10856935  0.32528478  1.0
  O  O112  1  0.91175024  0.34150726  0.60102110  1.0
  O  O113  1  0.86989204  0.32821015  0.47600317  1.0
  O  O114  1  0.01000086  0.29337233  0.51802849  1.0
  O  O115  1  0.12199987  0.68905073  0.52339615  1.0
  O  O116  1  0.09885735  0.65625395  0.39895516  1.0
  O  O117  1  0.98532355  0.70468266  0.47032842  1.0
  O  O118  1  0.62311567  0.34106009  0.11459786  1.0
  O  O119  1  0.51758958  0.26651739  0.17860436  1.0
  O  O120  1  0.47677709  0.32339989  0.07326376  1.0
  O  O121  1  0.63884506  0.63402645  0.89867935  1.0
  O  O122  1  0.54458221  0.72007636  0.83548836  1.0
  O  O123  1  0.49609092  0.66089760  0.93679853  1.0
