# generated using pymatgen
data_AlH12C16(NO3)5
_symmetry_space_group_name_H-M   'P 1'
_cell_length_a   7.06907897
_cell_length_b   20.44251807
_cell_length_c   23.39151758
_cell_angle_alpha   89.99997879
_cell_angle_beta   90.00087460
_cell_angle_gamma   89.99950536
_symmetry_Int_Tables_number   1
_chemical_formula_structural   AlH12C16(NO3)5
_chemical_formula_sum   'Al4 H48 C64 N20 O60'
_cell_volume   3380.30293211
_cell_formula_units_Z   4
loop_
 _symmetry_equiv_pos_site_id
 _symmetry_equiv_pos_as_xyz
  1  'x, y, z'
loop_
 _atom_site_type_symbol
 _atom_site_label
 _atom_site_symmetry_multiplicity
 _atom_site_fract_x
 _atom_site_fract_y
 _atom_site_fract_z
 _atom_site_occupancy
  Al  Al0  1  0.02234308  0.75049601  0.50006494  1.0
  Al  Al1  1  0.47767209  0.24949925  0.00006449  1.0
  Al  Al2  1  0.52234459  0.74950019  0.49993115  1.0
  Al  Al3  1  0.97767081  0.25050006  0.99993081  1.0
  H  H4  1  0.58545556  0.60982656  0.76896214  1.0
  H  H5  1  0.91452703  0.39017524  0.26896528  1.0
  H  H6  1  0.08547487  0.89017946  0.23103331  1.0
  H  H7  1  0.41452926  0.10982109  0.73103195  1.0
  H  H8  1  0.43298998  0.47685855  0.78257025  1.0
  H  H9  1  0.06699897  0.52314149  0.28257211  1.0
  H  H10  1  0.93300040  0.02314709  0.21742319  1.0
  H  H11  1  0.56699736  0.97685474  0.71742413  1.0
  H  H12  1  0.92312291  0.47075037  0.67926871  1.0
  H  H13  1  0.57685833  0.52925392  0.17927189  1.0
  H  H14  1  0.42312940  0.02925624  0.32072982  1.0
  H  H15  1  0.07687184  0.97074525  0.82072567  1.0
  H  H16  1  0.05126062  0.54340603  0.72788650  1.0
  H  H17  1  0.44872492  0.45659110  0.22788802  1.0
  H  H18  1  0.55127051  0.95659508  0.27211397  1.0
  H  H19  1  0.94873491  0.04340721  0.77211147  1.0
  H  H20  1  0.57180168  0.41223594  0.73001171  1.0
  H  H21  1  0.92819262  0.58776148  0.23001568  1.0
  H  H22  1  0.07179897  0.08776313  0.26998388  1.0
  H  H23  1  0.42819768  0.91223398  0.76998227  1.0
  H  H24  1  0.12561790  0.44080273  0.76241156  1.0
  H  H25  1  0.20536018  0.48676382  0.82295115  1.0
  H  H26  1  0.06514614  0.41682669  0.83357528  1.0
  H  H27  1  0.37437969  0.55919781  0.26241235  1.0
  H  H28  1  0.29463129  0.51322985  0.32294783  1.0
  H  H29  1  0.43484175  0.58316844  0.33357842  1.0
  H  H30  1  0.62561771  0.05919832  0.23758935  1.0
  H  H31  1  0.70536863  0.01322751  0.17705645  1.0
  H  H32  1  0.56516707  0.08316748  0.16642285  1.0
  H  H33  1  0.87438414  0.94080251  0.73758583  1.0
  H  H34  1  0.79462945  0.98677385  0.67705477  1.0
  H  H35  1  0.93482327  0.91683338  0.66642040  1.0
  H  H36  1  0.70719061  0.41306662  0.61758273  1.0
  H  H37  1  0.51396942  0.46449614  0.63601043  1.0
  H  H38  1  0.71137637  0.49663314  0.59791491  1.0
  H  H39  1  0.79278535  0.58693671  0.11758537  1.0
  H  H40  1  0.98601053  0.53550914  0.13601718  1.0
  H  H41  1  0.78861393  0.50336971  0.09791927  1.0
  H  H42  1  0.20719921  0.08693449  0.38241846  1.0
  H  H43  1  0.01397685  0.03551220  0.36398239  1.0
  H  H44  1  0.21136814  0.00336650  0.40208117  1.0
  H  H45  1  0.29279315  0.91306210  0.88241467  1.0
  H  H46  1  0.48602850  0.96448341  0.86398139  1.0
  H  H47  1  0.28863817  0.99662959  0.90207775  1.0
  H  H48  1  0.27033249  0.66322601  0.49936129  1.0
  H  H49  1  0.22969687  0.33677199  0.99936560  1.0
  H  H50  1  0.77033210  0.83677033  0.50063867  1.0
  H  H51  1  0.72969740  0.16322912  0.00062926  1.0
  C  C52  1  0.27347524  0.82331097  0.57788203  1.0
  C  C53  1  0.22652781  0.17669257  0.07788245  1.0
  C  C54  1  0.77349569  0.67669173  0.42211280  1.0
  C  C55  1  0.72651344  0.32331002  0.92211198  1.0
  C  C56  1  0.27338266  0.82743182  0.42531904  1.0
  C  C57  1  0.22661096  0.17256181  0.92532041  1.0
  C  C58  1  0.77341144  0.67256159  0.57467751  1.0
  C  C59  1  0.72662267  0.32743442  0.07467573  1.0
  C  C60  1  0.92531134  0.55428165  0.75355546  1.0
  C  C61  1  0.57467170  0.44571380  0.25355823  1.0
  C  C62  1  0.42532149  0.94571430  0.24644419  1.0
  C  C63  1  0.07467793  0.05428282  0.74643993  1.0
  C  C64  1  0.57491884  0.56133988  0.74936871  1.0
  C  C65  1  0.92507243  0.43865900  0.24936930  1.0
  C  C66  1  0.07492256  0.93866369  0.25062842  1.0
  C  C67  1  0.42509127  0.06133783  0.75062540  1.0
  C  C68  1  0.55322438  0.50800397  0.79406437  1.0
  C  C69  1  0.94677675  0.49199538  0.29407014  1.0
  C  C70  1  0.05322098  0.99199763  0.20592798  1.0
  C  C71  1  0.44677592  0.00799755  0.70592762  1.0
  C  C72  1  0.72417520  0.36931903  0.87544291  1.0
  C  C73  1  0.77581545  0.63068469  0.37544248  1.0
  C  C74  1  0.22419500  0.13068355  0.12455407  1.0
  C  C75  1  0.27582086  0.86932046  0.62455023  1.0
  C  C76  1  0.75474484  0.54909047  0.71234663  1.0
  C  C77  1  0.74523705  0.45091527  0.21234915  1.0
  C  C78  1  0.25475586  0.95091614  0.28764942  1.0
  C  C79  1  0.24524614  0.04908145  0.78764919  1.0
  C  C80  1  0.91770793  0.50271656  0.80283186  1.0
  C  C81  1  0.58228244  0.49727985  0.30283122  1.0
  C  C82  1  0.41771642  0.99728623  0.19716946  1.0
  C  C83  1  0.08227710  0.00271580  0.69716654  1.0
  C  C84  1  0.72883699  0.46210752  0.79621718  1.0
  C  C85  1  0.77116004  0.53789428  0.29621761  1.0
  C  C86  1  0.22883570  0.03789751  0.20378153  1.0
  C  C87  1  0.27116814  0.96210060  0.70378063  1.0
  C  C88  1  0.71752755  0.42978030  0.73481114  1.0
  C  C89  1  0.78246564  0.57021565  0.23481460  1.0
  C  C90  1  0.21751984  0.07022277  0.26518496  1.0
  C  C91  1  0.28248359  0.92978217  0.76518326  1.0
  C  C92  1  0.77110742  0.47762619  0.68759668  1.0
  C  C93  1  0.72887575  0.52237858  0.18759868  1.0
  C  C94  1  0.27111518  0.02238180  0.31240175  1.0
  C  C95  1  0.22888695  0.97761921  0.81239814  1.0
  C  C96  1  0.71555510  0.41238125  0.83997319  1.0
  C  C97  1  0.78444041  0.58761858  0.33997665  1.0
  C  C98  1  0.21556533  0.08762182  0.16002418  1.0
  C  C99  1  0.28443719  0.91238022  0.66001993  1.0
  C  C100  1  0.77002982  0.59524331  0.66569854  1.0
  C  C101  1  0.72996330  0.40475511  0.16569888  1.0
  C  C102  1  0.27003214  0.90475842  0.33430055  1.0
  C  C103  1  0.22997135  0.09523916  0.83429854  1.0
  C  C104  1  0.77330946  0.62971803  0.62356746  1.0
  C  C105  1  0.72670649  0.37027845  0.12357250  1.0
  C  C106  1  0.27329650  0.87027881  0.37642908  1.0
  C  C107  1  0.22669831  0.12971582  0.87643175  1.0
  C  C108  1  0.08925475  0.45847960  0.80512141  1.0
  C  C109  1  0.41074834  0.54151946  0.30512106  1.0
  C  C110  1  0.58925427  0.04152046  0.19487937  1.0
  C  C111  1  0.91074350  0.95847991  0.69487768  1.0
  C  C112  1  0.66812379  0.46254143  0.63163219  1.0
  C  C113  1  0.83185447  0.53745994  0.13163455  1.0
  C  C114  1  0.16812714  0.03746405  0.36836673  1.0
  C  C115  1  0.33187283  0.96253742  0.86836519  1.0
  N  N116  1  0.90725488  0.53725975  0.86290276  1.0
  N  N117  1  0.59274489  0.46273566  0.36290260  1.0
  N  N118  1  0.40726293  0.96273961  0.13709853  1.0
  N  N119  1  0.09273392  0.03726049  0.63709392  1.0
  N  N120  1  0.96611025  0.62458220  0.77318144  1.0
  N  N121  1  0.53390089  0.37541521  0.27317810  1.0
  N  N122  1  0.46610323  0.87541720  0.22682220  1.0
  N  N123  1  0.03389639  0.12458384  0.72682034  1.0
  N  N124  1  0.40194590  0.56603886  0.71105280  1.0
  N  N125  1  0.09803576  0.43395876  0.21105566  1.0
  N  N126  1  0.90196232  0.93396245  0.28893992  1.0
  N  N127  1  0.59804698  0.06603886  0.78894088  1.0
  N  N128  1  0.48839661  0.53653173  0.85241574  1.0
  N  N129  1  0.01160661  0.46346926  0.35241700  1.0
  N  N130  1  0.98840966  0.96347599  0.14757985  1.0
  N  N131  1  0.51160071  0.03652586  0.64758051  1.0
  N  N132  1  0.83023831  0.36524278  0.72923754  1.0
  N  N133  1  0.66977009  0.63476197  0.22924357  1.0
  N  N134  1  0.33021609  0.13476475  0.27076067  1.0
  N  N135  1  0.16977778  0.86523285  0.77075432  1.0
  O  O136  1  0.43553778  0.81090797  0.44408810  1.0
  O  O137  1  0.06447823  0.18908320  0.94408889  1.0
  O  O138  1  0.93552912  0.68907868  0.55590432  1.0
  O  O139  1  0.56447978  0.31091586  0.05590454  1.0
  O  O140  1  0.11012569  0.80717300  0.55973714  1.0
  O  O141  1  0.38990452  0.19282468  0.05973555  1.0
  O  O142  1  0.61010819  0.69282473  0.44026311  1.0
  O  O143  1  0.88988368  0.30717359  0.94025987  1.0
  O  O144  1  0.11069346  0.81179769  0.44429401  1.0
  O  O145  1  0.38931973  0.18819838  0.94429167  1.0
  O  O146  1  0.61068908  0.68820492  0.55570453  1.0
  O  O147  1  0.88933112  0.31179990  0.05570247  1.0
  O  O148  1  0.93538957  0.69411918  0.44033251  1.0
  O  O149  1  0.56460372  0.30588061  0.94033369  1.0
  O  O150  1  0.43539865  0.80588411  0.55965691  1.0
  O  O151  1  0.06461741  0.19412042  0.05965931  1.0
  O  O152  1  0.27189856  0.71066831  0.49858579  1.0
  O  O153  1  0.22811802  0.28933019  0.99858071  1.0
  O  O154  1  0.77189232  0.78932853  0.50141631  1.0
  O  O155  1  0.72812025  0.21067142  0.00141372  1.0
  O  O156  1  0.99058594  0.51100811  0.90268742  1.0
  O  O157  1  0.81155936  0.58771583  0.86575533  1.0
  O  O158  1  0.50940924  0.48898387  0.40268738  1.0
  O  O159  1  0.68845049  0.41228349  0.36575295  1.0
  O  O160  1  0.49059148  0.98898934  0.09731374  1.0
  O  O161  1  0.31156576  0.91228690  0.13424392  1.0
  O  O162  1  0.00940288  0.01101321  0.59731055  1.0
  O  O163  1  0.18843798  0.08771565  0.63424347  1.0
  O  O164  1  0.11772878  0.63101070  0.79854982  1.0
  O  O165  1  0.85577743  0.66853957  0.76007477  1.0
  O  O166  1  0.38228805  0.36897857  0.29854943  1.0
  O  O167  1  0.64423572  0.33146175  0.26006928  1.0
  O  O168  1  0.61772632  0.86898409  0.20145344  1.0
  O  O169  1  0.35577081  0.83146368  0.23992890  1.0
  O  O170  1  0.88227610  0.13101725  0.70145068  1.0
  O  O171  1  0.14423246  0.16853736  0.73992785  1.0
  O  O172  1  0.36240401  0.62001704  0.69185388  1.0
  O  O173  1  0.31374596  0.51440479  0.70065145  1.0
  O  O174  1  0.13758352  0.37997863  0.19186289  1.0
  O  O175  1  0.18623221  0.48559284  0.20065118  1.0
  O  O176  1  0.86241469  0.87998229  0.30813400  1.0
  O  O177  1  0.81375879  0.98559403  0.29934652  1.0
  O  O178  1  0.63759863  0.12002145  0.80813123  1.0
  O  O179  1  0.68625257  0.01440679  0.79934567  1.0
  O  O180  1  0.42598242  0.59248568  0.85241049  1.0
  O  O181  1  0.49235418  0.49861370  0.89331947  1.0
  O  O182  1  0.07403918  0.40751482  0.35240814  1.0
  O  O183  1  0.00764452  0.50138386  0.39332070  1.0
  O  O184  1  0.92596176  0.90752298  0.14758702  1.0
  O  O185  1  0.99238576  0.00138611  0.10667460  1.0
  O  O186  1  0.57404013  0.09247985  0.64758660  1.0
  O  O187  1  0.50762631  0.99861576  0.60667490  1.0
  O  O188  1  0.98627766  0.36649072  0.70535565  1.0
  O  O189  1  0.75098947  0.31644984  0.74845506  1.0
  O  O190  1  0.51372925  0.63351796  0.20535985  1.0
  O  O191  1  0.74903428  0.68354952  0.24846605  1.0
  O  O192  1  0.48626549  0.13352033  0.29463798  1.0
  O  O193  1  0.25093650  0.18355471  0.25154074  1.0
  O  O194  1  0.01373694  0.86647971  0.79463664  1.0
  O  O195  1  0.24904910  0.81644534  0.75153297  1.0
