# generated using pymatgen
data_Zn2H13C24N8ClO
_symmetry_space_group_name_H-M   'P 1'
_cell_length_a   15.69695373
_cell_length_b   15.85910552
_cell_length_c   17.49928256
_cell_angle_alpha   102.91350213
_cell_angle_beta   107.99806754
_cell_angle_gamma   112.70897816
_symmetry_Int_Tables_number   1
_chemical_formula_structural   Zn2H13C24N8ClO
_chemical_formula_sum   'Zn4 H26 C48 N16 Cl2 O2'
_cell_volume   3518.16621137
_cell_formula_units_Z   2
loop_
 _symmetry_equiv_pos_site_id
 _symmetry_equiv_pos_as_xyz
  1  'x, y, z'
loop_
 _atom_site_type_symbol
 _atom_site_label
 _atom_site_symmetry_multiplicity
 _atom_site_fract_x
 _atom_site_fract_y
 _atom_site_fract_z
 _atom_site_occupancy
  Zn  Zn0  1  0.87001415  0.86883511  0.49412274  1.0
  Zn  Zn1  1  0.13584343  0.13754821  0.49761591  1.0
  Zn  Zn2  1  0.12285990  0.99792015  0.61124951  1.0
  Zn  Zn3  1  0.88272066  0.00669268  0.38042243  1.0
  H  H4  1  0.80652222  0.76860299  0.63365651  1.0
  H  H5  1  0.89186171  0.77330476  0.96575854  1.0
  H  H6  1  0.17737891  0.34830461  0.46233535  1.0
  H  H7  1  0.12333472  0.13665363  0.77702466  1.0
  H  H8  1  0.82528805  0.16000254  0.48136587  1.0
  H  H9  1  0.13861288  0.32245026  0.62787000  1.0
  H  H10  1  0.81324910  0.97922739  0.63512061  1.0
  H  H11  1  0.64016222  0.66799348  0.35229433  1.0
  H  H12  1  0.22107993  0.74829954  0.45573948  1.0
  H  H13  1  0.18949312  0.71190624  0.53694842  1.0
  H  H14  1  0.35723047  0.85709868  0.65475003  1.0
  H  H15  1  0.38161529  0.21821288  0.53006662  1.0
  H  H16  1  0.37820776  0.77982188  0.58048776  1.0
  H  H17  1  0.38993128  0.89399274  0.57398443  1.0
  H  H18  1  0.24532315  0.88711932  0.13723853  1.0
  H  H19  1  0.24257127  0.99964611  0.14235811  1.0
  H  H20  1  0.31558115  0.01050872  0.03305654  1.0
  H  H21  1  0.39905972  0.00648080  0.12648059  1.0
  H  H22  1  0.31850189  0.89827753  0.02771844  1.0
  H  H23  1  0.87144891  0.85244515  0.21628305  1.0
  H  H24  1  0.20244716  0.01712016  0.37266751  1.0
  H  H25  1  0.84909355  0.68510583  0.35261331  1.0
  H  H26  1  0.65576561  0.85275625  0.20267931  1.0
  H  H27  1  0.36200452  0.03779801  0.68356450  1.0
  H  H28  1  0.32895285  0.42633144  0.04120412  1.0
  H  H29  1  0.33016302  0.57785314  0.95673435  1.0
  C  C30  1  0.88881611  0.81635062  0.65921428  1.0
  C  C31  1  0.92840111  0.73680247  0.39987961  1.0
  C  C32  1  0.66820791  0.82085499  0.25113965  1.0
  C  C33  1  0.09686181  0.29161271  0.42856031  1.0
  C  C34  1  0.35023486  0.08007534  0.64440197  1.0
  C  C35  1  0.60570165  0.72579890  0.24633985  1.0
  C  C36  1  0.41654486  0.13524655  0.61367554  1.0
  C  C37  1  0.01311682  0.71958119  0.42166180  1.0
  C  C38  1  0.04277596  0.91534740  0.26201084  1.0
  C  C39  1  0.73611101  0.11906653  0.60410899  1.0
  C  C40  1  0.67042687  0.13501904  0.61768800  1.0
  C  C41  1  0.01117399  0.30015392  0.38262636  1.0
  C  C42  1  0.59036963  0.14349490  0.62409955  1.0
  C  C43  1  0.51177470  0.14385161  0.62269411  1.0
  C  C44  1  0.00841584  0.38442316  0.37322708  1.0
  C  C45  1  0.12225350  0.16816791  0.72790597  1.0
  C  C46  1  0.00669623  0.46084753  0.37181416  1.0
  C  C47  1  0.00702371  0.54723981  0.37829020  1.0
  C  C48  1  0.01041626  0.62830190  0.39423738  1.0
  C  C49  1  0.18582435  0.34868902  0.81287752  1.0
  C  C50  1  0.30678682  0.50472193  0.96001576  1.0
  C  C51  1  0.35333276  0.49937579  0.03766362  1.0
  C  C52  1  0.14384659  0.26572639  0.73581352  1.0
  C  C53  1  0.43586486  0.58081913  0.11218678  1.0
  C  C54  1  0.23662127  0.42124055  0.88222325  1.0
  C  C55  1  0.51353417  0.64851415  0.17608087  1.0
  C  C56  1  0.05334307  0.88024769  0.18624338  1.0
  C  C57  1  0.83094134  0.10899809  0.51234915  1.0
  C  C58  1  0.05414246  0.84530387  0.03266717  1.0
  C  C59  1  0.96306062  0.80447088  0.95912468  1.0
  C  C60  1  0.95992041  0.80901684  0.87975776  1.0
  C  C61  1  0.05651031  0.85847532  0.11585094  1.0
  C  C62  1  0.95992467  0.82096430  0.81301224  1.0
  C  C63  1  0.79724021  0.08801958  0.57538299  1.0
  C  C64  1  0.13028844  0.26344006  0.65159988  1.0
  C  C65  1  0.82432111  0.01610930  0.59090118  1.0
  C  C66  1  0.92825806  0.20371760  0.35368555  1.0
  C  C67  1  0.05680914  0.90606934  0.73721506  1.0
  C  C68  1  0.96684621  0.84412997  0.74188529  1.0
  C  C69  1  0.23366764  0.77555568  0.52403177  1.0
  C  C70  1  0.34646715  0.83035043  0.58709443  1.0
  C  C71  1  0.23957901  0.93431685  0.10044712  1.0
  C  C72  1  0.32311584  0.96410991  0.07000106  1.0
  C  C73  1  0.66015641  0.72634776  0.32764096  1.0
  C  C74  1  0.35987916  0.17173914  0.56530329  1.0
  C  C75  1  0.09577044  0.81301773  0.48746738  1.0
  C  C76  1  0.94996332  0.90072436  0.26639749  1.0
  C  C77  1  0.11953975  0.98487676  0.34636509  1.0
  N  N78  1  0.92940311  0.85798529  0.61099503  1.0
  N  N79  1  0.10030282  0.11436108  0.64644123  1.0
  N  N80  1  0.87200411  0.05225305  0.49152070  1.0
  N  N81  1  0.10548929  0.17278321  0.59963998  1.0
  N  N82  1  0.86788730  0.99528693  0.53950659  1.0
  N  N83  1  0.96156214  0.14431537  0.37993270  1.0
  N  N84  1  0.03420723  0.91407586  0.65972398  1.0
  N  N85  1  0.74695195  0.81397771  0.37595847  1.0
  N  N86  1  0.26816698  0.14029143  0.56715927  1.0
  N  N87  1  0.06115321  0.87757190  0.50200026  1.0
  N  N88  1  0.97126465  0.95871498  0.34599097  1.0
  N  N89  1  0.07500259  0.01045095  0.39505719  1.0
  N  N90  1  0.95781800  0.83013761  0.44856681  1.0
  N  N91  1  0.75192628  0.87259483  0.32834001  1.0
  N  N92  1  0.26229325  0.08314493  0.61617934  1.0
  N  N93  1  0.06673757  0.19925875  0.42669189  1.0
  Cl  Cl94  1  0.80039310  0.16004740  0.29460697  1.0
  Cl  Cl95  1  0.18103010  0.96708808  0.81487477  1.0
  O  O96  1  0.19566345  0.84533055  0.53596829  1.0
  O  O97  1  0.14284669  0.87937229  0.02312838  1.0
