# generated using pymatgen
data_AlH18C24NO6
_symmetry_space_group_name_H-M   'P 1'
_cell_length_a   4.11943132
_cell_length_b   13.47836060
_cell_length_c   13.47847285
_cell_angle_alpha   119.99944468
_cell_angle_beta   90.00149592
_cell_angle_gamma   90.00058307
_symmetry_Int_Tables_number   1
_chemical_formula_structural   AlH18C24NO6
_chemical_formula_sum   'Al1 H18 C24 N1 O6'
_cell_volume   648.10905287
_cell_formula_units_Z   1
loop_
 _symmetry_equiv_pos_site_id
 _symmetry_equiv_pos_as_xyz
  1  'x, y, z'
loop_
 _atom_site_type_symbol
 _atom_site_label
 _atom_site_symmetry_multiplicity
 _atom_site_fract_x
 _atom_site_fract_y
 _atom_site_fract_z
 _atom_site_occupancy
  Al  Al0  1  0.97483025  0.00000064  0.50000663  1.0
  H  H1  1  0.76971516  0.02533229  0.21051407  1.0
  H  H2  1  0.78446976  0.12929700  0.10313863  1.0
  H  H3  1  0.21894840  0.40040258  0.36824212  1.0
  H  H4  1  0.21893007  0.13175874  0.03216164  1.0
  H  H5  1  0.76974692  0.28951044  0.81484564  1.0
  H  H6  1  0.78447344  0.39687941  0.02618469  1.0
  H  H7  1  0.21895542  0.46783528  0.09959516  1.0
  H  H8  1  0.76971800  0.68516392  0.47467929  1.0
  H  H9  1  0.78448895  0.47382326  0.37070416  1.0
  H  H10  1  0.25274238  0.40358555  0.56494424  1.0
  H  H11  1  0.19109530  0.26837146  0.55524643  1.0
  H  H12  1  0.89756762  0.32262024  0.49920818  1.0
  H  H13  1  0.25276776  0.93504659  0.83862991  1.0
  H  H14  1  0.19112802  0.94476153  0.71312363  1.0
  H  H15  1  0.89760237  0.00078316  0.82340152  1.0
  H  H16  1  0.25272772  0.66136102  0.09641833  1.0
  H  H17  1  0.19113222  0.78687212  0.23163283  1.0
  H  H18  1  0.89758003  0.67659483  0.17738735  1.0
  C  C19  1  0.47452719  0.08805583  0.67567486  1.0
  C  C20  1  0.47447553  0.82432887  0.41239162  1.0
  C  C21  1  0.47449201  0.08761255  0.41195527  1.0
  C  C22  1  0.64205221  0.10676127  0.24385206  1.0
  C  C23  1  0.65372708  0.16573146  0.18391424  1.0
  C  C24  1  0.49814405  0.27234217  0.22732163  1.0
  C  C25  1  0.33770911  0.31740245  0.33274685  1.0
  C  C26  1  0.32724813  0.26024932  0.39522023  1.0
  C  C27  1  0.47815604  0.15269189  0.34880344  1.0
  C  C28  1  0.33771655  0.16725330  0.98466062  1.0
  C  C29  1  0.32729166  0.10478328  0.86503464  1.0
  C  C30  1  0.47820879  0.15120941  0.80390391  1.0
  C  C31  1  0.64210452  0.25616557  0.86293542  1.0
  C  C32  1  0.65373825  0.31610149  0.98184117  1.0
  C  C33  1  0.49816565  0.27268294  0.04503514  1.0
  C  C34  1  0.33771874  0.51533693  0.18259324  1.0
  C  C35  1  0.32727990  0.63496765  0.23975172  1.0
  C  C36  1  0.47816297  0.69609943  0.34731396  1.0
  C  C37  1  0.64206758  0.63707110  0.39324188  1.0
  C  C38  1  0.65374197  0.51816602  0.33427387  1.0
  C  C39  1  0.49815922  0.45496698  0.22765596  1.0
  C  C40  1  0.15960201  0.31622813  0.50990981  1.0
  C  C41  1  0.15963312  0.99008890  0.80631492  1.0
  C  C42  1  0.15961464  0.69368249  0.18377423  1.0
  N  N43  1  0.50605384  0.33332987  0.16667053  1.0
  O  O44  1  0.23819534  0.01910508  0.39300317  1.0
  O  O45  1  0.23822585  0.10701056  0.62611848  1.0
  O  O46  1  0.23817957  0.87387730  0.48090096  1.0
  O  O47  1  0.70902022  0.10530579  0.48045787  1.0
  O  O48  1  0.70901044  0.87514822  0.39470804  1.0
  O  O49  1  0.70905390  0.01955433  0.62485835  1.0
