# generated using pymatgen
data_ZnH18C13(NO2)2
_symmetry_space_group_name_H-M   'P 1'
_cell_length_a   10.40100421
_cell_length_b   17.45679238
_cell_length_c   17.45656911
_cell_angle_alpha   120.00071988
_cell_angle_beta   90.00001993
_cell_angle_gamma   89.99998062
_symmetry_Int_Tables_number   1
_chemical_formula_structural   ZnH18C13(NO2)2
_chemical_formula_sum   'Zn6 H108 C78 N12 O24'
_cell_volume   2744.89725121
_cell_formula_units_Z   6
loop_
 _symmetry_equiv_pos_site_id
 _symmetry_equiv_pos_as_xyz
  1  'x, y, z'
loop_
 _atom_site_type_symbol
 _atom_site_label
 _atom_site_symmetry_multiplicity
 _atom_site_fract_x
 _atom_site_fract_y
 _atom_site_fract_z
 _atom_site_occupancy
  Zn  Zn0  1  0.11433814  0.46522027  0.54348724  1.0
  Zn  Zn1  1  0.28096256  0.92170180  0.46517486  1.0
  Zn  Zn2  1  0.44750127  0.45653628  0.92171981  1.0
  Zn  Zn3  1  0.61433817  0.53477954  0.45651191  1.0
  Zn  Zn4  1  0.78096234  0.07829931  0.53482555  1.0
  Zn  Zn5  1  0.94750012  0.54346282  0.07828020  1.0
  H  H6  1  0.22028007  0.55161540  0.47983322  1.0
  H  H7  1  0.38686867  0.07172987  0.55157216  1.0
  H  H8  1  0.55341222  0.52017531  0.07174660  1.0
  H  H9  1  0.72028059  0.44838440  0.52016652  1.0
  H  H10  1  0.88686848  0.92827122  0.44842826  1.0
  H  H11  1  0.05341240  0.47982385  0.92825221  1.0
  H  H12  1  0.99652624  0.79169555  0.61356370  1.0
  H  H13  1  0.16303840  0.17811179  0.79160027  1.0
  H  H14  1  0.32974831  0.38649354  0.17812930  1.0
  H  H15  1  0.49652626  0.20830421  0.38643665  1.0
  H  H16  1  0.66303813  0.82188801  0.20840003  1.0
  H  H17  1  0.82974891  0.61350624  0.82186988  1.0
  H  H18  1  0.99765691  0.63238984  0.47394580  1.0
  H  H19  1  0.16425939  0.15840365  0.63235986  1.0
  H  H20  1  0.33076259  0.52604614  0.15841385  1.0
  H  H21  1  0.49765692  0.36761059  0.52605431  1.0
  H  H22  1  0.66425920  0.84159815  0.36764144  1.0
  H  H23  1  0.83076231  0.47395430  0.84158566  1.0
  H  H24  1  0.05905133  0.89584235  0.55930315  1.0
  H  H25  1  0.22556792  0.33652081  0.89577842  1.0
  H  H26  1  0.39232787  0.44063017  0.33650625  1.0
  H  H27  1  0.55905392  0.10415747  0.44069714  1.0
  H  H28  1  0.72556576  0.66347965  0.10422280  1.0
  H  H29  1  0.89232841  0.55936961  0.66349294  1.0
  H  H30  1  0.21601320  0.64256505  0.63554641  1.0
  H  H31  1  0.38256240  0.00701206  0.64256168  1.0
  H  H32  1  0.54916362  0.36447212  0.00701823  1.0
  H  H33  1  0.71601367  0.35743475  0.36445390  1.0
  H  H34  1  0.88256308  0.99298771  0.35743751  1.0
  H  H35  1  0.04916278  0.63552770  0.99298148  1.0
  H  H36  1  0.04972251  0.66519298  0.62918583  1.0
  H  H37  1  0.21628807  0.03600558  0.66516851  1.0
  H  H38  1  0.38292294  0.37084566  0.03605835  1.0
  H  H39  1  0.54972397  0.33480619  0.37081413  1.0
  H  H40  1  0.71628875  0.96399554  0.33483189  1.0
  H  H41  1  0.88292265  0.62915346  0.96393994  1.0
  H  H42  1  0.37540257  0.67535458  0.53427689  1.0
  H  H43  1  0.54198063  0.14108767  0.67532989  1.0
  H  H44  1  0.70865015  0.46572578  0.14106899  1.0
  H  H45  1  0.87540505  0.32464520  0.46572287  1.0
  H  H46  1  0.04197985  0.85891214  0.32466982  1.0
  H  H47  1  0.20865122  0.53427401  0.85893074  1.0
  H  H48  1  0.41717157  0.78004700  0.47962589  1.0
  H  H49  1  0.58370351  0.30042540  0.78004458  1.0
  H  H50  1  0.75044807  0.52028046  0.30039280  1.0
  H  H51  1  0.91717222  0.21995409  0.52037568  1.0
  H  H52  1  0.08370276  0.69957441  0.21995514  1.0
  H  H53  1  0.25044811  0.47971934  0.69960695  1.0
  H  H54  1  0.19622951  0.42109605  0.35361427  1.0
  H  H55  1  0.36281518  0.06749237  0.42105128  1.0
  H  H56  1  0.52950487  0.64638704  0.06754365  1.0
  H  H57  1  0.69622906  0.57890442  0.64638580  1.0
  H  H58  1  0.86281507  0.93250741  0.57894848  1.0
  H  H59  1  0.02950609  0.35361278  0.93245606  1.0
  H  H60  1  0.13579109  0.39455032  0.24822513  1.0
  H  H61  1  0.30233638  0.14635963  0.39453276  1.0
  H  H62  1  0.46908378  0.75178480  0.14637056  1.0
  H  H63  1  0.63579262  0.60544948  0.75177516  1.0
  H  H64  1  0.80233728  0.85364016  0.60546756  1.0
  H  H65  1  0.96908364  0.24821430  0.85362831  1.0
  H  H66  1  0.03610747  0.38387917  0.32497947  1.0
  H  H67  1  0.20270660  0.05892270  0.38385496  1.0
  H  H68  1  0.36945013  0.67504285  0.05891768  1.0
  H  H69  1  0.53610702  0.61612131  0.67502229  1.0
  H  H70  1  0.70270650  0.94107710  0.61614535  1.0
  H  H71  1  0.86945000  0.32495627  0.94108118  1.0
  H  H72  1  0.97391496  0.51736097  0.32037885  1.0
  H  H73  1  0.14042030  0.19693718  0.51732909  1.0
  H  H74  1  0.30704946  0.67965153  0.19696064  1.0
  H  H75  1  0.47391499  0.48263880  0.67962093  1.0
  H  H76  1  0.64041924  0.80306329  0.48266982  1.0
  H  H77  1  0.80704925  0.32034825  0.80303911  1.0
  H  H78  1  0.12373645  0.64357395  0.36276234  1.0
  H  H79  1  0.29018470  0.28080816  0.64353732  1.0
  H  H80  1  0.45672543  0.63732018  0.28089602  1.0
  H  H81  1  0.62373612  0.35642586  0.63723739  1.0
  H  H82  1  0.79018361  0.71919229  0.35646219  1.0
  H  H83  1  0.95672611  0.36267893  0.71910285  1.0
  H  H84  1  0.17139050  0.54664665  0.26414539  1.0
  H  H85  1  0.33792333  0.28248451  0.54661633  1.0
  H  H86  1  0.50454290  0.73587553  0.28250539  1.0
  H  H87  1  0.67139018  0.45335249  0.73585458  1.0
  H  H88  1  0.83792230  0.71751593  0.45338318  1.0
  H  H89  1  0.00454308  0.26412494  0.71749464  1.0
  H  H90  1  0.25453826  0.57917724  0.36473854  1.0
  H  H91  1  0.42104226  0.21444216  0.57920159  1.0
  H  H92  1  0.58761566  0.63522587  0.21452617  1.0
  H  H93  1  0.75453886  0.42082322  0.63526211  1.0
  H  H94  1  0.92104213  0.78555826  0.42079850  1.0
  H  H95  1  0.08761582  0.36477394  0.78547354  1.0
  H  H96  1  0.17281327  0.15952931  0.27565605  1.0
  H  H97  1  0.33947703  0.88384010  0.15948631  1.0
  H  H98  1  0.50630897  0.72436553  0.88389338  1.0
  H  H99  1  0.67281425  0.84047115  0.72434458  1.0
  H  H100  1  0.83947600  0.11615902  0.84051312  1.0
  H  H101  1  0.00630744  0.27563364  0.11610657  1.0
  H  H102  1  0.03118270  0.22413461  0.29188220  1.0
  H  H103  1  0.19784456  0.93229236  0.22407644  1.0
  H  H104  1  0.36461690  0.70826476  0.93233905  1.0
  H  H105  1  0.53118371  0.77586587  0.70811784  1.0
  H  H106  1  0.69784448  0.06770744  0.77592387  1.0
  H  H107  1  0.86461781  0.29173501  0.06766070  1.0
  H  H108  1  0.05173748  0.17055284  0.35403044  1.0
  H  H109  1  0.21833971  0.81654365  0.17051981  1.0
  H  H110  1  0.38513510  0.64606936  0.81659360  1.0
  H  H111  1  0.55173938  0.82944697  0.64596984  1.0
  H  H112  1  0.71833863  0.18345614  0.82948050  1.0
  H  H113  1  0.88513411  0.35393041  0.18340616  1.0
  C  C114  1  0.90544276  0.52152920  0.46564863  1.0
  C  C115  1  0.07201541  0.05584849  0.52151069  1.0
  C  C116  1  0.23854069  0.53440322  0.05587045  1.0
  C  C117  1  0.40544368  0.47847057  0.53435113  1.0
  C  C118  1  0.57201523  0.94415332  0.47849060  1.0
  C  C119  1  0.73854144  0.46559725  0.94412963  1.0
  C  C120  1  0.09146171  0.78781183  0.58524368  1.0
  C  C121  1  0.25798787  0.20256007  0.78774644  1.0
  C  C122  1  0.42467952  0.41481966  0.20257184  1.0
  C  C123  1  0.59146133  0.21218864  0.41475694  1.0
  C  C124  1  0.75798762  0.79743972  0.21225444  1.0
  C  C125  1  0.92468012  0.58518078  0.79742769  1.0
  C  C126  1  0.02681316  0.56402415  0.45299854  1.0
  C  C127  1  0.19339311  0.11099315  0.56398277  1.0
  C  C128  1  0.35992033  0.54702323  0.11101606  1.0
  C  C129  1  0.52681370  0.43597567  0.54700117  1.0
  C  C130  1  0.69339293  0.88900863  0.43601853  1.0
  C  C131  1  0.85992010  0.45297655  0.88898370  1.0
  C  C132  1  0.12439600  0.84488119  0.55441725  1.0
  C  C133  1  0.29092603  0.29044667  0.84483914  1.0
  C  C134  1  0.45765232  0.44554364  0.29043861  1.0
  C  C135  1  0.62439760  0.15511863  0.44558248  1.0
  C  C136  1  0.79092579  0.70955311  0.15516118  1.0
  C  C137  1  0.95765385  0.55445680  0.70956150  1.0
  C  C138  1  0.17961859  0.72335282  0.57624213  1.0
  C  C139  1  0.34617263  0.14710623  0.72330909  1.0
  C  C140  1  0.51284695  0.42382019  0.14711883  1.0
  C  C141  1  0.67961915  0.27664698  0.42375817  1.0
  C  C142  1  0.84617334  0.85289421  0.27669099  1.0
  C  C143  1  0.01284800  0.57617896  0.85288054  1.0
  C  C144  1  0.14272410  0.65096583  0.59495399  1.0
  C  C145  1  0.30928869  0.05600078  0.65093358  1.0
  C  C146  1  0.47590723  0.40508916  0.05602632  1.0
  C  C147  1  0.64272461  0.34903465  0.40504665  1.0
  C  C148  1  0.80928939  0.94399967  0.34906650  1.0
  C  C149  1  0.97590695  0.59491060  0.94397345  1.0
  C  C150  1  0.30053768  0.72189321  0.54028662  1.0
  C  C151  1  0.46708882  0.18160944  0.72186088  1.0
  C  C152  1  0.63378143  0.45974001  0.18160923  1.0
  C  C153  1  0.80053825  0.27810791  0.45971437  1.0
  C  C154  1  0.96708763  0.81839032  0.27813889  1.0
  C  C155  1  0.13378247  0.54025980  0.81839107  1.0
  C  C156  1  0.32554677  0.77997063  0.50976258  1.0
  C  C157  1  0.49208736  0.27020448  0.77995570  1.0
  C  C158  1  0.65880884  0.49018619  0.27019351  1.0
  C  C159  1  0.82554836  0.22002981  0.49023807  1.0
  C  C160  1  0.99208715  0.72979528  0.22004465  1.0
  C  C161  1  0.15880889  0.50981296  0.72980475  1.0
  C  C162  1  0.11087716  0.42473766  0.31847881  1.0
  C  C163  1  0.27746092  0.10628061  0.42471411  1.0
  C  C164  1  0.44415062  0.68153367  0.10630699  1.0
  C  C165  1  0.61087770  0.57526215  0.68152148  1.0
  C  C166  1  0.77746178  0.89371919  0.57528564  1.0
  C  C167  1  0.94415143  0.31846544  0.89369245  1.0
  C  C168  1  0.06419415  0.51970366  0.35433319  1.0
  C  C169  1  0.23074140  0.16535763  0.51967549  1.0
  C  C170  1  0.39734363  0.64568239  0.16539159  1.0
  C  C171  1  0.56419473  0.48029681  0.64566742  1.0
  C  C172  1  0.73074032  0.83464349  0.48032491  1.0
  C  C173  1  0.89734438  0.35431739  0.83460818  1.0
  C  C174  1  0.15916669  0.57553423  0.33589221  1.0
  C  C175  1  0.32567934  0.23964056  0.57551830  1.0
  C  C176  1  0.49225467  0.66412615  0.23969573  1.0
  C  C177  1  0.65916731  0.42446557  0.66410752  1.0
  C  C178  1  0.82567827  0.76035989  0.42448121  1.0
  C  C179  1  0.99225443  0.33587427  0.76030381  1.0
  C  C180  1  0.16944436  0.28743980  0.39673874  1.0
  C  C181  1  0.33602067  0.89070690  0.28740643  1.0
  C  C182  1  0.50274397  0.60331787  0.89075632  1.0
  C  C183  1  0.66944342  0.71255934  0.60326123  1.0
  C  C184  1  0.83601957  0.10929354  0.71259423  1.0
  C  C185  1  0.00274428  0.39668129  0.10924306  1.0
  C  C186  1  0.10353823  0.20455039  0.32480107  1.0
  C  C187  1  0.27015681  0.87976403  0.20451017  1.0
  C  C188  1  0.43693972  0.67528956  0.87981660  1.0
  C  C189  1  0.60353921  0.79544943  0.67519923  1.0
  C  C190  1  0.77015575  0.12023576  0.79549015  1.0
  C  C191  1  0.93693968  0.32471021  0.12018374  1.0
  N  N192  1  0.23808213  0.83975703  0.51514288  1.0
  N  N193  1  0.40462177  0.32460786  0.83974959  1.0
  N  N194  1  0.57136538  0.48476415  0.32458987  1.0
  N  N195  1  0.73808279  0.16024277  0.48485686  1.0
  N  N196  1  0.90462060  0.67539191  0.16025017  1.0
  N  N197  1  0.07136539  0.51523633  0.67541018  1.0
  N  N198  1  0.13192899  0.56508579  0.51061735  1.0
  N  N199  1  0.29850413  0.05443345  0.56504154  1.0
  N  N200  1  0.46504864  0.48940584  0.05445629  1.0
  N  N201  1  0.63193046  0.43491402  0.48938295  1.0
  N  N202  1  0.79850392  0.94556767  0.43495830  1.0
  N  N203  1  0.96504937  0.51059327  0.94554315  1.0
  O  O204  1  0.80823195  0.52400458  0.42303579  1.0
  O  O205  1  0.97480996  0.10094833  0.52399357  1.0
  O  O206  1  0.14134623  0.57703768  0.10096075  1.0
  O  O207  1  0.30823192  0.47599455  0.57696306  1.0
  O  O208  1  0.47481116  0.89905475  0.47600843  1.0
  O  O209  1  0.64134506  0.42296213  0.89903898  1.0
  O  O210  1  0.90837684  0.48726049  0.51490534  1.0
  O  O211  1  0.07490361  0.97232979  0.48726584  1.0
  O  O212  1  0.24143464  0.48513457  0.97233846  1.0
  O  O213  1  0.40837731  0.51273994  0.48509418  1.0
  O  O214  1  0.57490532  0.02767333  0.51273553  1.0
  O  O215  1  0.74143540  0.51486522  0.02766071  1.0
  O  O216  1  0.09066159  0.33974572  0.45984500  1.0
  O  O217  1  0.25719657  0.87997196  0.33973347  1.0
  O  O218  1  0.42391409  0.54022411  0.87992945  1.0
  O  O219  1  0.59066256  0.66025409  0.54015529  1.0
  O  O220  1  0.75719447  0.12002982  0.66026784  1.0
  O  O221  1  0.92391494  0.45977500  0.12007056  1.0
  O  O222  1  0.28575428  0.30135890  0.39185933  1.0
  O  O223  1  0.45235174  0.90943505  0.30130822  1.0
  O  O224  1  0.61904524  0.60815999  0.90956324  1.0
  O  O225  1  0.78575527  0.69863956  0.60814204  1.0
  O  O226  1  0.95234968  0.09056472  0.69869155  1.0
  O  O227  1  0.11904651  0.39183784  0.09043492  1.0
