# generated using pymatgen
data_Zn8H44C51O49
_symmetry_space_group_name_H-M   'P 1'
_cell_length_a   18.34138529
_cell_length_b   18.49875330
_cell_length_c   18.61730081
_cell_angle_alpha   90.35841422
_cell_angle_beta   119.10867582
_cell_angle_gamma   119.67884553
_symmetry_Int_Tables_number   1
_chemical_formula_structural   Zn8H44C51O49
_chemical_formula_sum   'Zn8 H44 C51 O49'
_cell_volume   4533.69023391
_cell_formula_units_Z   1
loop_
 _symmetry_equiv_pos_site_id
 _symmetry_equiv_pos_as_xyz
  1  'x, y, z'
loop_
 _atom_site_type_symbol
 _atom_site_label
 _atom_site_symmetry_multiplicity
 _atom_site_fract_x
 _atom_site_fract_y
 _atom_site_fract_z
 _atom_site_occupancy
  Zn  Zn0  1  0.41953682  0.54734087  0.46037438  1.0
  Zn  Zn1  1  0.59516268  0.54693265  0.45657695  1.0
  Zn  Zn2  1  0.42857977  0.37813353  0.45792784  1.0
  Zn  Zn3  1  0.59158281  0.55174844  0.62869515  1.0
  Zn  Zn4  1  0.59245393  0.95461758  0.04819941  1.0
  Zn  Zn5  1  0.59993620  0.13169336  0.04094549  1.0
  Zn  Zn6  1  0.42247770  0.96303461  0.04373063  1.0
  Zn  Zn7  1  0.42690970  0.96154119  0.87467795  1.0
  H  H8  1  0.10977691  0.80718318  0.69815654  1.0
  H  H9  1  0.71701934  0.27169806  0.95061413  1.0
  H  H10  1  0.76316976  0.34550363  0.89791814  1.0
  H  H11  1  0.35773558  0.11756452  0.57896072  1.0
  H  H12  1  0.55968425  0.42382568  0.77720890  1.0
  H  H13  1  0.15349527  0.76709669  0.91814768  1.0
  H  H14  1  0.97541774  0.60401743  0.59624741  1.0
  H  H15  1  0.04213380  0.70325491  0.57657000  1.0
  H  H16  1  0.91600134  0.61451078  0.49062274  1.0
  H  H17  1  0.86727836  0.71595862  0.77066019  1.0
  H  H18  1  0.31946913  0.08731552  0.19113040  1.0
  H  H19  1  0.56941401  0.81496795  0.23113489  1.0
  H  H20  1  0.23609986  0.38576613  0.59217841  1.0
  H  H21  1  0.29273601  0.42916287  0.53357708  1.0
  H  H22  1  0.25184273  0.48438909  0.56658626  1.0
  H  H23  1  0.64729259  0.27984025  0.21912959  1.0
  H  H24  1  0.49444225  0.21547865  0.42902143  1.0
  H  H25  1  0.46862548  0.12649474  0.35823709  1.0
  H  H26  1  0.37547809  0.11002706  0.37805080  1.0
  H  H27  1  0.55289027  0.42333736  0.26284813  1.0
  H  H28  1  0.41121887  0.83702310  0.36028930  1.0
  H  H29  1  0.29836308  0.74682351  0.26318844  1.0
  H  H30  1  0.42023823  0.72597635  0.32783268  1.0
  H  H31  1  0.32436531  0.85465410  0.27528266  1.0
  H  H32  1  0.63718128  0.71582925  0.34913970  1.0
  H  H33  1  0.16944285  0.37467191  0.65835720  1.0
  H  H34  1  0.18979426  0.40280617  0.76160934  1.0
  H  H35  1  0.17895904  0.30558805  0.72492010  1.0
  H  H36  1  0.34166012  0.46558830  0.88973206  1.0
  H  H37  1  0.51133493  0.75563420  0.05801478  1.0
  H  H38  1  0.58548648  0.75447391  0.02240395  1.0
  H  H39  1  0.49665373  0.65439600  0.02760018  1.0
  H  H40  1  0.49811371  0.91047943  0.76594231  1.0
  H  H41  1  0.54884266  0.85994811  0.65183111  1.0
  H  H42  1  0.97046650  0.08903239  0.29279305  1.0
  H  H43  1  0.83530278  0.22364636  0.01879410  1.0
  H  H44  1  0.94862943  0.22930555  0.05167706  1.0
  H  H45  1  0.95465455  0.32848192  0.06757819  1.0
  H  H46  1  0.05549169  0.12090102  0.21611621  1.0
  H  H47  1  0.09999494  0.42402818  0.26755478  1.0
  H  H48  1  0.14897898  0.46978748  0.37866170  1.0
  H  H49  1  0.01368971  0.40119620  0.29761088  1.0
  H  H50  1  0.29146545  0.09843149  0.66314995  1.0
  H  H51  1  0.70066495  0.22973573  0.85237348  1.0
  C  C52  1  0.77975104  0.63477295  0.63128139  1.0
  C  C53  1  0.89479358  0.18409914  0.16397642  1.0
  C  C54  1  0.06737352  0.21835401  0.26958577  1.0
  C  C55  1  0.23777362  0.36367818  0.36313222  1.0
  C  C56  1  0.12612590  0.30446074  0.31952458  1.0
  C  C57  1  0.43756006  0.17418402  0.72623976  1.0
  C  C58  1  0.52144162  0.19592342  0.80539289  1.0
  C  C59  1  0.43492545  0.22613199  0.66748952  1.0
  C  C60  1  0.48214669  0.31568081  0.69177397  1.0
  C  C61  1  0.06748939  0.77025822  0.72545921  1.0
  C  C62  1  0.12695065  0.78414337  0.81194062  1.0
  C  C63  1  0.42492504  0.65205933  0.86328496  1.0
  C  C64  1  0.95864120  0.71350984  0.66597065  1.0
  C  C65  1  0.89115463  0.69677800  0.68791766  1.0
  C  C66  1  0.44269593  0.17333890  0.20714107  1.0
  C  C67  1  0.52150550  0.65750948  0.38142945  1.0
  C  C68  1  0.51785331  0.19818470  0.19316085  1.0
  C  C69  1  0.44782902  0.22948419  0.26701164  1.0
  C  C70  1  0.49074258  0.31823634  0.28383023  1.0
  C  C71  1  0.47003674  0.81246244  0.25858376  1.0
  C  C72  1  0.52179174  0.83792129  0.21942861  1.0
  C  C73  1  0.47338340  0.75345256  0.30877721  1.0
  C  C74  1  0.45467239  0.69286243  0.80882067  1.0
  C  C75  1  0.53374207  0.72365943  0.33453478  1.0
  C  C76  1  0.51596833  0.13877086  0.86177228  1.0
  C  C77  1  0.51666665  0.88772988  0.15934875  1.0
  C  C78  1  0.78249727  0.13076576  0.11778204  1.0
  C  C79  1  0.49265539  0.36918465  0.63444467  1.0
  C  C80  1  0.23873286  0.85319237  0.86409766  1.0
  C  C81  1  0.50981832  0.14358539  0.12846276  1.0
  C  C82  1  0.49969250  0.84725309  0.87202431  1.0
  C  C83  1  0.50465685  0.37413124  0.35299911  1.0
  C  C84  1  0.49069676  0.63295980  0.63411050  1.0
  C  C85  1  0.44617557  0.64024488  0.74386927  1.0
  C  C86  1  0.39812327  0.54795187  0.72890290  1.0
  C  C87  1  0.36443426  0.50953734  0.77960670  1.0
  C  C88  1  0.38299874  0.56267634  0.84962893  1.0
  C  C89  1  0.08696527  0.41276512  0.31918586  1.0
  C  C90  1  0.70291684  0.27966314  0.88767704  1.0
  C  C91  1  0.96718671  0.64970367  0.56074737  1.0
  C  C92  1  0.28515011  0.44631817  0.58479319  1.0
  C  C93  1  0.43562912  0.15721847  0.37037772  1.0
  C  C94  1  0.35871254  0.81772670  0.28948367  1.0
  C  C95  1  0.20688766  0.37357921  0.72542496  1.0
  C  C96  1  0.48003831  0.67933240  0.69103745  1.0
  C  C97  1  0.51143604  0.71620238  0.01407425  1.0
  C  C98  1  0.91773711  0.26028839  0.06736136  1.0
  C  C99  1  0.50657378  0.76352691  0.69253553  1.0
  C  C100  1  0.50320982  0.81210279  0.74867210  1.0
  C  C101  1  0.48583203  0.78149242  0.81069782  1.0
  C  C102  1  0.95585506  0.16253170  0.22264407  1.0
  O  O103  1  0.50924001  0.50749871  0.50069004  1.0
  O  O104  1  0.28306009  0.86570084  0.94618967  1.0
  O  O105  1  0.59098311  0.18120408  0.12795833  1.0
  O  O106  1  0.73613405  0.62676858  0.67127656  1.0
  O  O107  1  0.45175864  0.88266277  0.83300089  1.0
  O  O108  1  0.42892680  0.06739594  0.07879053  1.0
  O  O109  1  0.56164294  0.87105624  0.95318535  1.0
  O  O110  1  0.73735737  0.04926297  0.10960790  1.0
  O  O111  1  0.28054945  0.89288846  0.82567468  1.0
  O  O112  1  0.56593526  0.17857763  0.94278457  1.0
  O  O113  1  0.46199471  0.91794250  0.13922836  1.0
  O  O114  1  0.45063355  0.62619813  0.39320988  1.0
  O  O115  1  0.27715318  0.44585508  0.39105591  1.0
  O  O116  1  0.58663165  0.63862731  0.40434793  1.0
  O  O117  1  0.44336561  0.33126608  0.55335264  1.0
  O  O118  1  0.54560055  0.45577247  0.35666148  1.0
  O  O119  1  0.56686371  0.62824464  0.67264891  1.0
  O  O120  1  0.48027186  0.34241096  0.40416449  1.0
  O  O121  1  0.42707207  0.60837422  0.55220554  1.0
  O  O122  1  0.53649983  0.80186147  0.64091130  1.0
  O  O123  1  0.07868229  0.33380129  0.33625855  1.0
  O  O124  1  0.34733899  0.09139018  0.69185121  1.0
  O  O125  1  0.55442530  0.45294337  0.67483268  1.0
  O  O126  1  0.61063275  0.27490858  0.83615744  1.0
  O  O127  1  0.37507148  0.17703626  0.58075025  1.0
  O  O128  1  0.52519808  0.36184051  0.77449657  1.0
  O  O129  1  0.09313635  0.73887528  0.85767600  1.0
  O  O130  1  0.91966067  0.68215849  0.57974749  1.0
  O  O131  1  0.92756831  0.74227667  0.76860806  1.0
  O  O132  1  0.35786672  0.08880717  0.16767997  1.0
  O  O133  1  0.38605947  0.49863637  0.66313703  1.0
  O  O134  1  0.60930142  0.27756607  0.24347186  1.0
  O  O135  1  0.38792822  0.18229424  0.29700690  1.0
  O  O136  1  0.73424018  0.59437226  0.55130612  1.0
  O  O137  1  0.52316457  0.36136030  0.23598627  1.0
  O  O138  1  0.41081604  0.84093562  0.24718606  1.0
  O  O139  1  0.60760395  0.74830220  0.32114808  1.0
  O  O140  1  0.31534359  0.41985296  0.76668221  1.0
  O  O141  1  0.35620391  0.52433841  0.90314307  1.0
  O  O142  1  0.43178906  0.69857072  0.92673105  1.0
  O  O143  1  0.52349509  0.89173161  0.73865103  1.0
  O  O144  1  0.91642481  0.08383044  0.23798291  1.0
  O  O145  1  0.94093808  0.26465775  0.15356138  1.0
  O  O146  1  0.10896839  0.17482268  0.26603800  1.0
  O  O147  1  0.28566182  0.32941757  0.37034851  1.0
  O  O148  1  0.51080096  0.00280828  0.00096162  1.0
  O  O149  1  0.46404691  0.05604492  0.82479326  1.0
  O  O150  1  0.56932482  0.89642829  0.12860011  1.0
  O  O151  1  0.74130345  0.17267939  0.09001944  1.0
