# generated using pymatgen
data_Zn4H28C36N4O21
_symmetry_space_group_name_H-M   'P 1'
_cell_length_a   17.74706916
_cell_length_b   18.68157613
_cell_length_c   23.28829540
_cell_angle_alpha   66.40069370
_cell_angle_beta   69.77815496
_cell_angle_gamma   89.95166437
_symmetry_Int_Tables_number   1
_chemical_formula_structural   Zn4H28C36N4O21
_chemical_formula_sum   'Zn8 H56 C72 N8 O42'
_cell_volume   6553.75344496
_cell_formula_units_Z   2
loop_
 _symmetry_equiv_pos_site_id
 _symmetry_equiv_pos_as_xyz
  1  'x, y, z'
loop_
 _atom_site_type_symbol
 _atom_site_label
 _atom_site_symmetry_multiplicity
 _atom_site_fract_x
 _atom_site_fract_y
 _atom_site_fract_z
 _atom_site_occupancy
  Zn  Zn0  1  0.12004295  0.52836858  0.94355184  1.0
  Zn  Zn1  1  0.97128900  0.56203238  0.04882975  1.0
  Zn  Zn2  1  0.98082809  0.38878260  0.04942620  1.0
  Zn  Zn3  1  0.93550472  0.52958952  0.93754936  1.0
  Zn  Zn4  1  0.38461751  0.97474845  0.04803466  1.0
  Zn  Zn5  1  0.52937176  0.11637485  0.93915672  1.0
  Zn  Zn6  1  0.52223440  0.94426472  0.93840916  1.0
  Zn  Zn7  1  0.57197988  0.97587665  0.04782152  1.0
  H  H8  1  0.43551557  0.80004562  0.38801112  1.0
  H  H9  1  0.19740632  0.82111492  0.37663016  1.0
  H  H10  1  0.31680171  0.70342348  0.61364529  1.0
  H  H11  1  0.08055544  0.69331055  0.59908884  1.0
  H  H12  1  0.70395008  0.07975297  0.60632907  1.0
  H  H13  1  0.68985775  0.31189167  0.60523794  1.0
  H  H14  1  0.80303083  0.19334237  0.38108035  1.0
  H  H15  1  0.81549401  0.42396303  0.38319061  1.0
  H  H16  1  0.20376418  0.30275694  0.90645110  1.0
  H  H17  1  0.12900718  0.23224884  0.98229367  1.0
  H  H18  1  0.21513769  0.13772620  0.98323940  1.0
  H  H19  1  0.28919908  0.20830873  0.90675214  1.0
  H  H20  1  0.21597523  0.12303801  0.09559513  1.0
  H  H21  1  0.28855078  0.18422110  0.09859282  1.0
  H  H22  1  0.12810578  0.21658774  0.09545760  1.0
  H  H23  1  0.20093049  0.27693376  0.09944020  1.0
  H  H24  1  0.30766983  0.39086534  0.91181983  1.0
  H  H25  1  0.30736899  0.37952028  0.99053376  1.0
  H  H26  1  0.39547275  0.28686124  0.98801409  1.0
  H  H27  1  0.39380030  0.29656898  0.91019935  1.0
  H  H28  1  0.88878740  0.80101186  0.90264559  1.0
  H  H29  1  0.88788959  0.78755020  0.98257021  1.0
  H  H30  1  0.79834605  0.87881904  0.98632784  1.0
  H  H31  1  0.80091166  0.89286597  0.90573472  1.0
  H  H32  1  0.69235295  0.77504946  0.09222982  1.0
  H  H33  1  0.62162037  0.71418139  0.08683869  1.0
  H  H34  1  0.78270643  0.68409221  0.08952921  1.0
  H  H35  1  0.71070841  0.62296814  0.08536065  1.0
  H  H36  1  0.78650101  0.71237083  0.89593008  1.0
  H  H37  1  0.71293396  0.64072549  0.97050138  1.0
  H  H38  1  0.62519578  0.73404420  0.97030344  1.0
  H  H39  1  0.69973646  0.80629783  0.89698450  1.0
  H  H40  1  0.16307687  0.79270999  0.93467933  1.0
  H  H41  1  0.24776862  0.75519523  0.89584990  1.0
  H  H42  1  0.33380453  0.85149749  0.89372379  1.0
  H  H43  1  0.24856457  0.88564276  0.93616802  1.0
  H  H44  1  0.39225307  0.74014836  0.96091378  1.0
  H  H45  1  0.35270414  0.69953810  0.05001947  1.0
  H  H46  1  0.30235372  0.64388275  0.96649011  1.0
  H  H47  1  0.26031678  0.60621427  0.05567509  1.0
  H  H48  1  0.10077675  0.73711969  0.06350860  1.0
  H  H49  1  0.13842873  0.65917033  0.11287011  1.0
  H  H50  1  0.23092231  0.74968607  0.11122170  1.0
  H  H51  1  0.19047717  0.82762995  0.06454160  1.0
  H  H52  1  0.89589673  0.26951583  0.93261814  1.0
  H  H53  1  0.84834559  0.34495500  0.89015850  1.0
  H  H54  1  0.76436325  0.24777858  0.89142101  1.0
  H  H55  1  0.80676422  0.17216502  0.93982748  1.0
  H  H56  1  0.64812783  0.30285177  0.95019622  1.0
  H  H57  1  0.60169972  0.26035901  0.03910187  1.0
  H  H58  1  0.73272141  0.39401131  0.95545389  1.0
  H  H59  1  0.69091126  0.34638565  0.04479053  1.0
  H  H60  1  0.83753945  0.20204060  0.06143594  1.0
  H  H61  1  0.75774352  0.23641458  0.10764506  1.0
  H  H62  1  0.66175852  0.14979062  0.10885874  1.0
  H  H63  1  0.74185533  0.11026867  0.06808336  1.0
  C  C64  1  0.13977804  0.63442588  0.00343647  1.0
  C  C65  1  0.91403402  0.41483684  0.17203167  1.0
  C  C66  1  0.14834915  0.36386988  0.99821303  1.0
  C  C67  1  0.85882564  0.36466693  0.99655050  1.0
  C  C68  1  0.08859730  0.58988680  0.81661804  1.0
  C  C69  1  0.85929975  0.64378008  0.98802655  1.0
  C  C70  1  0.36082951  0.13933148  0.99497116  1.0
  C  C71  1  0.58660549  0.09162382  0.81564812  1.0
  C  C72  1  0.35563724  0.86052799  0.99827170  1.0
  C  C73  1  0.64472036  0.86694005  0.99059633  1.0
  C  C74  1  0.42289479  0.91174503  0.17185740  1.0
  C  C75  1  0.64211442  0.14233092  0.99768512  1.0
  C  C76  1  0.38507665  0.87581257  0.24786064  1.0
  C  C77  1  0.43081267  0.85065952  0.28891282  1.0
  C  C78  1  0.39659020  0.81755544  0.35903525  1.0
  C  C79  1  0.31142089  0.80560605  0.39215525  1.0
  C  C80  1  0.26335042  0.82938808  0.35266402  1.0
  C  C81  1  0.30059993  0.86447380  0.28273551  1.0
  C  C82  1  0.27444955  0.77024982  0.46362779  1.0
  C  C83  1  0.24156734  0.73941191  0.52520863  1.0
  C  C84  1  0.20382284  0.70321408  0.59662356  1.0
  C  C85  1  0.25085431  0.68762659  0.63693193  1.0
  C  C86  1  0.21250847  0.65279996  0.70678469  1.0
  C  C87  1  0.12795040  0.62934535  0.74073623  1.0
  C  C88  1  0.08329868  0.64507629  0.69883695  1.0
  C  C89  1  0.11861587  0.68191614  0.62878409  1.0
  C  C90  1  0.62631862  0.12909277  0.73993414  1.0
  C  C91  1  0.65137734  0.08433789  0.70258131  1.0
  C  C92  1  0.68696696  0.11765467  0.63257531  1.0
  C  C93  1  0.70178779  0.20062217  0.59613480  1.0
  C  C94  1  0.67899798  0.24764687  0.63196946  1.0
  C  C95  1  0.64110768  0.21139812  0.70182178  1.0
  C  C96  1  0.73841864  0.23628258  0.52476846  1.0
  C  C97  1  0.76923324  0.26756514  0.46313309  1.0
  C  C98  1  0.80466069  0.30379507  0.39173008  1.0
  C  C99  1  0.81892631  0.25750736  0.35501351  1.0
  C  C100  1  0.85229896  0.29448416  0.28497482  1.0
  C  C101  1  0.87581684  0.37666384  0.24785220  1.0
  C  C102  1  0.86178551  0.42063103  0.28618452  1.0
  C  C103  1  0.82599947  0.38669188  0.35618334  1.0
  C  C104  1  0.19307655  0.26014934  0.95857906  1.0
  C  C105  1  0.25035532  0.19753466  0.95871940  1.0
  C  C106  1  0.30511935  0.20087232  0.99728275  1.0
  C  C107  1  0.25011274  0.18321300  0.07056689  1.0
  C  C108  1  0.19198289  0.24506068  0.07092901  1.0
  C  C109  1  0.20792239  0.30545568  0.99769554  1.0
  C  C110  1  0.29680123  0.34662684  0.96333739  1.0
  C  C111  1  0.35458086  0.28468492  0.96221597  1.0
  C  C112  1  0.84869829  0.78683779  0.95514903  1.0
  C  C113  1  0.78975240  0.84781782  0.95712893  1.0
  C  C114  1  0.70061965  0.80516977  0.99000085  1.0
  C  C115  1  0.68512706  0.74406380  0.06271419  1.0
  C  C116  1  0.74446120  0.68340538  0.06137707  1.0
  C  C117  1  0.79998796  0.70259464  0.98749845  1.0
  C  C118  1  0.74711959  0.70065162  0.94795541  1.0
  C  C119  1  0.68900256  0.76241309  0.94852879  1.0
  C  C120  1  0.21911993  0.77000901  0.93879990  1.0
  C  C121  1  0.27673136  0.83265654  0.93827488  1.0
  C  C122  1  0.29652071  0.79762834  0.00306788  1.0
  C  C123  1  0.33567004  0.72325012  0.00551406  1.0
  C  C124  1  0.27558034  0.66056159  0.00855871  1.0
  C  C125  1  0.19658163  0.69358624  0.00528978  1.0
  C  C126  1  0.15698372  0.71373853  0.06577251  1.0
  C  C127  1  0.21697041  0.77436578  0.06521908  1.0
  C  C128  1  0.83678802  0.28899183  0.93508566  1.0
  C  C129  1  0.77859222  0.22523499  0.93729558  1.0
  C  C130  1  0.69838477  0.20147546  0.00017270  1.0
  C  C131  1  0.66071453  0.27676389  0.99667739  1.0
  C  C132  1  0.71887986  0.33631705  0.99905367  1.0
  C  C133  1  0.79902305  0.30407653  0.99913936  1.0
  C  C134  1  0.78058075  0.22540546  0.06217191  1.0
  C  C135  1  0.71834932  0.16565686  0.06419997  1.0
  N  N136  1  0.52036696  0.85510288  0.25895542  1.0
  N  N137  1  0.24482110  0.89285398  0.24613735  1.0
  N  N138  1  0.26717595  0.64450129  0.74434651  1.0
  N  N139  1  0.99382091  0.61968376  0.72758557  1.0
  N  N140  1  0.64429481  0.99700394  0.73699648  1.0
  N  N141  1  0.61302472  0.26527775  0.73478234  1.0
  N  N142  1  0.85824591  0.24189578  0.25032129  1.0
  N  N143  1  0.88851528  0.50757914  0.25312218  1.0
  O  O144  1  0.00190496  0.50308209  0.99322835  1.0
  O  O145  1  0.16870019  0.61160811  0.95626417  1.0
  O  O146  1  0.90245264  0.48515650  0.14290019  1.0
  O  O147  1  0.07290672  0.33410911  0.02941071  1.0
  O  O148  1  0.06761033  0.61290917  0.04800082  1.0
  O  O149  1  0.17685882  0.43759818  0.96735213  1.0
  O  O150  1  0.95423095  0.37284205  0.14481827  1.0
  O  O151  1  0.89023773  0.34076212  0.04131529  1.0
  O  O152  1  0.01324793  0.59183611  0.84210893  1.0
  O  O153  1  0.87378674  0.43465891  0.94929995  1.0
  O  O154  1  0.13521261  0.55859212  0.84732577  1.0
  O  O155  1  0.90494301  0.64162657  0.02064914  1.0
  O  O156  1  0.85968720  0.60108820  0.95676386  1.0
  O  O157  1  0.50203107  0.00192804  0.99502981  1.0
  O  O158  1  0.33383710  0.06879309  0.04125552  1.0
  O  O159  1  0.59599613  0.13366308  0.84479848  1.0
  O  O160  1  0.43049805  0.86681351  0.96228621  1.0
  O  O161  1  0.42983636  0.16224633  0.94591844  1.0
  O  O162  1  0.32664389  0.90387630  0.02867493  1.0
  O  O163  1  0.54777838  0.02192802  0.84284322  1.0
  O  O164  1  0.61374116  0.88886985  0.94554229  1.0
  O  O165  1  0.49757434  0.94188660  0.14478866  1.0
  O  O166  1  0.63405659  0.89315081  0.03542114  1.0
  O  O167  1  0.37550413  0.90791531  0.14264860  1.0
  O  O168  1  0.59697541  0.17097075  0.96422922  1.0
  O  O169  1  0.64513298  0.06888665  0.02746444  1.0
  O  O170  1  0.54466172  0.80767521  0.23468795  1.0
  O  O171  1  0.56236711  0.90299758  0.26420257  1.0
  O  O172  1  0.24694756  0.96513716  0.21938440  1.0
  O  O173  1  0.19796014  0.84157278  0.24912328  1.0
  O  O174  1  0.26519387  0.69099397  0.77021564  1.0
  O  O175  1  0.31314904  0.59513597  0.74291408  1.0
  O  O176  1  0.96984018  0.54824413  0.75032183  1.0
  O  O177  1  0.95169201  0.67275566  0.72268756  1.0
  O  O178  1  0.68786233  0.97156193  0.76977845  1.0
  O  O179  1  0.59855759  0.95766133  0.72696927  1.0
  O  O180  1  0.53877183  0.26218092  0.76011398  1.0
  O  O181  1  0.66642284  0.31120749  0.73091380  1.0
  O  O182  1  0.81410893  0.25002088  0.21789201  1.0
  O  O183  1  0.90365310  0.19202476  0.25976785  1.0
  O  O184  1  0.96258238  0.53087048  0.22573134  1.0
  O  O185  1  0.83437424  0.54870398  0.25881988  1.0
