# generated using pymatgen
data_CdH14C20(NO)4
_symmetry_space_group_name_H-M   'P 1'
_cell_length_a   8.42541080
_cell_length_b   17.78391073
_cell_length_c   18.77912383
_cell_angle_alpha   89.99984250
_cell_angle_beta   89.99979068
_cell_angle_gamma   89.99994899
_symmetry_Int_Tables_number   1
_chemical_formula_structural   CdH14C20(NO)4
_chemical_formula_sum   'Cd4 H56 C80 N16 O16'
_cell_volume   2813.80294881
_cell_formula_units_Z   4
loop_
 _symmetry_equiv_pos_site_id
 _symmetry_equiv_pos_as_xyz
  1  'x, y, z'
loop_
 _atom_site_type_symbol
 _atom_site_label
 _atom_site_symmetry_multiplicity
 _atom_site_fract_x
 _atom_site_fract_y
 _atom_site_fract_z
 _atom_site_occupancy
  Cd  Cd0  1  0.51246773  0.08977511  0.97017035  1.0
  Cd  Cd1  1  0.48753108  0.58977618  0.02982872  1.0
  Cd  Cd2  1  0.48752856  0.08977528  0.47016994  1.0
  Cd  Cd3  1  0.51247143  0.58977432  0.52983073  1.0
  H  H4  1  0.33905885  0.08174495  0.13286945  1.0
  H  H5  1  0.66093759  0.58174689  0.86713070  1.0
  H  H6  1  0.66093666  0.08174809  0.63286749  1.0
  H  H7  1  0.33906098  0.58174206  0.36713532  1.0
  H  H8  1  0.50489714  0.07079213  0.26090939  1.0
  H  H9  1  0.49510408  0.57079282  0.73909026  1.0
  H  H10  1  0.49510328  0.07079422  0.76090929  1.0
  H  H11  1  0.50489675  0.57079074  0.23909302  1.0
  H  H12  1  0.82546259  0.10940980  0.08935741  1.0
  H  H13  1  0.17453262  0.60941126  0.91064161  1.0
  H  H14  1  0.17453085  0.10940977  0.58936050  1.0
  H  H15  1  0.82547029  0.60941072  0.41064065  1.0
  H  H16  1  0.99357998  0.03249407  0.16236717  1.0
  H  H17  1  0.00642131  0.53249299  0.83763311  1.0
  H  H18  1  0.00642250  0.03249355  0.66236893  1.0
  H  H19  1  0.99358116  0.53249183  0.33763188  1.0
  H  H20  1  0.22253355  0.03298050  0.24672902  1.0
  H  H21  1  0.77746774  0.53297766  0.75327126  1.0
  H  H22  1  0.77746705  0.03297854  0.74673167  1.0
  H  H23  1  0.22253661  0.53297682  0.25326915  1.0
  H  H24  1  0.92969713  0.13210174  0.40805108  1.0
  H  H25  1  0.07030160  0.63209854  0.59194788  1.0
  H  H26  1  0.07029840  0.13209782  0.90805540  1.0
  H  H27  1  0.92970151  0.63209796  0.09194569  1.0
  H  H28  1  0.70197089  0.13706370  0.32350418  1.0
  H  H29  1  0.29802783  0.63706241  0.67649477  1.0
  H  H30  1  0.29802651  0.13706193  0.82350760  1.0
  H  H31  1  0.70197339  0.63706080  0.17649347  1.0
  H  H32  1  0.59599627  0.25011456  0.86600866  1.0
  H  H33  1  0.40400460  0.75011480  0.13398999  1.0
  H  H34  1  0.40400531  0.25011420  0.36600892  1.0
  H  H35  1  0.59599437  0.75011347  0.63398973  1.0
  H  H36  1  0.39290458  0.37389784  0.86439038  1.0
  H  H37  1  0.60709487  0.87389742  0.13560848  1.0
  H  H38  1  0.60709559  0.37389683  0.36438924  1.0
  H  H39  1  0.39290386  0.87389674  0.63560909  1.0
  H  H40  1  0.20343094  0.20357519  0.99786983  1.0
  H  H41  1  0.79656883  0.70357452  0.00212948  1.0
  H  H42  1  0.79656965  0.20357523  0.49786998  1.0
  H  H43  1  0.20343131  0.70357448  0.50212986  1.0
  H  H44  1  0.27753168  0.44708578  0.96484767  1.0
  H  H45  1  0.72246882  0.94708561  0.03515313  1.0
  H  H46  1  0.72246872  0.44708641  0.46484688  1.0
  H  H47  1  0.27753060  0.94708554  0.53515285  1.0
  H  H48  1  0.04913669  0.53266820  0.99181599  1.0
  H  H49  1  0.95086341  0.03266806  0.00818535  1.0
  H  H50  1  0.95086213  0.53266874  0.49181643  1.0
  H  H51  1  0.04913678  0.03266808  0.50818332  1.0
  H  H52  1  0.72568555  0.34705031  0.97437025  1.0
  H  H53  1  0.27431632  0.84704923  0.02563081  1.0
  H  H54  1  0.27431496  0.34705000  0.47437018  1.0
  H  H55  1  0.72568573  0.84704953  0.52562928  1.0
  H  H56  1  0.95080713  0.26103885  0.94417974  1.0
  H  H57  1  0.04919491  0.76103778  0.05582101  1.0
  H  H58  1  0.04919498  0.26103864  0.44417844  1.0
  H  H59  1  0.95080468  0.76103799  0.55582071  1.0
  C  C60  1  0.46526749  0.08568048  0.14342894  1.0
  C  C61  1  0.53472895  0.58568082  0.85657173  1.0
  C  C62  1  0.53472793  0.08568143  0.64342879  1.0
  C  C63  1  0.46527207  0.58567987  0.35657402  1.0
  C  C64  1  0.54587339  0.08035984  0.20671618  1.0
  C  C65  1  0.45412543  0.58036151  0.79328397  1.0
  C  C66  1  0.45412507  0.08036194  0.70671562  1.0
  C  C67  1  0.54587375  0.58035716  0.29328720  1.0
  C  C68  1  0.71536815  0.09941030  0.11763359  1.0
  C  C69  1  0.28462589  0.59941066  0.88236545  1.0
  C  C70  1  0.28462627  0.09941078  0.61763544  1.0
  C  C71  1  0.71537608  0.59940905  0.38236574  1.0
  C  C72  1  0.83551730  0.08663057  0.23757361  1.0
  C  C73  1  0.16448389  0.58662964  0.76242547  1.0
  C  C74  1  0.16448209  0.08663054  0.73757672  1.0
  C  C75  1  0.83551791  0.58662798  0.26242396  1.0
  C  C76  1  0.98124088  0.05671533  0.21545003  1.0
  C  C77  1  0.01876155  0.55671384  0.78455019  1.0
  C  C78  1  0.01875756  0.05671424  0.71545230  1.0
  C  C79  1  0.98124130  0.55671324  0.28454791  1.0
  C  C80  1  0.10876097  0.05671207  0.26255943  1.0
  C  C81  1  0.89124027  0.55670810  0.73744079  1.0
  C  C82  1  0.89123827  0.05671062  0.76256189  1.0
  C  C83  1  0.10876178  0.55670787  0.23743940  1.0
  C  C84  1  0.09183923  0.08562350  0.33156742  1.0
  C  C85  1  0.90816077  0.58561916  0.66843326  1.0
  C  C86  1  0.90816058  0.08561979  0.83157038  1.0
  C  C87  1  0.09184061  0.58561837  0.16843083  1.0
  C  C88  1  0.94365158  0.11278773  0.35347240  1.0
  C  C89  1  0.05634718  0.61278494  0.64652661  1.0
  C  C90  1  0.05634324  0.11278550  0.85347568  1.0
  C  C91  1  0.94365789  0.61278604  0.14652599  1.0
  C  C92  1  0.81583249  0.11410643  0.30673709  1.0
  C  C93  1  0.18416627  0.61410401  0.69326298  1.0
  C  C94  1  0.18416509  0.11410471  0.80673910  1.0
  C  C95  1  0.81583604  0.61410292  0.19326150  1.0
  C  C96  1  0.22955931  0.08842818  0.38174696  1.0
  C  C97  1  0.77044069  0.58842686  0.61825371  1.0
  C  C98  1  0.77043771  0.08842678  0.88174855  1.0
  C  C99  1  0.22956347  0.58842657  0.11825159  1.0
  C  C100  1  0.48415353  0.25907208  0.89325282  1.0
  C  C101  1  0.51584732  0.75907066  0.10674580  1.0
  C  C102  1  0.51584662  0.25907111  0.39325343  1.0
  C  C103  1  0.48415067  0.75906938  0.60674679  1.0
  C  C104  1  0.38563959  0.32050009  0.89190345  1.0
  C  C105  1  0.61435759  0.82050145  0.10809608  1.0
  C  C106  1  0.61435927  0.32050190  0.39190177  1.0
  C  C107  1  0.38564028  0.82050077  0.60809670  1.0
  C  C108  1  0.28274352  0.23220897  0.96139944  1.0
  C  C109  1  0.71725739  0.73220880  0.03859979  1.0
  C  C110  1  0.71725851  0.23220961  0.46139919  1.0
  C  C111  1  0.28274240  0.73220816  0.53860004  1.0
  C  C112  1  0.12650774  0.35012347  0.95145007  1.0
  C  C113  1  0.87349413  0.85012263  0.04854992  1.0
  C  C114  1  0.87349295  0.35012348  0.45144903  1.0
  C  C115  1  0.12650654  0.85012206  0.54854989  1.0
  C  C116  1  0.15579995  0.42620401  0.96465556  1.0
  C  C117  1  0.84420177  0.92620323  0.03534422  1.0
  C  C118  1  0.84420049  0.42620403  0.46465511  1.0
  C  C119  1  0.15579886  0.92620321  0.53534415  1.0
  C  C120  1  0.02883393  0.47353219  0.97966483  1.0
  C  C121  1  0.97116652  0.97353139  0.02033591  1.0
  C  C122  1  0.97116511  0.47353215  0.47966469  1.0
  C  C123  1  0.02883415  0.97353143  0.52033391  1.0
  C  C124  1  0.87370432  0.44530762  0.98256048  1.0
  C  C125  1  0.12629737  0.94530662  0.01744033  1.0
  C  C126  1  0.12629712  0.44530737  0.48256012  1.0
  C  C127  1  0.87370338  0.94530743  0.51743855  1.0
  C  C128  1  0.84669567  0.36847921  0.97111172  1.0
  C  C129  1  0.15330616  0.86847873  0.02888929  1.0
  C  C130  1  0.15330482  0.36847951  0.47111132  1.0
  C  C131  1  0.84669464  0.86847898  0.52888703  1.0
  C  C132  1  0.97253416  0.32055724  0.95474350  1.0
  C  C133  1  0.02746658  0.82055620  0.04525710  1.0
  C  C134  1  0.02746656  0.32055760  0.45474171  1.0
  C  C135  1  0.97253299  0.82055640  0.54525729  1.0
  C  C136  1  0.73995405  0.49838819  0.99797391  1.0
  C  C137  1  0.26004516  0.99838831  0.00202516  1.0
  C  C138  1  0.26004597  0.49838845  0.49797440  1.0
  C  C139  1  0.73995205  0.99838860  0.50202360  1.0
  N  N140  1  0.57199722  0.09762898  0.08863662  1.0
  N  N141  1  0.42800039  0.59763202  0.91136296  1.0
  N  N142  1  0.42799744  0.09763166  0.58863716  1.0
  N  N143  1  0.57200372  0.59762877  0.41136455  1.0
  N  N144  1  0.70541820  0.08874044  0.18950757  1.0
  N  N145  1  0.29458061  0.58874157  0.81049150  1.0
  N  N146  1  0.29457921  0.08874205  0.68950993  1.0
  N  N147  1  0.70542079  0.58873940  0.31049127  1.0
  N  N148  1  0.41865393  0.20474089  0.93678000  1.0
  N  N149  1  0.58134703  0.70473958  0.06321823  1.0
  N  N150  1  0.58134835  0.20473990  0.43678051  1.0
  N  N151  1  0.41865380  0.70473945  0.56321933  1.0
  N  N152  1  0.25763261  0.30258949  0.93523361  1.0
  N  N153  1  0.74236697  0.80258866  0.06476544  1.0
  N  N154  1  0.74236711  0.30258955  0.43523279  1.0
  N  N155  1  0.25763247  0.80258804  0.56476573  1.0
  O  O156  1  0.36435522  0.06358831  0.36055367  1.0
  O  O157  1  0.63564363  0.56358699  0.63944707  1.0
  O  O158  1  0.63564083  0.06358697  0.86055494  1.0
  O  O159  1  0.36436040  0.56358721  0.13944526  1.0
  O  O160  1  0.20884787  0.11616271  0.44375516  1.0
  O  O161  1  0.79114970  0.61616213  0.55624544  1.0
  O  O162  1  0.79114621  0.11616018  0.94375725  1.0
  O  O163  1  0.20885492  0.61616072  0.05624282  1.0
  O  O164  1  0.76770933  0.56878665  0.99400556  1.0
  O  O165  1  0.23229070  0.06878569  0.00599250  1.0
  O  O166  1  0.23229060  0.56878636  0.49400556  1.0
  O  O167  1  0.76770706  0.06878597  0.50599249  1.0
  O  O168  1  0.60390540  0.47133710  0.01407512  1.0
  O  O169  1  0.39609505  0.97133712  0.98592402  1.0
  O  O170  1  0.39609509  0.47133698  0.51407625  1.0
  O  O171  1  0.60390418  0.97133724  0.48592183  1.0
