# generated using pymatgen
data_ZnH17C23INO6
_symmetry_space_group_name_H-M   'P 1'
_cell_length_a   10.84933008
_cell_length_b   18.21532515
_cell_length_c   19.63359231
_cell_angle_alpha   89.90892348
_cell_angle_beta   90.08025378
_cell_angle_gamma   89.80296906
_symmetry_Int_Tables_number   1
_chemical_formula_structural   ZnH17C23INO6
_chemical_formula_sum   'Zn2 H34 C46 I2 N2 O12'
_cell_volume   3880.03884038
_cell_formula_units_Z   2
loop_
 _symmetry_equiv_pos_site_id
 _symmetry_equiv_pos_as_xyz
  1  'x, y, z'
loop_
 _atom_site_type_symbol
 _atom_site_label
 _atom_site_symmetry_multiplicity
 _atom_site_fract_x
 _atom_site_fract_y
 _atom_site_fract_z
 _atom_site_occupancy
  Zn  Zn0  1  0.50001824  0.42397042  0.50021979  1.0
  Zn  Zn1  1  0.50068969  0.57441262  0.49847254  1.0
  H  H2  1  0.11766658  0.38113628  0.52707507  1.0
  H  H3  1  0.08930338  0.60401402  0.45892132  1.0
  H  H4  1  0.51753709  0.61557769  0.15513389  1.0
  H  H5  1  0.46432514  0.38124811  0.15514259  1.0
  H  H6  1  0.51816923  0.61455452  0.28263137  1.0
  H  H7  1  0.46573811  0.38160180  0.28268390  1.0
  H  H8  1  0.64683890  0.31032202  0.56551496  1.0
  H  H9  1  0.64866352  0.68779883  0.56542048  1.0
  H  H10  1  0.34085568  0.16767064  0.43788648  1.0
  H  H11  1  0.35126569  0.83285577  0.43215429  1.0
  H  H12  1  0.33900660  0.30583272  0.44049362  1.0
  H  H13  1  0.35147284  0.69467283  0.43338491  1.0
  H  H14  1  0.31014960  0.06665738  0.53072954  1.0
  H  H15  1  0.31274316  0.93044573  0.52977992  1.0
  H  H16  1  0.69384111  0.93297904  0.46843416  1.0
  H  H17  1  0.69096634  0.06865514  0.46889502  1.0
  H  H18  1  0.88844615  0.38469331  0.45888110  1.0
  H  H19  1  0.91119815  0.50250388  0.39125950  1.0
  H  H20  1  0.90755294  0.38918290  0.54812629  1.0
  H  H21  1  0.88136997  0.58858670  0.43020999  1.0
  H  H22  1  0.09664244  0.48385953  0.60829480  1.0
  H  H23  1  0.11771086  0.57553564  0.58160513  1.0
  H  H24  1  0.88507401  0.51223797  0.61016620  1.0
  H  H25  1  0.90528766  0.59310687  0.56191720  1.0
  H  H26  1  0.43904049  0.61249456  0.71482986  1.0
  H  H27  1  0.56802003  0.38992695  0.71587396  1.0
  H  H28  1  0.43452976  0.61264655  0.84184026  1.0
  H  H29  1  0.56251133  0.38848284  0.84276670  1.0
  H  H30  1  0.66142350  0.43322212  0.93722686  1.0
  H  H31  1  0.32956227  0.56654003  0.93502851  1.0
  H  H32  1  0.66539406  0.42886422  0.11617833  1.0
  H  H33  1  0.31612936  0.56769479  0.11387996  1.0
  H  H34  1  0.11357578  0.42832202  0.39204394  1.0
  H  H35  1  0.21216813  0.54531098  0.38420575  1.0
  C  C36  1  0.49323295  0.49840345  0.36640326  1.0
  C  C37  1  0.92993536  0.53463987  0.56448586  1.0
  C  C38  1  0.46578925  0.56378046  0.74361269  1.0
  C  C39  1  0.53958080  0.43847340  0.74422235  1.0
  C  C40  1  0.46272842  0.56333045  0.81445389  1.0
  C  C41  1  0.53699894  0.43818309  0.81500060  1.0
  C  C42  1  0.49842865  0.50056204  0.85149074  1.0
  C  C43  1  0.50406872  0.50128610  0.70773364  1.0
  C  C44  1  0.58617949  0.46112395  0.96327148  1.0
  C  C45  1  0.40336294  0.53808728  0.96204038  1.0
  C  C46  1  0.58371894  0.46045424  0.03427804  1.0
  C  C47  1  0.40197150  0.53746605  0.03306848  1.0
  C  C48  1  0.49181290  0.49863145  0.07075876  1.0
  C  C49  1  0.49583433  0.49996208  0.92673298  1.0
  C  C50  1  0.50455238  0.56428740  0.18299446  1.0
  C  C51  1  0.47729905  0.43242731  0.18302840  1.0
  C  C52  1  0.26133300  0.49816390  0.50053639  1.0
  C  C53  1  0.50541317  0.56400489  0.25391402  1.0
  C  C54  1  0.47741103  0.43235274  0.25400843  1.0
  C  C55  1  0.49180895  0.49809752  0.28997534  1.0
  C  C56  1  0.49079126  0.49843432  0.14620802  1.0
  C  C57  1  0.58121968  0.27620678  0.53797376  1.0
  C  C58  1  0.58464825  0.72243104  0.53686118  1.0
  C  C59  1  0.58638003  0.19974573  0.54069238  1.0
  C  C60  1  0.58965930  0.79893642  0.53978549  1.0
  C  C61  1  0.50035195  0.15804954  0.50351432  1.0
  C  C62  1  0.50550616  0.84131516  0.50151117  1.0
  C  C63  1  0.40968695  0.19744281  0.46735058  1.0
  C  C64  1  0.41813903  0.80257072  0.46284896  1.0
  C  C65  1  0.40866395  0.27367489  0.46765061  1.0
  C  C66  1  0.41803374  0.72641422  0.46263879  1.0
  C  C67  1  0.39413236  0.03732941  0.51667577  1.0
  C  C68  1  0.39562414  0.96082962  0.51620415  1.0
  C  C69  1  0.50415622  0.92242708  0.50056569  1.0
  C  C70  1  0.50114578  0.07696577  0.50137796  1.0
  C  C71  1  0.50598903  0.50087923  0.63163397  1.0
  C  C72  1  0.61008556  0.96215260  0.48292316  1.0
  C  C73  1  0.60849366  0.03843363  0.48323596  1.0
  C  C74  1  0.73948217  0.49774868  0.49862639  1.0
  C  C75  1  0.07270621  0.41667241  0.48909384  1.0
  C  C76  1  0.06887577  0.54708274  0.44374411  1.0
  C  C77  1  0.93124382  0.41656292  0.49985983  1.0
  C  C78  1  0.92936360  0.53587225  0.43683393  1.0
  C  C79  1  0.07127417  0.52383145  0.56860578  1.0
  C  C80  1  0.12082904  0.49549936  0.49948008  1.0
  C  C81  1  0.88012987  0.49532483  0.50049683  1.0
  I  I82  1  0.71959727  0.15361773  0.60623212  1.0
  I  I83  1  0.71969745  0.84473297  0.60691481  1.0
  N  N84  1  0.49476956  0.31184250  0.50180941  1.0
  N  N85  1  0.50067637  0.68736128  0.49883317  1.0
  O  O86  1  0.46516071  0.43892589  0.39674334  1.0
  O  O87  1  0.52192137  0.55877584  0.39504860  1.0
  O  O88  1  0.31841782  0.44205096  0.52219356  1.0
  O  O89  1  0.31227519  0.55751720  0.47991984  1.0
  O  O90  1  0.53841140  0.44141199  0.60243281  1.0
  O  O91  1  0.47451498  0.56006459  0.60097882  1.0
  O  O92  1  0.68331220  0.43912146  0.48230940  1.0
  O  O93  1  0.68801243  0.55897649  0.51237436  1.0
  O  O94  1  0.67625086  0.42303170  0.06703822  1.0
  O  O95  1  0.30801204  0.57459021  0.06467788  1.0
  O  O96  1  0.10755098  0.38694655  0.42401068  1.0
  O  O97  1  0.12489911  0.53342150  0.37809381  1.0
