# generated using pymatgen
data_AlH7C17IO9
_symmetry_space_group_name_H-M   'P 1'
_cell_length_a   6.71805498
_cell_length_b   21.38247677
_cell_length_c   25.39416160
_cell_angle_alpha   96.33578716
_cell_angle_beta   89.90281784
_cell_angle_gamma   89.78737049
_symmetry_Int_Tables_number   1
_chemical_formula_structural   AlH7C17IO9
_chemical_formula_sum   'Al4 H28 C68 I4 O36'
_cell_volume   3625.52386184
_cell_formula_units_Z   4
loop_
 _symmetry_equiv_pos_site_id
 _symmetry_equiv_pos_as_xyz
  1  'x, y, z'
loop_
 _atom_site_type_symbol
 _atom_site_label
 _atom_site_symmetry_multiplicity
 _atom_site_fract_x
 _atom_site_fract_y
 _atom_site_fract_z
 _atom_site_occupancy
  Al  Al0  1  0.26049877  0.24756396  0.24906889  1.0
  Al  Al1  1  0.73104804  0.74726380  0.74543088  1.0
  Al  Al2  1  0.75973366  0.24542146  0.24764527  1.0
  Al  Al3  1  0.23132759  0.74740142  0.74895542  1.0
  H  H4  1  0.27603894  0.89617354  0.66112318  1.0
  H  H5  1  0.73599898  0.09477588  0.33257609  1.0
  H  H6  1  0.77816604  0.59908251  0.83636335  1.0
  H  H7  1  0.24378120  0.41022461  0.16729500  1.0
  H  H8  1  0.73950026  0.89820597  0.52766393  1.0
  H  H9  1  0.23204550  0.11121862  0.47748226  1.0
  H  H10  1  0.23787009  0.60393553  0.97002866  1.0
  H  H11  1  0.78530752  0.40151591  0.03366722  1.0
  H  H12  1  0.07569074  0.88953870  0.02929706  1.0
  H  H13  1  0.91690858  0.09606679  0.97275156  1.0
  H  H14  1  0.58035875  0.60428259  0.46509663  1.0
  H  H15  1  0.41063190  0.39952934  0.52286961  1.0
  H  H16  1  0.33923879  0.99254022  0.03451913  1.0
  H  H17  1  0.65374845  0.99295708  0.96715102  1.0
  H  H18  1  0.83856747  0.49935617  0.46015000  1.0
  H  H19  1  0.15285323  0.50451661  0.52831967  1.0
  H  H20  1  0.53573337  0.01579370  0.55095824  1.0
  H  H21  1  0.38638509  0.00727783  0.38266507  1.0
  H  H22  1  0.04163967  0.50069988  0.96406505  1.0
  H  H23  1  0.95867974  0.52478170  0.13316296  1.0
  H  H24  1  0.65870611  0.71641990  0.58207788  1.0
  H  H25  1  0.48236314  0.13083260  0.39178708  1.0
  H  H26  1  0.15619822  0.78179664  0.91205050  1.0
  H  H27  1  0.09438730  0.31155731  0.13954356  1.0
  H  H28  1  0.50482802  0.17017455  0.21873011  1.0
  H  H29  1  0.48070989  0.83060953  0.75237220  1.0
  H  H30  1  0.00581419  0.32504559  0.27336310  1.0
  H  H31  1  0.97932341  0.66862759  0.75926577  1.0
  C  C32  1  0.51648267  0.32382079  0.32423512  1.0
  C  C33  1  0.47765948  0.67131162  0.67028769  1.0
  C  C34  1  0.00993164  0.16917135  0.17187126  1.0
  C  C35  1  0.97417076  0.82479411  0.82395776  1.0
  C  C36  1  0.50722790  0.31974270  0.18113531  1.0
  C  C37  1  0.48612496  0.67871992  0.81652934  1.0
  C  C38  1  0.01221127  0.17792893  0.31717953  1.0
  C  C39  1  0.98646955  0.81579026  0.67820010  1.0
  C  C40  1  0.17191145  0.93860831  0.59377623  1.0
  C  C41  1  0.82810692  0.05805353  0.40470999  1.0
  C  C42  1  0.67558035  0.56202476  0.90632501  1.0
  C  C43  1  0.35151847  0.44704152  0.09748860  1.0
  C  C44  1  0.15697604  0.89708295  0.63224038  1.0
  C  C45  1  0.84441420  0.09741066  0.36454867  1.0
  C  C46  1  0.65867701  0.59991287  0.86538064  1.0
  C  C47  1  0.36126273  0.40777127  0.13769636  1.0
  C  C48  1  0.99720514  0.85581444  0.63368206  1.0
  C  C49  1  0.99938839  0.14042181  0.36331591  1.0
  C  C50  1  0.49705189  0.64051256  0.86212007  1.0
  C  C51  1  0.51452764  0.36398914  0.13969019  1.0
  C  C52  1  0.84936609  0.85448194  0.59429773  1.0
  C  C53  1  0.13780441  0.14652482  0.40505543  1.0
  C  C54  1  0.34830286  0.64360883  0.90152943  1.0
  C  C55  1  0.67056461  0.36233145  0.10237471  1.0
  C  C56  1  0.85631105  0.89787468  0.55737997  1.0
  C  C57  1  0.12485477  0.10705661  0.44511220  1.0
  C  C58  1  0.35624741  0.60280128  0.94053641  1.0
  C  C59  1  0.66529739  0.40237138  0.06266262  1.0
  C  C60  1  0.01485439  0.94100138  0.55667498  1.0
  C  C61  1  0.97479631  0.06102392  0.44526127  1.0
  C  C62  1  0.51835167  0.56117276  0.94368346  1.0
  C  C63  1  0.50476757  0.44459138  0.05862663  1.0
  C  C64  1  0.00457248  0.98485436  0.51912061  1.0
  C  C65  1  0.97821644  0.02023072  0.48518058  1.0
  C  C66  1  0.51611183  0.51985832  0.98345864  1.0
  C  C67  1  0.50468567  0.48444547  0.01787135  1.0
  C  C68  1  0.87061975  0.98035550  0.03938279  1.0
  C  C69  1  0.12244360  0.00519569  0.96236053  1.0
  C  C70  1  0.37066568  0.51498647  0.45570802  1.0
  C  C71  1  0.62079838  0.48889489  0.53265831  1.0
  C  C72  1  0.04155918  0.93563141  0.01677584  1.0
  C  C73  1  0.95126786  0.04986148  0.98498275  1.0
  C  C74  1  0.54373418  0.55858066  0.47791531  1.0
  C  C75  1  0.44753287  0.44537907  0.51044865  1.0
  C  C76  1  0.96800451  0.86480184  0.87369159  1.0
  C  C77  1  0.01865663  0.12395462  0.12578762  1.0
  C  C78  1  0.47173936  0.63118712  0.62068287  1.0
  C  C79  1  0.51838610  0.36926881  0.37014598  1.0
  C  C80  1  0.80550515  0.99287847  0.98251462  1.0
  C  C81  1  0.18733581  0.99263957  0.01926853  1.0
  C  C82  1  0.30468756  0.50340939  0.51277838  1.0
  C  C83  1  0.68658555  0.50053580  0.47558156  1.0
  C  C84  1  0.97518189  0.94662829  0.95872677  1.0
  C  C85  1  0.01772419  0.03882725  0.04307756  1.0
  C  C86  1  0.47644032  0.54855077  0.53613723  1.0
  C  C87  1  0.51473268  0.45548049  0.45213640  1.0
  C  C88  1  0.96394244  0.90085536  0.91435481  1.0
  C  C89  1  0.02711428  0.08532407  0.08688423  1.0
  C  C90  1  0.46707179  0.59474087  0.58027029  1.0
  C  C91  1  0.52412175  0.40842974  0.40871317  1.0
  C  C92  1  0.35986040  0.97563087  0.59429454  1.0
  C  C93  1  0.65628903  0.01502215  0.40579259  1.0
  C  C94  1  0.86728938  0.52706801  0.91002225  1.0
  C  C95  1  0.17145054  0.48640881  0.09335007  1.0
  C  C96  1  0.68857003  0.80571773  0.58831626  1.0
  C  C97  1  0.29405975  0.19723732  0.41013923  1.0
  C  C98  1  0.18680757  0.69250419  0.90567617  1.0
  C  C99  1  0.83824578  0.31563789  0.10462678  1.0
  I  I100  1  0.67873653  0.96211508  0.10210112  1.0
  I  I101  1  0.31398626  0.02314724  0.89971313  1.0
  I  I102  1  0.17961713  0.53427179  0.39322540  1.0
  I  I103  1  0.81145633  0.47012467  0.59517458  1.0
  O  O104  1  0.67216455  0.30479534  0.20064899  1.0
  O  O105  1  0.31355864  0.69440765  0.80154955  1.0
  O  O106  1  0.18365741  0.19668824  0.30467478  1.0
  O  O107  1  0.81429038  0.80073874  0.69351529  1.0
  O  O108  1  0.34828325  0.31064381  0.30256162  1.0
  O  O109  1  0.64999433  0.68789766  0.68709678  1.0
  O  O110  1  0.83848443  0.18908422  0.18733958  1.0
  O  O111  1  0.14713696  0.80894017  0.80659826  1.0
  O  O112  1  0.33454535  0.30105637  0.19381858  1.0
  O  O113  1  0.65056546  0.69107032  0.79510237  1.0
  O  O114  1  0.84899795  0.18584256  0.29346480  1.0
  O  O115  1  0.15126827  0.80204704  0.69852469  1.0
  O  O116  1  0.17584184  0.18506853  0.19384005  1.0
  O  O117  1  0.80735189  0.81003789  0.80275452  1.0
  O  O118  1  0.68451092  0.30121005  0.30818145  1.0
  O  O119  1  0.31116142  0.68554069  0.69218023  1.0
  O  O120  1  0.50850961  0.20756729  0.24417428  1.0
  O  O121  1  0.48086849  0.78506385  0.74906416  1.0
  O  O122  1  0.00926183  0.28516513  0.25099493  1.0
  O  O123  1  0.98150718  0.70977643  0.74663036  1.0
  O  O124  1  0.46904209  0.98520053  0.63275042  1.0
  O  O125  1  0.40475341  0.99575875  0.54657678  1.0
  O  O126  1  0.64597322  0.96742760  0.42787318  1.0
  O  O127  1  0.49556331  0.03674188  0.37885037  1.0
  O  O128  1  0.97135799  0.50755839  0.87220021  1.0
  O  O129  1  0.91449491  0.52274621  0.96120588  1.0
  O  O130  1  0.10279382  0.50171030  0.05203932  1.0
  O  O131  1  0.08155632  0.50280809  0.14104977  1.0
  O  O132  1  0.51119800  0.81727037  0.58546518  1.0
  O  O133  1  0.76794135  0.74702920  0.58292379  1.0
  O  O134  1  0.25484444  0.25236671  0.42259603  1.0
  O  O135  1  0.48372248  0.17628588  0.40363575  1.0
  O  O136  1  0.00878928  0.68158970  0.90650526  1.0
  O  O137  1  0.26579113  0.75114995  0.91214800  1.0
  O  O138  1  0.83220514  0.26132069  0.08430898  1.0
  O  O139  1  0.99319680  0.34278950  0.13157015  1.0
