# generated using pymatgen
data_Zn4H26C32O13F4
_symmetry_space_group_name_H-M   'P 1'
_cell_length_a   17.91333223
_cell_length_b   18.51737421
_cell_length_c   19.84286356
_cell_angle_alpha   63.27960421
_cell_angle_beta   63.29171599
_cell_angle_gamma   89.98770706
_symmetry_Int_Tables_number   1
_chemical_formula_structural   Zn4H26C32O13F4
_chemical_formula_sum   'Zn8 H52 C64 O26 F8'
_cell_volume   5081.01318232
_cell_formula_units_Z   2
loop_
 _symmetry_equiv_pos_site_id
 _symmetry_equiv_pos_as_xyz
  1  'x, y, z'
loop_
 _atom_site_type_symbol
 _atom_site_label
 _atom_site_symmetry_multiplicity
 _atom_site_fract_x
 _atom_site_fract_y
 _atom_site_fract_z
 _atom_site_occupancy
  Zn  Zn0  1  0.87103705  0.46641406  0.07548131  1.0
  Zn  Zn1  1  0.03787011  0.61804210  0.93257096  1.0
  Zn  Zn2  1  0.03066400  0.44301029  0.93762349  1.0
  Zn  Zn3  1  0.04634389  0.45585231  0.08697197  1.0
  Zn  Zn4  1  0.62159258  0.03250708  0.93798686  1.0
  Zn  Zn5  1  0.45801176  0.04658937  0.08073526  1.0
  Zn  Zn6  1  0.46211160  0.87332176  0.08416887  1.0
  Zn  Zn7  1  0.44324525  0.02920679  0.93298533  1.0
  H  H8  1  0.78628727  0.15680570  0.68546686  1.0
  H  H9  1  0.69831355  0.33599599  0.33105070  1.0
  H  H10  1  0.33583245  0.96112197  0.33714279  1.0
  H  H11  1  0.16289090  0.52933467  0.67980186  1.0
  H  H12  1  0.78510510  0.19914858  0.11556909  1.0
  H  H13  1  0.86932881  0.21449802  0.01483840  1.0
  H  H14  1  0.77790235  0.11977553  0.01973431  1.0
  H  H15  1  0.69352269  0.10680128  0.11924189  1.0
  H  H16  1  0.79884109  0.23327561  0.87642675  1.0
  H  H17  1  0.72765668  0.29918358  0.87338147  1.0
  H  H18  1  0.88801675  0.32923789  0.87276981  1.0
  H  H19  1  0.81470331  0.39308124  0.87259356  1.0
  H  H20  1  0.68046382  0.29243281  0.11578659  1.0
  H  H21  1  0.69356828  0.37262716  0.01671857  1.0
  H  H22  1  0.60487472  0.28054036  0.01620484  1.0
  H  H23  1  0.58993912  0.20110683  0.11645551  1.0
  H  H24  1  0.09314466  0.69259873  0.12317245  1.0
  H  H25  1  0.11172228  0.77111276  0.01982195  1.0
  H  H26  1  0.20102753  0.86335495  0.01959011  1.0
  H  H27  1  0.18284917  0.78394278  0.12238699  1.0
  H  H28  1  0.32310710  0.87910576  0.88141705  1.0
  H  H29  1  0.39389895  0.81289838  0.88450795  1.0
  H  H30  1  0.23497800  0.78528858  0.88198799  1.0
  H  H31  1  0.30507689  0.71858110  0.88744669  1.0
  H  H32  1  0.19205160  0.59484978  0.13196728  1.0
  H  H33  1  0.27793710  0.60422585  0.03618645  1.0
  H  H34  1  0.36885058  0.69778953  0.03281677  1.0
  H  H35  1  0.28337941  0.68716155  0.12941882  1.0
  H  H36  1  0.82500189  0.72484035  0.08195850  1.0
  H  H37  1  0.73456717  0.64110024  0.13526065  1.0
  H  H38  1  0.64518931  0.73288468  0.13943791  1.0
  H  H39  1  0.73632484  0.81637650  0.08494041  1.0
  H  H40  1  0.59886831  0.69692307  0.05371310  1.0
  H  H41  1  0.65529360  0.75560090  0.93852030  1.0
  H  H42  1  0.68966000  0.60614689  0.04759608  1.0
  H  H43  1  0.74670425  0.66664464  0.93248783  1.0
  H  H44  1  0.90868486  0.81089277  0.91592272  1.0
  H  H45  1  0.87726547  0.78667862  0.85492009  1.0
  H  H46  1  0.78627477  0.87696794  0.85901608  1.0
  H  H47  1  0.81852135  0.90193230  0.91911341  1.0
  H  H48  1  0.08790885  0.18678993  0.09310825  1.0
  H  H49  1  0.12474128  0.21330539  0.15027164  1.0
  H  H50  1  0.21089704  0.11871081  0.14725237  1.0
  H  H51  1  0.17628957  0.09527810  0.08700892  1.0
  H  H52  1  0.34006784  0.23812427  0.06933710  1.0
  H  H53  1  0.39950245  0.29683748  0.95419843  1.0
  H  H54  1  0.25323054  0.33277666  0.06955425  1.0
  H  H55  1  0.31177371  0.38954568  0.95437298  1.0
  H  H56  1  0.17074746  0.26748093  0.92705113  1.0
  H  H57  1  0.26060440  0.35188190  0.86957791  1.0
  H  H58  1  0.35192150  0.26186839  0.86685692  1.0
  H  H59  1  0.26238411  0.17819395  0.92086083  1.0
  C  C60  1  0.85966954  0.64002193  0.99620322  1.0
  C  C61  1  0.11739431  0.60599520  0.77269189  1.0
  C  C62  1  0.85403220  0.36381489  0.00095462  1.0
  C  C63  1  0.13632595  0.35432343  0.01342476  1.0
  C  C64  1  0.87044432  0.37953141  0.24333370  1.0
  C  C65  1  0.13705236  0.63052535  0.01351547  1.0
  C  C66  1  0.63600566  0.13948919  0.00524285  1.0
  C  C67  1  0.38490406  0.88429224  0.24439647  1.0
  C  C68  1  0.64139017  0.86004545  0.00440534  1.0
  C  C69  1  0.35574343  0.85425040  0.01036807  1.0
  C  C70  1  0.61483965  0.11313604  0.77339173  1.0
  C  C71  1  0.35180373  0.13102011  0.00903096  1.0
  C  C72  1  0.63993863  0.19068961  0.61780085  1.0
  C  C73  1  0.76132262  0.17898128  0.64078111  1.0
  C  C74  1  0.81704442  0.22285760  0.55265101  1.0
  C  C75  1  0.78824105  0.25400233  0.49106896  1.0
  C  C76  1  0.84444580  0.30035946  0.39900578  1.0
  C  C77  1  0.72320508  0.31303406  0.37578919  1.0
  C  C78  1  0.66741455  0.26854876  0.46396281  1.0
  C  C79  1  0.69607987  0.23702251  0.52566289  1.0
  C  C80  1  0.67072610  0.16153242  0.67572190  1.0
  C  C81  1  0.81384247  0.33017776  0.34088907  1.0
  C  C82  1  0.30659816  0.75605424  0.39725245  1.0
  C  C83  1  0.31418675  0.89362557  0.37984267  1.0
  C  C84  1  0.26827896  0.85966975  0.46844091  1.0
  C  C85  1  0.23874430  0.77184744  0.52734072  1.0
  C  C86  1  0.19212771  0.73436812  0.61976958  1.0
  C  C87  1  0.18437878  0.59683032  0.63709807  1.0
  C  C88  1  0.22894348  0.63080952  0.54847814  1.0
  C  C89  1  0.25869876  0.71862516  0.48962474  1.0
  C  C90  1  0.33458327  0.84213078  0.34196549  1.0
  C  C91  1  0.16530564  0.64828983  0.67503103  1.0
  C  C92  1  0.80159672  0.21577190  0.04898624  1.0
  C  C93  1  0.74115121  0.15370742  0.05141592  1.0
  C  C94  1  0.69298174  0.20154146  0.00396726  1.0
  C  C95  1  0.76103002  0.26634354  0.90868062  1.0
  C  C96  1  0.81987961  0.32903403  0.90721342  1.0
  C  C97  1  0.79344150  0.30581196  0.00141505  1.0
  C  C98  1  0.69905665  0.30833787  0.04902706  1.0
  C  C99  1  0.63966840  0.24732856  0.04949204  1.0
  C  C100  1  0.14397534  0.73741311  0.05594370  1.0
  C  C101  1  0.20365247  0.79865077  0.05537228  1.0
  C  C102  1  0.29805708  0.79244213  0.01167386  1.0
  C  C103  1  0.32603165  0.81462858  0.91741727  1.0
  C  C104  1  0.26701664  0.75247228  0.91859232  1.0
  C  C105  1  0.19740403  0.68861268  0.01349739  1.0
  C  C106  1  0.24156019  0.64056497  0.06468425  1.0
  C  C107  1  0.30168828  0.70213179  0.06298985  1.0
  C  C108  1  0.76925603  0.70449138  0.07916076  1.0
  C  C109  1  0.70992964  0.76519668  0.08160997  1.0
  C  C110  1  0.70180496  0.80249705  0.99873009  1.0
  C  C111  1  0.66352481  0.72976931  0.99597709  1.0
  C  C112  1  0.72382057  0.66993619  0.99236686  1.0
  C  C113  1  0.80256892  0.70096535  0.99412079  1.0
  C  C114  1  0.85205492  0.78924669  0.91534106  1.0
  C  C115  1  0.79212597  0.84933793  0.91784431  1.0
  C  C116  1  0.14618142  0.20848158  0.09147391  1.0
  C  C117  1  0.20444880  0.14673785  0.08881297  1.0
  C  C118  1  0.29550778  0.19276022  0.00702597  1.0
  C  C119  1  0.33384483  0.26476209  0.01083752  1.0
  C  C120  1  0.27563817  0.32673737  0.01140351  1.0
  C  C121  1  0.19659095  0.29627069  0.00985675  1.0
  C  C122  1  0.22735887  0.28922541  0.92756778  1.0
  C  C123  1  0.28732944  0.22933522  0.92497418  1.0
  O  O124  1  0.99744971  0.49600693  0.00918849  1.0
  O  O125  1  0.82164351  0.56307125  0.05337958  1.0
  O  O126  1  0.10611025  0.65080965  0.80799480  1.0
  O  O127  1  0.93483385  0.37319672  0.95459980  1.0
  O  O128  1  0.94062478  0.66990302  0.94286508  1.0
  O  O129  1  0.82019175  0.39723238  0.04777507  1.0
  O  O130  1  0.09231967  0.52647768  0.81215201  1.0
  O  O131  1  0.10637706  0.37248911  0.96200828  1.0
  O  O132  1  0.95197539  0.39596401  0.21063008  1.0
  O  O133  1  0.11897285  0.37915112  0.06814647  1.0
  O  O134  1  0.82970668  0.40090026  0.20139100  1.0
  O  O135  1  0.10744998  0.66587357  0.96218098  1.0
  O  O136  1  0.11986162  0.55213708  0.06462207  1.0
  O  O137  1  0.49545945  0.99506206  0.00784003  1.0
  O  O138  1  0.67422617  0.10148115  0.96444337  1.0
  O  O139  1  0.41184572  0.96369806  0.20481455  1.0
  O  O140  1  0.56239795  0.82557613  0.06456251  1.0
  O  O141  1  0.55458271  0.12949083  0.04714564  1.0
  O  O142  1  0.67396433  0.93803698  0.94956786  1.0
  O  O143  1  0.39637799  0.83947598  0.20906092  1.0
  O  O144  1  0.38822711  0.82365164  0.05948950  1.0
  O  O145  1  0.53396791  0.08674371  0.80734521  1.0
  O  O146  1  0.36688856  0.93201525  0.96028999  1.0
  O  O147  1  0.65587238  0.10261247  0.81425251  1.0
  O  O148  1  0.36875830  0.10375686  0.07094655  1.0
  O  O149  1  0.37715008  0.11062499  0.95034330  1.0
  F  F150  1  0.58150062  0.25459384  0.49241245  1.0
  F  F151  1  0.55424718  0.17640068  0.64808689  1.0
  F  F152  1  0.90294775  0.23664033  0.52425499  1.0
  F  F153  1  0.93002746  0.31485527  0.36917432  1.0
  F  F154  1  0.24480531  0.57764702  0.51678630  1.0
  F  F155  1  0.32536384  0.70463126  0.36418902  1.0
  F  F156  1  0.25117991  0.91284053  0.50010107  1.0
  F  F157  1  0.17417778  0.78574994  0.65290645  1.0
